MODEL 1
REMARK VINA RESULT:      -7.4      0.000      0.000
REMARK  Name = 
REMARK  6 active torsions:
REMARK  status: ('A' for Active; 'I' for Inactive)
REMARK    1  A    between atoms: C_1  and  O_2
REMARK    2  A    between atoms: O_2  and  C_3
REMARK    3  A    between atoms: C_6  and  C_7
REMARK    4  A    between atoms: C_20  and  O_21
REMARK    5  A    between atoms: O_21  and  C_22
REMARK    6  A    between atoms: N_26  and  O_27
REMARK                            x       y       z     vdW  Elec       q    Type
REMARK                         _______ _______ _______ _____ _____    ______ ____
ROOT
ATOM      1  C   UNL     1      -2.646  12.653  20.891  0.00  0.00    +0.000 A 
ATOM      2  N   UNL     1      -1.539  11.940  21.222  0.00  0.00    +0.000 NA
ATOM      3  C   UNL     1      -0.944  11.144  20.315  0.00  0.00    +0.000 A 
ATOM      4  C   UNL     1       0.110  10.363  20.774  0.00  0.00    +0.000 A 
ATOM      5  C   UNL     1       0.874   9.586  19.909  0.00  0.00    +0.000 A 
ATOM      6  C   UNL     1       0.566   9.569  18.554  0.00  0.00    +0.000 A 
ATOM      7  C   UNL     1      -0.569  10.248  18.093  0.00  0.00    +0.000 A 
ATOM      8  C   UNL     1      -1.360  11.019  18.971  0.00  0.00    +0.000 A 
ATOM      9  C   UNL     1      -2.564  11.661  18.702  0.00  0.00    +0.000 A 
ATOM     10  C   UNL     1      -3.234  12.474  19.650  0.00  0.00    +0.000 A 
ATOM     11  C   UNL     1      -4.662  12.516  19.333  0.00  0.00    +0.000 A 
ATOM     12  C   UNL     1      -5.675  12.942  20.171  0.00  0.00    +0.000 A 
ATOM     13  C   UNL     1      -6.652  12.016  20.483  0.00  0.00    +0.000 A 
ATOM     14  C   UNL     1      -6.677  10.771  19.840  0.00  0.00    +0.000 A 
ATOM     15  C   UNL     1      -5.863  10.524  18.728  0.00  0.00    +0.000 A 
ATOM     16  C   UNL     1      -4.893  11.469  18.438  0.00  0.00    +0.000 A 
ATOM     17  C   UNL     1      -3.609  11.262  17.724  0.00  0.00    +0.000 C 
ATOM     18  N   UNL     1      -3.430  11.002  16.465  0.00  0.00    +0.000 NA
ENDROOT
BRANCH   1  22
ATOM     19  C   UNL     1      -3.731  15.119  24.252  0.00  0.00    +0.000 A 
ATOM     20  C   UNL     1      -3.420  15.697  23.015  0.00  0.00    +0.000 A 
ATOM     21  C   UNL     1      -3.101  14.899  21.912  0.00  0.00    +0.000 A 
ATOM     22  C   UNL     1      -3.132  13.500  21.998  0.00  0.00    +0.000 A 
ATOM     23  C   UNL     1      -3.539  12.941  23.222  0.00  0.00    +0.000 A 
ATOM     24  C   UNL     1      -3.813  13.740  24.349  0.00  0.00    +0.000 A 
BRANCH  19  26
ATOM     25  C   UNL     1      -4.785  17.114  25.019  0.00  0.00    +0.000 C 
ATOM     26  O   UNL     1      -3.902  16.027  25.258  0.00  0.00    +0.000 OA
ENDBRANCH  19  26
ENDBRANCH   1  22
BRANCH  14  27
ATOM     27  O   UNL     1      -7.556   9.873  20.381  0.00  0.00    +0.000 OA
ATOM     28  C   UNL     1      -7.267   8.491  20.177  0.00  0.00    +0.000 C 
ENDBRANCH  14  27
BRANCH  18  29
ATOM     29  O   UNL     1      -4.686  10.941  15.818  0.00  0.00    +0.000 OA
ATOM     30  H   UNL     1      -5.073  11.818  16.005  0.00  0.00    +0.000 HD
ENDBRANCH  18  29
TORSDOF 4
ENDMDL
MODEL 2
REMARK VINA RESULT:      -7.3      3.181      5.688
REMARK  Name = 
REMARK  6 active torsions:
REMARK  status: ('A' for Active; 'I' for Inactive)
REMARK    1  A    between atoms: C_1  and  O_2
REMARK    2  A    between atoms: O_2  and  C_3
REMARK    3  A    between atoms: C_6  and  C_7
REMARK    4  A    between atoms: C_20  and  O_21
REMARK    5  A    between atoms: O_21  and  C_22
REMARK    6  A    between atoms: N_26  and  O_27
REMARK                            x       y       z     vdW  Elec       q    Type
REMARK                         _______ _______ _______ _____ _____    ______ ____
ROOT
ATOM      1  C   UNL     1      -1.872  11.900  20.076  0.00  0.00    +0.000 A 
ATOM      2  N   UNL     1      -2.910  11.993  19.207  0.00  0.00    +0.000 NA
ATOM      3  C   UNL     1      -2.896  11.306  18.050  0.00  0.00    +0.000 A 
ATOM      4  C   UNL     1      -3.944  11.553  17.170  0.00  0.00    +0.000 A 
ATOM      5  C   UNL     1      -4.097  10.824  15.995  0.00  0.00    +0.000 A 
ATOM      6  C   UNL     1      -3.170   9.839  15.676  0.00  0.00    +0.000 A 
ATOM      7  C   UNL     1      -2.039   9.664  16.485  0.00  0.00    +0.000 A 
ATOM      8  C   UNL     1      -1.868  10.417  17.665  0.00  0.00    +0.000 A 
ATOM      9  C   UNL     1      -0.767  10.444  18.514  0.00  0.00    +0.000 A 
ATOM     10  C   UNL     1      -0.738  11.188  19.720  0.00  0.00    +0.000 A 
ATOM     11  C   UNL     1       0.648  11.499  20.069  0.00  0.00    +0.000 A 
ATOM     12  C   UNL     1       1.071  12.444  20.985  0.00  0.00    +0.000 A 
ATOM     13  C   UNL     1       1.871  13.461  20.502  0.00  0.00    +0.000 A 
ATOM     14  C   UNL     1       2.346  13.421  19.184  0.00  0.00    +0.000 A 
ATOM     15  C   UNL     1       2.209  12.263  18.408  0.00  0.00    +0.000 A 
ATOM     16  C   UNL     1       1.402  11.260  18.917  0.00  0.00    +0.000 A 
ATOM     17  C   UNL     1       0.659  10.220  18.161  0.00  0.00    +0.000 C 
ATOM     18  N   UNL     1       1.146   9.208  17.510  0.00  0.00    +0.000 NA
ENDROOT
BRANCH   1  22
ATOM     19  C   UNL     1      -2.843  14.183  23.598  0.00  0.00    +0.000 A 
ATOM     20  C   UNL     1      -2.629  12.801  23.680  0.00  0.00    +0.000 A 
ATOM     21  C   UNL     1      -2.279  12.063  22.546  0.00  0.00    +0.000 A 
ATOM     22  C   UNL     1      -2.084  12.688  21.306  0.00  0.00    +0.000 A 
ATOM     23  C   UNL     1      -2.212  14.087  21.267  0.00  0.00    +0.000 A 
ATOM     24  C   UNL     1      -2.612  14.830  22.394  0.00  0.00    +0.000 A 
BRANCH  19  26
ATOM     25  C   UNL     1      -2.329  15.326  25.624  0.00  0.00    +0.000 C 
ATOM     26  O   UNL     1      -3.293  14.742  24.760  0.00  0.00    +0.000 OA
ENDBRANCH  19  26
ENDBRANCH   1  22
BRANCH  14  27
ATOM     27  O   UNL     1       2.947  14.577  18.764  0.00  0.00    +0.000 OA
ATOM     28  C   UNL     1       4.253  14.453  18.204  0.00  0.00    +0.000 C 
ENDBRANCH  14  27
BRANCH  18  29
ATOM     29  O   UNL     1       2.555   9.215  17.622  0.00  0.00    +0.000 OA
ATOM     30  H   UNL     1       2.829   9.837  16.919  0.00  0.00    +0.000 HD
ENDBRANCH  18  29
TORSDOF 4
ENDMDL
MODEL 3
REMARK VINA RESULT:      -7.2      1.201      1.263
REMARK  Name = 
REMARK  6 active torsions:
REMARK  status: ('A' for Active; 'I' for Inactive)
REMARK    1  A    between atoms: C_1  and  O_2
REMARK    2  A    between atoms: O_2  and  C_3
REMARK    3  A    between atoms: C_6  and  C_7
REMARK    4  A    between atoms: C_20  and  O_21
REMARK    5  A    between atoms: O_21  and  C_22
REMARK    6  A    between atoms: N_26  and  O_27
REMARK                            x       y       z     vdW  Elec       q    Type
REMARK                         _______ _______ _______ _____ _____    ______ ____
ROOT
ATOM      1  C   UNL     1      -1.774  12.160  20.821  0.00  0.00    +0.000 A 
ATOM      2  N   UNL     1      -0.786  11.281  21.123  0.00  0.00    +0.000 NA
ATOM      3  C   UNL     1      -0.219  10.532  20.159  0.00  0.00    +0.000 A 
ATOM      4  C   UNL     1       0.699   9.576  20.576  0.00  0.00    +0.000 A 
ATOM      5  C   UNL     1       1.431   8.821  19.666  0.00  0.00    +0.000 A 
ATOM      6  C   UNL     1       1.227   9.007  18.303  0.00  0.00    +0.000 A 
ATOM      7  C   UNL     1       0.216   9.873  17.867  0.00  0.00    +0.000 A 
ATOM      8  C   UNL     1      -0.545  10.623  18.787  0.00  0.00    +0.000 A 
ATOM      9  C   UNL     1      -1.642  11.437  18.532  0.00  0.00    +0.000 A 
ATOM     10  C   UNL     1      -2.284  12.207  19.534  0.00  0.00    +0.000 A 
ATOM     11  C   UNL     1      -3.669  12.464  19.140  0.00  0.00    +0.000 A 
ATOM     12  C   UNL     1      -4.687  12.908  19.963  0.00  0.00    +0.000 A 
ATOM     13  C   UNL     1      -5.785  12.080  20.093  0.00  0.00    +0.000 A 
ATOM     14  C   UNL     1      -5.905  10.934  19.294  0.00  0.00    +0.000 A 
ATOM     15  C   UNL     1      -5.044  10.724  18.210  0.00  0.00    +0.000 A 
ATOM     16  C   UNL     1      -3.952  11.570  18.104  0.00  0.00    +0.000 A 
ATOM     17  C   UNL     1      -2.649  11.293  17.448  0.00  0.00    +0.000 C 
ATOM     18  N   UNL     1      -2.407  11.167  16.179  0.00  0.00    +0.000 NA
ENDROOT
BRANCH   1  22
ATOM     19  C   UNL     1      -2.862  14.240  24.433  0.00  0.00    +0.000 A 
ATOM     20  C   UNL     1      -2.110  14.880  23.442  0.00  0.00    +0.000 A 
ATOM     21  C   UNL     1      -1.784  14.220  22.253  0.00  0.00    +0.000 A 
ATOM     22  C   UNL     1      -2.242  12.920  21.997  0.00  0.00    +0.000 A 
ATOM     23  C   UNL     1      -3.074  12.332  22.965  0.00  0.00    +0.000 A 
ATOM     24  C   UNL     1      -3.365  12.972  24.185  0.00  0.00    +0.000 A 
BRANCH  19  26
ATOM     25  C   UNL     1      -1.921  15.820  25.948  0.00  0.00    +0.000 C 
ATOM     26  O   UNL     1      -2.996  14.968  25.581  0.00  0.00    +0.000 OA
ENDBRANCH  19  26
ENDBRANCH   1  22
BRANCH  14  27
ATOM     27  O   UNL     1      -6.921  10.093  19.660  0.00  0.00    +0.000 OA
ATOM     28  C   UNL     1      -7.769  10.535  20.717  0.00  0.00    +0.000 C 
ENDBRANCH  14  27
BRANCH  18  29
ATOM     29  O   UNL     1      -3.609  11.342  15.455  0.00  0.00    +0.000 OA
ATOM     30  H   UNL     1      -3.583  12.287  15.210  0.00  0.00    +0.000 HD
ENDBRANCH  18  29
TORSDOF 4
ENDMDL
MODEL 4
REMARK VINA RESULT:      -7.1      3.099      5.359
REMARK  Name = 
REMARK  6 active torsions:
REMARK  status: ('A' for Active; 'I' for Inactive)
REMARK    1  A    between atoms: C_1  and  O_2
REMARK    2  A    between atoms: O_2  and  C_3
REMARK    3  A    between atoms: C_6  and  C_7
REMARK    4  A    between atoms: C_20  and  O_21
REMARK    5  A    between atoms: O_21  and  C_22
REMARK    6  A    between atoms: N_26  and  O_27
REMARK                            x       y       z     vdW  Elec       q    Type
REMARK                         _______ _______ _______ _____ _____    ______ ____
ROOT
ATOM      1  C   UNL     1      -2.328  12.062  20.168  0.00  0.00    +0.000 A 
ATOM      2  N   UNL     1      -3.287  12.109  19.209  0.00  0.00    +0.000 NA
ATOM      3  C   UNL     1      -3.148  11.407  18.069  0.00  0.00    +0.000 A 
ATOM      4  C   UNL     1      -4.120  11.608  17.096  0.00  0.00    +0.000 A 
ATOM      5  C   UNL     1      -4.146  10.858  15.924  0.00  0.00    +0.000 A 
ATOM      6  C   UNL     1      -3.164   9.898  15.706  0.00  0.00    +0.000 A 
ATOM      7  C   UNL     1      -2.106   9.771  16.615  0.00  0.00    +0.000 A 
ATOM      8  C   UNL     1      -2.064  10.545  17.793  0.00  0.00    +0.000 A 
ATOM      9  C   UNL     1      -1.045  10.619  18.736  0.00  0.00    +0.000 A 
ATOM     10  C   UNL     1      -1.147  11.381  19.927  0.00  0.00    +0.000 A 
ATOM     11  C   UNL     1       0.193  11.740  20.393  0.00  0.00    +0.000 A 
ATOM     12  C   UNL     1       0.503  12.711  21.326  0.00  0.00    +0.000 A 
ATOM     13  C   UNL     1       1.313  13.746  20.899  0.00  0.00    +0.000 A 
ATOM     14  C   UNL     1       1.905  13.702  19.630  0.00  0.00    +0.000 A 
ATOM     15  C   UNL     1       1.873  12.529  18.865  0.00  0.00    +0.000 A 
ATOM     16  C   UNL     1       1.054  11.508  19.317  0.00  0.00    +0.000 A 
ATOM     17  C   UNL     1       0.413  10.435  18.516  0.00  0.00    +0.000 C 
ATOM     18  N   UNL     1       0.986   9.430  17.928  0.00  0.00    +0.000 NA
ENDROOT
BRANCH   1  22
ATOM     19  C   UNL     1      -2.985  14.393  23.730  0.00  0.00    +0.000 A 
ATOM     20  C   UNL     1      -2.877  15.016  22.481  0.00  0.00    +0.000 A 
ATOM     21  C   UNL     1      -2.698  14.261  21.318  0.00  0.00    +0.000 A 
ATOM     22  C   UNL     1      -2.673  12.860  21.361  0.00  0.00    +0.000 A 
ATOM     23  C   UNL     1      -2.878  12.253  22.613  0.00  0.00    +0.000 A 
ATOM     24  C   UNL     1      -3.009  13.009  23.793  0.00  0.00    +0.000 A 
BRANCH  19  26
ATOM     25  C   UNL     1      -4.046  16.264  24.757  0.00  0.00    +0.000 C 
ATOM     26  O   UNL     1      -3.035  15.266  24.780  0.00  0.00    +0.000 OA
ENDBRANCH  19  26
ENDBRANCH   1  22
BRANCH  14  27
ATOM     27  O   UNL     1       2.507  14.870  19.246  0.00  0.00    +0.000 OA
ATOM     28  C   UNL     1       2.474  15.945  20.182  0.00  0.00    +0.000 C 
ENDBRANCH  14  27
BRANCH  18  29
ATOM     29  O   UNL     1       2.379   9.482  18.164  0.00  0.00    +0.000 OA
ATOM     30  H   UNL     1       2.554   8.647  18.639  0.00  0.00    +0.000 HD
ENDBRANCH  18  29
TORSDOF 4
ENDMDL
MODEL 5
REMARK VINA RESULT:      -7.0      0.981      1.402
REMARK  Name = 
REMARK  6 active torsions:
REMARK  status: ('A' for Active; 'I' for Inactive)
REMARK    1  A    between atoms: C_1  and  O_2
REMARK    2  A    between atoms: O_2  and  C_3
REMARK    3  A    between atoms: C_6  and  C_7
REMARK    4  A    between atoms: C_20  and  O_21
REMARK    5  A    between atoms: O_21  and  C_22
REMARK    6  A    between atoms: N_26  and  O_27
REMARK                            x       y       z     vdW  Elec       q    Type
REMARK                         _______ _______ _______ _____ _____    ______ ____
ROOT
ATOM      1  C   UNL     1      -1.778  12.128  20.752  0.00  0.00    +0.000 A 
ATOM      2  N   UNL     1      -0.818  11.236  21.102  0.00  0.00    +0.000 NA
ATOM      3  C   UNL     1      -0.240  10.454  20.171  0.00  0.00    +0.000 A 
ATOM      4  C   UNL     1       0.645   9.489  20.636  0.00  0.00    +0.000 A 
ATOM      5  C   UNL     1       1.386   8.698  19.765  0.00  0.00    +0.000 A 
ATOM      6  C   UNL     1       1.225   8.857  18.393  0.00  0.00    +0.000 A 
ATOM      7  C   UNL     1       0.246   9.734  17.908  0.00  0.00    +0.000 A 
ATOM      8  C   UNL     1      -0.524  10.521  18.789  0.00  0.00    +0.000 A 
ATOM      9  C   UNL     1      -1.596  11.351  18.484  0.00  0.00    +0.000 A 
ATOM     10  C   UNL     1      -2.250  12.157  19.449  0.00  0.00    +0.000 A 
ATOM     11  C   UNL     1      -3.617  12.434  19.009  0.00  0.00    +0.000 A 
ATOM     12  C   UNL     1      -4.648  12.917  19.793  0.00  0.00    +0.000 A 
ATOM     13  C   UNL     1      -5.768  12.116  19.909  0.00  0.00    +0.000 A 
ATOM     14  C   UNL     1      -5.889  10.955  19.132  0.00  0.00    +0.000 A 
ATOM     15  C   UNL     1      -5.001  10.703  18.079  0.00  0.00    +0.000 A 
ATOM     16  C   UNL     1      -3.889  11.522  17.986  0.00  0.00    +0.000 A 
ATOM     17  C   UNL     1      -2.574  11.204  17.375  0.00  0.00    +0.000 C 
ATOM     18  N   UNL     1      -2.299  11.044  16.116  0.00  0.00    +0.000 NA
ENDROOT
BRANCH   1  22
ATOM     19  C   UNL     1      -3.481  14.534  23.893  0.00  0.00    +0.000 A 
ATOM     20  C   UNL     1      -3.658  13.145  23.884  0.00  0.00    +0.000 A 
ATOM     21  C   UNL     1      -3.078  12.357  22.886  0.00  0.00    +0.000 A 
ATOM     22  C   UNL     1      -2.263  12.925  21.896  0.00  0.00    +0.000 A 
ATOM     23  C   UNL     1      -2.023  14.308  21.979  0.00  0.00    +0.000 A 
ATOM     24  C   UNL     1      -2.644  15.113  22.953  0.00  0.00    +0.000 A 
BRANCH  19  26
ATOM     25  C   UNL     1      -5.051  16.241  24.444  0.00  0.00    +0.000 C 
ATOM     26  O   UNL     1      -4.205  15.177  24.857  0.00  0.00    +0.000 OA
ENDBRANCH  19  26
ENDBRANCH   1  22
BRANCH  14  27
ATOM     27  O   UNL     1      -6.933  10.144  19.486  0.00  0.00    +0.000 OA
ATOM     28  C   UNL     1      -7.678  10.527  20.640  0.00  0.00    +0.000 C 
ENDBRANCH  14  27
BRANCH  18  29
ATOM     29  O   UNL     1      -3.475  11.227  15.354  0.00  0.00    +0.000 OA
ATOM     30  H   UNL     1      -4.026  11.791  15.931  0.00  0.00    +0.000 HD
ENDBRANCH  18  29
TORSDOF 4
ENDMDL
MODEL 6
REMARK VINA RESULT:      -7.0      3.234      7.012
REMARK  Name = 
REMARK  6 active torsions:
REMARK  status: ('A' for Active; 'I' for Inactive)
REMARK    1  A    between atoms: C_1  and  O_2
REMARK    2  A    between atoms: O_2  and  C_3
REMARK    3  A    between atoms: C_6  and  C_7
REMARK    4  A    between atoms: C_20  and  O_21
REMARK    5  A    between atoms: O_21  and  C_22
REMARK    6  A    between atoms: N_26  and  O_27
REMARK                            x       y       z     vdW  Elec       q    Type
REMARK                         _______ _______ _______ _____ _____    ______ ____
ROOT
ATOM      1  C   UNL     1       0.554  10.902  19.702  0.00  0.00    +0.000 A 
ATOM      2  N   UNL     1       1.451  11.903  19.887  0.00  0.00    +0.000 NA
ATOM      3  C   UNL     1       1.047  13.109  20.327  0.00  0.00    +0.000 A 
ATOM      4  C   UNL     1       2.014  14.107  20.374  0.00  0.00    +0.000 A 
ATOM      5  C   UNL     1       1.745  15.360  20.915  0.00  0.00    +0.000 A 
ATOM      6  C   UNL     1       0.471  15.634  21.401  0.00  0.00    +0.000 A 
ATOM      7  C   UNL     1      -0.548  14.686  21.246  0.00  0.00    +0.000 A 
ATOM      8  C   UNL     1      -0.285  13.423  20.677  0.00  0.00    +0.000 A 
ATOM      9  C   UNL     1      -1.192  12.420  20.356  0.00  0.00    +0.000 A 
ATOM     10  C   UNL     1      -0.799  11.153  19.855  0.00  0.00    +0.000 A 
ATOM     11  C   UNL     1      -1.900  10.569  19.088  0.00  0.00    +0.000 A 
ATOM     12  C   UNL     1      -1.812   9.508  18.207  0.00  0.00    +0.000 A 
ATOM     13  C   UNL     1      -2.176   9.758  16.897  0.00  0.00    +0.000 A 
ATOM     14  C   UNL     1      -2.752  10.987  16.546  0.00  0.00    +0.000 A 
ATOM     15  C   UNL     1      -3.172  11.888  17.532  0.00  0.00    +0.000 A 
ATOM     16  C   UNL     1      -2.795  11.612  18.835  0.00  0.00    +0.000 A 
ATOM     17  C   UNL     1      -2.613  12.574  19.952  0.00  0.00    +0.000 C 
ATOM     18  N   UNL     1      -3.529  13.244  20.583  0.00  0.00    +0.000 NA
ENDROOT
BRANCH   1  22
ATOM     19  C   UNL     1       2.712   7.370  18.507  0.00  0.00    +0.000 A 
ATOM     20  C   UNL     1       2.092   7.436  19.761  0.00  0.00    +0.000 A 
ATOM     21  C   UNL     1       1.361   8.567  20.139  0.00  0.00    +0.000 A 
ATOM     22  C   UNL     1       1.186   9.643  19.258  0.00  0.00    +0.000 A 
ATOM     23  C   UNL     1       1.737   9.515  17.971  0.00  0.00    +0.000 A 
ATOM     24  C   UNL     1       2.515   8.401  17.603  0.00  0.00    +0.000 A 
BRANCH  19  26
ATOM     25  C   UNL     1       3.825   5.505  19.488  0.00  0.00    +0.000 C 
ATOM     26  O   UNL     1       3.485   6.258  18.332  0.00  0.00    +0.000 OA
ENDBRANCH  19  26
ENDBRANCH   1  22
BRANCH  14  27
ATOM     27  O   UNL     1      -2.872  11.191  15.198  0.00  0.00    +0.000 OA
ATOM     28  C   UNL     1      -3.199  10.052  14.404  0.00  0.00    +0.000 C 
ENDBRANCH  14  27
BRANCH  18  29
ATOM     29  O   UNL     1      -4.797  12.921  20.047  0.00  0.00    +0.000 OA
ATOM     30  H   UNL     1      -4.746  13.271  19.136  0.00  0.00    +0.000 HD
ENDBRANCH  18  29
TORSDOF 4
ENDMDL
MODEL 7
REMARK VINA RESULT:      -7.0      3.026      6.808
REMARK  Name = 
REMARK  6 active torsions:
REMARK  status: ('A' for Active; 'I' for Inactive)
REMARK    1  A    between atoms: C_1  and  O_2
REMARK    2  A    between atoms: O_2  and  C_3
REMARK    3  A    between atoms: C_6  and  C_7
REMARK    4  A    between atoms: C_20  and  O_21
REMARK    5  A    between atoms: O_21  and  C_22
REMARK    6  A    between atoms: N_26  and  O_27
REMARK                            x       y       z     vdW  Elec       q    Type
REMARK                         _______ _______ _______ _____ _____    ______ ____
ROOT
ATOM      1  C   UNL     1       0.177  11.304  19.750  0.00  0.00    +0.000 A 
ATOM      2  N   UNL     1       0.898  12.428  19.993  0.00  0.00    +0.000 NA
ATOM      3  C   UNL     1       0.283  13.567  20.361  0.00  0.00    +0.000 A 
ATOM      4  C   UNL     1       1.086  14.696  20.473  0.00  0.00    +0.000 A 
ATOM      5  C   UNL     1       0.587  15.902  20.953  0.00  0.00    +0.000 A 
ATOM      6  C   UNL     1      -0.753  15.993  21.311  0.00  0.00    +0.000 A 
ATOM      7  C   UNL     1      -1.605  14.904  21.085  0.00  0.00    +0.000 A 
ATOM      8  C   UNL     1      -1.108  13.686  20.576  0.00  0.00    +0.000 A 
ATOM      9  C   UNL     1      -1.825  12.557  20.199  0.00  0.00    +0.000 A 
ATOM     10  C   UNL     1      -1.207  11.356  19.769  0.00  0.00    +0.000 A 
ATOM     11  C   UNL     1      -2.132  10.608  18.918  0.00  0.00    +0.000 A 
ATOM     12  C   UNL     1      -1.807   9.561  18.076  0.00  0.00    +0.000 A 
ATOM     13  C   UNL     1      -2.075   9.739  16.733  0.00  0.00    +0.000 A 
ATOM     14  C   UNL     1      -2.787  10.866  16.297  0.00  0.00    +0.000 A 
ATOM     15  C   UNL     1      -3.425  11.708  17.215  0.00  0.00    +0.000 A 
ATOM     16  C   UNL     1      -3.140  11.505  18.555  0.00  0.00    +0.000 A 
ATOM     17  C   UNL     1      -3.208  12.497  19.658  0.00  0.00    +0.000 C 
ATOM     18  N   UNL     1      -4.267  13.033  20.183  0.00  0.00    +0.000 NA
ENDROOT
BRANCH   1  22
ATOM     19  C   UNL     1       2.350   7.763  18.612  0.00  0.00    +0.000 A 
ATOM     20  C   UNL     1       2.291   8.869  17.755  0.00  0.00    +0.000 A 
ATOM     21  C   UNL     1       1.616  10.033  18.135  0.00  0.00    +0.000 A 
ATOM     22  C   UNL     1       1.024  10.146  19.401  0.00  0.00    +0.000 A 
ATOM     23  C   UNL     1       1.176   9.059  20.280  0.00  0.00    +0.000 A 
ATOM     24  C   UNL     1       1.812   7.867  19.884  0.00  0.00    +0.000 A 
BRANCH  19  26
ATOM     25  C   UNL     1       4.202   6.840  17.429  0.00  0.00    +0.000 C 
ATOM     26  O   UNL     1       2.939   6.663  18.055  0.00  0.00    +0.000 OA
ENDBRANCH  19  26
ENDBRANCH   1  22
BRANCH  14  27
ATOM     27  O   UNL     1      -2.804  11.033  14.939  0.00  0.00    +0.000 OA
ATOM     28  C   UNL     1      -3.546  10.077  14.185  0.00  0.00    +0.000 C 
ENDBRANCH  14  27
BRANCH  18  29
ATOM     29  O   UNL     1      -5.418  12.522  19.539  0.00  0.00    +0.000 OA
ATOM     30  H   UNL     1      -6.073  12.477  20.262  0.00  0.00    +0.000 HD
ENDBRANCH  18  29
TORSDOF 4
ENDMDL
MODEL 8
REMARK VINA RESULT:      -6.9      3.615      7.142
REMARK  Name = 
REMARK  6 active torsions:
REMARK  status: ('A' for Active; 'I' for Inactive)
REMARK    1  A    between atoms: C_1  and  O_2
REMARK    2  A    between atoms: O_2  and  C_3
REMARK    3  A    between atoms: C_6  and  C_7
REMARK    4  A    between atoms: C_20  and  O_21
REMARK    5  A    between atoms: O_21  and  C_22
REMARK    6  A    between atoms: N_26  and  O_27
REMARK                            x       y       z     vdW  Elec       q    Type
REMARK                         _______ _______ _______ _____ _____    ______ ____
ROOT
ATOM      1  C   UNL     1       1.123  11.160  19.119  0.00  0.00    +0.000 A 
ATOM      2  N   UNL     1       2.079  12.004  18.658  0.00  0.00    +0.000 NA
ATOM      3  C   UNL     1       1.923  13.337  18.765  0.00  0.00    +0.000 A 
ATOM      4  C   UNL     1       2.895  14.125  18.160  0.00  0.00    +0.000 A 
ATOM      5  C   UNL     1       2.902  15.509  18.298  0.00  0.00    +0.000 A 
ATOM      6  C   UNL     1       1.901  16.127  19.039  0.00  0.00    +0.000 A 
ATOM      7  C   UNL     1       0.844  15.362  19.548  0.00  0.00    +0.000 A 
ATOM      8  C   UNL     1       0.820  13.960  19.391  0.00  0.00    +0.000 A 
ATOM      9  C   UNL     1      -0.193  13.074  19.736  0.00  0.00    +0.000 A 
ATOM     10  C   UNL     1      -0.073  11.669  19.599  0.00  0.00    +0.000 A 
ATOM     11  C   UNL     1      -1.403  11.075  19.468  0.00  0.00    +0.000 A 
ATOM     12  C   UNL     1      -1.691   9.799  19.021  0.00  0.00    +0.000 A 
ATOM     13  C   UNL     1      -2.481   9.701  17.892  0.00  0.00    +0.000 A 
ATOM     14  C   UNL     1      -3.079  10.845  17.346  0.00  0.00    +0.000 A 
ATOM     15  C   UNL     1      -3.073  12.059  18.045  0.00  0.00    +0.000 A 
ATOM     16  C   UNL     1      -2.273  12.128  19.173  0.00  0.00    +0.000 A 
ATOM     17  C   UNL     1      -1.656  13.336  19.777  0.00  0.00    +0.000 C 
ATOM     18  N   UNL     1      -2.250  14.309  20.397  0.00  0.00    +0.000 NA
ENDROOT
BRANCH   1  22
ATOM     19  C   UNL     1       2.528   7.108  18.705  0.00  0.00    +0.000 A 
ATOM     20  C   UNL     1       1.989   7.555  19.918  0.00  0.00    +0.000 A 
ATOM     21  C   UNL     1       1.500   8.859  20.046  0.00  0.00    +0.000 A 
ATOM     22  C   UNL     1       1.488   9.739  18.955  0.00  0.00    +0.000 A 
ATOM     23  C   UNL     1       1.947   9.239  17.723  0.00  0.00    +0.000 A 
ATOM     24  C   UNL     1       2.486   7.944  17.601  0.00  0.00    +0.000 A 
BRANCH  19  26
ATOM     25  C   UNL     1       2.472   4.838  17.982  0.00  0.00    +0.000 C 
ATOM     26  O   UNL     1       3.071   5.857  18.771  0.00  0.00    +0.000 OA
ENDBRANCH  19  26
ENDBRANCH   1  22
BRANCH  14  27
ATOM     27  O   UNL     1      -3.659  10.651  16.122  0.00  0.00    +0.000 OA
ATOM     28  C   UNL     1      -2.841  10.065  15.112  0.00  0.00    +0.000 C 
ENDBRANCH  14  27
BRANCH  18  29
ATOM     29  O   UNL     1      -3.641  14.058  20.435  0.00  0.00    +0.000 OA
ATOM     30  H   UNL     1      -3.692  13.085  20.355  0.00  0.00    +0.000 HD
ENDBRANCH  18  29
TORSDOF 4
ENDMDL
MODEL 9
REMARK VINA RESULT:      -6.8      1.345      1.855
REMARK  Name = 
REMARK  6 active torsions:
REMARK  status: ('A' for Active; 'I' for Inactive)
REMARK    1  A    between atoms: C_1  and  O_2
REMARK    2  A    between atoms: O_2  and  C_3
REMARK    3  A    between atoms: C_6  and  C_7
REMARK    4  A    between atoms: C_20  and  O_21
REMARK    5  A    between atoms: O_21  and  C_22
REMARK    6  A    between atoms: N_26  and  O_27
REMARK                            x       y       z     vdW  Elec       q    Type
REMARK                         _______ _______ _______ _____ _____    ______ ____
ROOT
ATOM      1  C   UNL     1      -2.285  12.400  21.563  0.00  0.00    +0.000 A 
ATOM      2  N   UNL     1      -1.515  11.581  22.322  0.00  0.00    +0.000 NA
ATOM      3  C   UNL     1      -0.692  10.687  21.744  0.00  0.00    +0.000 A 
ATOM      4  C   UNL     1      -0.032   9.811  22.597  0.00  0.00    +0.000 A 
ATOM      5  C   UNL     1       0.927   8.919  22.128  0.00  0.00    +0.000 A 
ATOM      6  C   UNL     1       1.220   8.883  20.770  0.00  0.00    +0.000 A 
ATOM      7  C   UNL     1       0.475   9.667  19.880  0.00  0.00    +0.000 A 
ATOM      8  C   UNL     1      -0.515  10.556  20.349  0.00  0.00    +0.000 A 
ATOM      9  C   UNL     1      -1.407  11.319  19.604  0.00  0.00    +0.000 A 
ATOM     10  C   UNL     1      -2.312  12.240  20.187  0.00  0.00    +0.000 A 
ATOM     11  C   UNL     1      -3.457  12.430  19.296  0.00  0.00    +0.000 A 
ATOM     12  C   UNL     1      -4.670  13.001  19.631  0.00  0.00    +0.000 A 
ATOM     13  C   UNL     1      -5.791  12.204  19.489  0.00  0.00    +0.000 A 
ATOM     14  C   UNL     1      -5.690  10.945  18.881  0.00  0.00    +0.000 A 
ATOM     15  C   UNL     1      -4.519  10.563  18.216  0.00  0.00    +0.000 A 
ATOM     16  C   UNL     1      -3.412  11.380  18.375  0.00  0.00    +0.000 A 
ATOM     17  C   UNL     1      -1.981  11.002  18.270  0.00  0.00    +0.000 C 
ATOM     18  N   UNL     1      -1.320  10.673  17.202  0.00  0.00    +0.000 NA
ENDROOT
BRANCH   1  22
ATOM     19  C   UNL     1      -4.851  15.172  23.635  0.00  0.00    +0.000 A 
ATOM     20  C   UNL     1      -4.994  13.792  23.823  0.00  0.00    +0.000 A 
ATOM     21  C   UNL     1      -4.140  12.890  23.179  0.00  0.00    +0.000 A 
ATOM     22  C   UNL     1      -3.089  13.340  22.369  0.00  0.00    +0.000 A 
ATOM     23  C   UNL     1      -2.906  14.731  22.270  0.00  0.00    +0.000 A 
ATOM     24  C   UNL     1      -3.792  15.643  22.876  0.00  0.00    +0.000 A 
BRANCH  19  26
ATOM     25  C   UNL     1      -7.134  15.854  23.673  0.00  0.00    +0.000 C 
ATOM     26  O   UNL     1      -5.829  15.914  24.232  0.00  0.00    +0.000 OA
ENDBRANCH  19  26
ENDBRANCH   1  22
BRANCH  14  27
ATOM     27  O   UNL     1      -6.815  10.174  18.988  0.00  0.00    +0.000 OA
ATOM     28  C   UNL     1      -7.430  10.112  20.274  0.00  0.00    +0.000 C 
ENDBRANCH  14  27
BRANCH  18  29
ATOM     29  O   UNL     1      -2.183  10.729  16.083  0.00  0.00    +0.000 OA
ATOM     30  H   UNL     1      -1.595  11.037  15.366  0.00  0.00    +0.000 HD
ENDBRANCH  18  29
TORSDOF 4
ENDMDL
