MODEL 1
REMARK VINA RESULT:      -7.4      0.000      0.000
REMARK  Name = 
REMARK  8 active torsions:
REMARK  status: ('A' for Active; 'I' for Inactive)
REMARK    1  A    between atoms: C_1  and  C_2
REMARK    2  A    between atoms: C_2  and  N_3
REMARK    3  A    between atoms: N_3  and  C_4
REMARK    4  A    between atoms: N_3  and  S_6
REMARK    5  A    between atoms: C_4  and  C_5
REMARK    6  A    between atoms: S_6  and  C_9
REMARK    7  A    between atoms: C_12  and  C_13
REMARK    8  A    between atoms: C_14  and  C_15
REMARK                            x       y       z     vdW  Elec       q    Type
REMARK                         _______ _______ _______ _____ _____    ______ ____
ROOT
ATOM      1  C   UNL     1       3.629   5.700  18.635  0.00  0.00    +0.000 A 
ATOM      2  C   UNL     1       3.625   6.842  17.808  0.00  0.00    +0.000 A 
ATOM      3  C   UNL     1       2.812   7.944  18.122  0.00  0.00    +0.000 A 
ATOM      4  C   UNL     1       1.995   7.931  19.259  0.00  0.00    +0.000 A 
ATOM      5  C   UNL     1       1.982   6.771  20.043  0.00  0.00    +0.000 A 
ATOM      6  C   UNL     1       2.792   5.661  19.750  0.00  0.00    +0.000 A 
ATOM      7 CL   UNL     1       2.648   4.349  20.856  0.00  0.00    +0.000 Cl
ENDROOT
BRANCH   1   8
ATOM      8  S   UNL     1       4.663   4.341  18.130  0.00  0.00    +0.000 S 
ATOM      9  O   UNL     1       3.784   3.342  17.560  0.00  0.00    +0.000 OA
ATOM     10  O   UNL     1       5.593   3.985  19.178  0.00  0.00    +0.000 OA
BRANCH   8  11
ATOM     11  N   UNL     1       5.619   4.999  16.842  0.00  0.00    +0.000 NA
BRANCH  11  13
ATOM     12  C   UNL     1       7.400   6.617  17.607  0.00  0.00    +0.000 C 
ATOM     13  C   UNL     1       7.058   5.190  17.208  0.00  0.00    +0.000 C 
ENDBRANCH  11  13
BRANCH  11  14
ATOM     14  C   UNL     1       5.388   4.300  15.533  0.00  0.00    +0.000 C 
ATOM     15  C   UNL     1       6.581   4.337  14.589  0.00  0.00    +0.000 C 
ENDBRANCH  11  14
ENDBRANCH   8  11
ENDBRANCH   1   8
BRANCH   4  16
ATOM     16  C   UNL     1       1.148   9.094  19.583  0.00  0.00    +0.000 C 
ATOM     17  C   UNL     1       0.891   9.499  20.842  0.00  0.00    +0.000 C 
BRANCH  17  18
ATOM     18  C   UNL     1       0.070  10.633  21.117  0.00  0.00    +0.000 A 
ATOM     19  N   UNL     1      -0.025  11.292  22.257  0.00  0.00    +0.000 NA
ATOM     20  C   UNL     1      -0.951  12.319  22.162  0.00  0.00    +0.000 A 
ATOM     21  C   UNL     1      -1.311  13.210  23.192  0.00  0.00    +0.000 A 
ATOM     22  C   UNL     1      -2.280  14.192  22.961  0.00  0.00    +0.000 A 
ATOM     23  C   UNL     1      -2.890  14.301  21.714  0.00  0.00    +0.000 A 
ATOM     24  C   UNL     1      -2.541  13.440  20.670  0.00  0.00    +0.000 A 
ATOM     25  C   UNL     1      -1.570  12.453  20.916  0.00  0.00    +0.000 A 
ATOM     26  S   UNL     1      -0.939  11.258  19.855  0.00  0.00    +0.000 S 
ENDBRANCH  17  18
ENDBRANCH   4  16
TORSDOF 6
ENDMDL
MODEL 2
REMARK VINA RESULT:      -7.3      1.069      1.466
REMARK  Name = 
REMARK  8 active torsions:
REMARK  status: ('A' for Active; 'I' for Inactive)
REMARK    1  A    between atoms: C_1  and  C_2
REMARK    2  A    between atoms: C_2  and  N_3
REMARK    3  A    between atoms: N_3  and  C_4
REMARK    4  A    between atoms: N_3  and  S_6
REMARK    5  A    between atoms: C_4  and  C_5
REMARK    6  A    between atoms: S_6  and  C_9
REMARK    7  A    between atoms: C_12  and  C_13
REMARK    8  A    between atoms: C_14  and  C_15
REMARK                            x       y       z     vdW  Elec       q    Type
REMARK                         _______ _______ _______ _____ _____    ______ ____
ROOT
ATOM      1  C   UNL     1       3.423   5.010  19.347  0.00  0.00    +0.000 A 
ATOM      2  C   UNL     1       3.429   6.286  18.748  0.00  0.00    +0.000 A 
ATOM      3  C   UNL     1       2.622   7.316  19.261  0.00  0.00    +0.000 A 
ATOM      4  C   UNL     1       1.802   7.097  20.375  0.00  0.00    +0.000 A 
ATOM      5  C   UNL     1       1.779   5.810  20.928  0.00  0.00    +0.000 A 
ATOM      6  C   UNL     1       2.583   4.769  20.434  0.00  0.00    +0.000 A 
ATOM      7 CL   UNL     1       2.428   3.274  21.275  0.00  0.00    +0.000 Cl
ENDROOT
BRANCH   1   8
ATOM      8  S   UNL     1       4.449   3.763  18.599  0.00  0.00    +0.000 S 
ATOM      9  O   UNL     1       3.567   2.899  17.843  0.00  0.00    +0.000 OA
ATOM     10  O   UNL     1       5.368   3.203  19.565  0.00  0.00    +0.000 OA
BRANCH   8  11
ATOM     11  N   UNL     1       5.422   4.644  17.467  0.00  0.00    +0.000 NA
BRANCH  11  13
ATOM     12  C   UNL     1       7.334   6.038  18.349  0.00  0.00    +0.000 C 
ATOM     13  C   UNL     1       6.873   4.683  17.833  0.00  0.00    +0.000 C 
ENDBRANCH  11  13
BRANCH  11  14
ATOM     14  C   UNL     1       5.141   4.264  16.041  0.00  0.00    +0.000 C 
ATOM     15  C   UNL     1       6.373   4.249  15.147  0.00  0.00    +0.000 C 
ENDBRANCH  11  14
ENDBRANCH   8  11
ENDBRANCH   1   8
BRANCH   4  16
ATOM     16  C   UNL     1       0.961   8.184  20.908  0.00  0.00    +0.000 C 
ATOM     17  C   UNL     1       0.593   9.261  20.187  0.00  0.00    +0.000 C 
BRANCH  17  18
ATOM     18  C   UNL     1      -0.227  10.293  20.735  0.00  0.00    +0.000 A 
ATOM     19  N   UNL     1      -0.846  11.254  20.077  0.00  0.00    +0.000 NA
ATOM     20  C   UNL     1      -1.523  12.095  20.946  0.00  0.00    +0.000 A 
ATOM     21  C   UNL     1      -2.275  13.231  20.585  0.00  0.00    +0.000 A 
ATOM     22  C   UNL     1      -2.893  14.003  21.574  0.00  0.00    +0.000 A 
ATOM     23  C   UNL     1      -2.775  13.656  22.916  0.00  0.00    +0.000 A 
ATOM     24  C   UNL     1      -2.047  12.527  23.302  0.00  0.00    +0.000 A 
ATOM     25  C   UNL     1      -1.426  11.760  22.299  0.00  0.00    +0.000 A 
ATOM     26  S   UNL     1      -0.471  10.341  22.450  0.00  0.00    +0.000 S 
ENDBRANCH  17  18
ENDBRANCH   4  16
TORSDOF 6
ENDMDL
MODEL 3
REMARK VINA RESULT:      -7.2      1.058      1.206
REMARK  Name = 
REMARK  8 active torsions:
REMARK  status: ('A' for Active; 'I' for Inactive)
REMARK    1  A    between atoms: C_1  and  C_2
REMARK    2  A    between atoms: C_2  and  N_3
REMARK    3  A    between atoms: N_3  and  C_4
REMARK    4  A    between atoms: N_3  and  S_6
REMARK    5  A    between atoms: C_4  and  C_5
REMARK    6  A    between atoms: S_6  and  C_9
REMARK    7  A    between atoms: C_12  and  C_13
REMARK    8  A    between atoms: C_14  and  C_15
REMARK                            x       y       z     vdW  Elec       q    Type
REMARK                         _______ _______ _______ _____ _____    ______ ____
ROOT
ATOM      1  C   UNL     1       3.721   5.569  18.527  0.00  0.00    +0.000 A 
ATOM      2  C   UNL     1       3.839   6.626  17.601  0.00  0.00    +0.000 A 
ATOM      3  C   UNL     1       3.106   7.812  17.779  0.00  0.00    +0.000 A 
ATOM      4  C   UNL     1       2.250   7.968  18.877  0.00  0.00    +0.000 A 
ATOM      5  C   UNL     1       2.117   6.890  19.761  0.00  0.00    +0.000 A 
ATOM      6  C   UNL     1       2.845   5.698  19.604  0.00  0.00    +0.000 A 
ATOM      7 CL   UNL     1       2.558   4.510  20.817  0.00  0.00    +0.000 Cl
ENDROOT
BRANCH   1   8
ATOM      8  S   UNL     1       4.661   4.094  18.191  0.00  0.00    +0.000 S 
ATOM      9  O   UNL     1       3.784   3.202  17.462  0.00  0.00    +0.000 OA
ATOM     10  O   UNL     1       5.345   3.637  19.380  0.00  0.00    +0.000 OA
BRANCH   8  11
ATOM     11  N   UNL     1       5.898   4.626  17.099  0.00  0.00    +0.000 NA
BRANCH  11  13
ATOM     12  C   UNL     1       7.571   6.318  17.944  0.00  0.00    +0.000 C 
ATOM     13  C   UNL     1       7.221   4.849  17.764  0.00  0.00    +0.000 C 
ENDBRANCH  11  13
BRANCH  11  14
ATOM     14  C   UNL     1       5.954   3.805  15.842  0.00  0.00    +0.000 C 
ATOM     15  C   UNL     1       5.695   4.600  14.570  0.00  0.00    +0.000 C 
ENDBRANCH  11  14
ENDBRANCH   8  11
ENDBRANCH   1   8
BRANCH   4  16
ATOM     16  C   UNL     1       1.488   9.216  19.058  0.00  0.00    +0.000 C 
ATOM     17  C   UNL     1       0.950   9.595  20.233  0.00  0.00    +0.000 C 
BRANCH  17  18
ATOM     18  C   UNL     1       0.221  10.814  20.373  0.00  0.00    +0.000 A 
ATOM     19  N   UNL     1      -1.054  10.952  20.681  0.00  0.00    +0.000 NA
ATOM     20  C   UNL     1      -1.422  12.288  20.693  0.00  0.00    +0.000 A 
ATOM     21  C   UNL     1      -2.709  12.792  20.966  0.00  0.00    +0.000 A 
ATOM     22  C   UNL     1      -2.943  14.171  20.924  0.00  0.00    +0.000 A 
ATOM     23  C   UNL     1      -1.911  15.052  20.617  0.00  0.00    +0.000 A 
ATOM     24  C   UNL     1      -0.622  14.580  20.355  0.00  0.00    +0.000 A 
ATOM     25  C   UNL     1      -0.399  13.192  20.396  0.00  0.00    +0.000 A 
ATOM     26  S   UNL     1       1.051  12.314  20.119  0.00  0.00    +0.000 S 
ENDBRANCH  17  18
ENDBRANCH   4  16
TORSDOF 6
ENDMDL
MODEL 4
REMARK VINA RESULT:      -7.1      1.525      1.985
REMARK  Name = 
REMARK  8 active torsions:
REMARK  status: ('A' for Active; 'I' for Inactive)
REMARK    1  A    between atoms: C_1  and  C_2
REMARK    2  A    between atoms: C_2  and  N_3
REMARK    3  A    between atoms: N_3  and  C_4
REMARK    4  A    between atoms: N_3  and  S_6
REMARK    5  A    between atoms: C_4  and  C_5
REMARK    6  A    between atoms: S_6  and  C_9
REMARK    7  A    between atoms: C_12  and  C_13
REMARK    8  A    between atoms: C_14  and  C_15
REMARK                            x       y       z     vdW  Elec       q    Type
REMARK                         _______ _______ _______ _____ _____    ______ ____
ROOT
ATOM      1  C   UNL     1       3.919   5.577  18.575  0.00  0.00    +0.000 A 
ATOM      2  C   UNL     1       3.198   5.453  19.781  0.00  0.00    +0.000 A 
ATOM      3  C   UNL     1       2.296   6.455  20.175  0.00  0.00    +0.000 A 
ATOM      4  C   UNL     1       2.093   7.591  19.381  0.00  0.00    +0.000 A 
ATOM      5  C   UNL     1       2.851   7.714  18.209  0.00  0.00    +0.000 A 
ATOM      6  C   UNL     1       3.753   6.720  17.794  0.00  0.00    +0.000 A 
ATOM      7 CL   UNL     1       4.561   7.051  16.309  0.00  0.00    +0.000 Cl
ENDROOT
BRANCH   1   8
ATOM      8  S   UNL     1       5.066   4.273  18.184  0.00  0.00    +0.000 S 
ATOM      9  O   UNL     1       4.454   3.484  17.136  0.00  0.00    +0.000 OA
ATOM     10  O   UNL     1       5.555   3.637  19.387  0.00  0.00    +0.000 OA
BRANCH   8  11
ATOM     11  N   UNL     1       6.423   5.102  17.494  0.00  0.00    +0.000 NA
BRANCH  11  13
ATOM     12  C   UNL     1       7.785   7.135  18.118  0.00  0.00    +0.000 C 
ATOM     13  C   UNL     1       7.307   5.747  18.516  0.00  0.00    +0.000 C 
ENDBRANCH  11  13
BRANCH  11  14
ATOM     14  C   UNL     1       7.144   4.280  16.464  0.00  0.00    +0.000 C 
ATOM     15  C   UNL     1       7.056   4.838  15.051  0.00  0.00    +0.000 C 
ENDBRANCH  11  14
ENDBRANCH   8  11
ENDBRANCH   1   8
BRANCH   4  16
ATOM     16  C   UNL     1       1.142   8.636  19.801  0.00  0.00    +0.000 C 
ATOM     17  C   UNL     1       1.106   9.151  21.046  0.00  0.00    +0.000 C 
BRANCH  17  18
ATOM     18  C   UNL     1       0.174  10.166  21.417  0.00  0.00    +0.000 A 
ATOM     19  N   UNL     1      -0.168  11.230  20.715  0.00  0.00    +0.000 NA
ATOM     20  C   UNL     1      -1.077  12.013  21.410  0.00  0.00    +0.000 A 
ATOM     21  C   UNL     1      -1.639  13.225  20.965  0.00  0.00    +0.000 A 
ATOM     22  C   UNL     1      -2.534  13.923  21.783  0.00  0.00    +0.000 A 
ATOM     23  C   UNL     1      -2.878  13.426  23.036  0.00  0.00    +0.000 A 
ATOM     24  C   UNL     1      -2.346  12.219  23.497  0.00  0.00    +0.000 A 
ATOM     25  C   UNL     1      -1.444  11.528  22.668  0.00  0.00    +0.000 A 
ATOM     26  S   UNL     1      -0.627  10.043  22.948  0.00  0.00    +0.000 S 
ENDBRANCH  17  18
ENDBRANCH   4  16
TORSDOF 6
ENDMDL
MODEL 5
REMARK VINA RESULT:      -7.0      1.408      1.700
REMARK  Name = 
REMARK  8 active torsions:
REMARK  status: ('A' for Active; 'I' for Inactive)
REMARK    1  A    between atoms: C_1  and  C_2
REMARK    2  A    between atoms: C_2  and  N_3
REMARK    3  A    between atoms: N_3  and  C_4
REMARK    4  A    between atoms: N_3  and  S_6
REMARK    5  A    between atoms: C_4  and  C_5
REMARK    6  A    between atoms: S_6  and  C_9
REMARK    7  A    between atoms: C_12  and  C_13
REMARK    8  A    between atoms: C_14  and  C_15
REMARK                            x       y       z     vdW  Elec       q    Type
REMARK                         _______ _______ _______ _____ _____    ______ ____
ROOT
ATOM      1  C   UNL     1       3.495   5.614  18.657  0.00  0.00    +0.000 A 
ATOM      2  C   UNL     1       3.576   6.747  17.823  0.00  0.00    +0.000 A 
ATOM      3  C   UNL     1       2.851   7.911  18.131  0.00  0.00    +0.000 A 
ATOM      4  C   UNL     1       2.039   7.968  19.271  0.00  0.00    +0.000 A 
ATOM      5  C   UNL     1       1.940   6.818  20.062  0.00  0.00    +0.000 A 
ATOM      6  C   UNL     1       2.661   5.647  19.775  0.00  0.00    +0.000 A 
ATOM      7 CL   UNL     1       2.421   4.357  20.891  0.00  0.00    +0.000 Cl
ENDROOT
BRANCH   1   8
ATOM      8  S   UNL     1       4.420   4.177  18.160  0.00  0.00    +0.000 S 
ATOM      9  O   UNL     1       3.480   3.280  17.520  0.00  0.00    +0.000 OA
ATOM     10  O   UNL     1       5.261   3.706  19.237  0.00  0.00    +0.000 OA
BRANCH   8  11
ATOM     11  N   UNL     1       5.495   4.773  16.937  0.00  0.00    +0.000 NA
BRANCH  11  13
ATOM     12  C   UNL     1       7.443   6.136  17.787  0.00  0.00    +0.000 C 
ATOM     13  C   UNL     1       6.932   4.770  17.356  0.00  0.00    +0.000 C 
ENDBRANCH  11  13
BRANCH  11  14
ATOM     14  C   UNL     1       5.229   4.170  15.587  0.00  0.00    +0.000 C 
ATOM     15  C   UNL     1       6.455   4.094  14.688  0.00  0.00    +0.000 C 
ENDBRANCH  11  14
ENDBRANCH   8  11
ENDBRANCH   1   8
BRANCH   4  16
ATOM     16  C   UNL     1       1.285   9.195  19.588  0.00  0.00    +0.000 C 
ATOM     17  C   UNL     1       1.295  10.295  18.811  0.00  0.00    +0.000 C 
BRANCH  17  18
ATOM     18  C   UNL     1       0.547  11.464  19.147  0.00  0.00    +0.000 A 
ATOM     19  N   UNL     1       0.792  12.704  18.769  0.00  0.00    +0.000 NA
ATOM     20  C   UNL     1      -0.129  13.583  19.318  0.00  0.00    +0.000 A 
ATOM     21  C   UNL     1      -0.154  14.979  19.137  0.00  0.00    +0.000 A 
ATOM     22  C   UNL     1      -1.135  15.749  19.771  0.00  0.00    +0.000 A 
ATOM     23  C   UNL     1      -2.093  15.144  20.579  0.00  0.00    +0.000 A 
ATOM     24  C   UNL     1      -2.100  13.759  20.765  0.00  0.00    +0.000 A 
ATOM     25  C   UNL     1      -1.106  12.996  20.127  0.00  0.00    +0.000 A 
ATOM     26  S   UNL     1      -0.847  11.298  20.163  0.00  0.00    +0.000 S 
ENDBRANCH  17  18
ENDBRANCH   4  16
TORSDOF 6
ENDMDL
MODEL 6
REMARK VINA RESULT:      -6.9      1.345      1.683
REMARK  Name = 
REMARK  8 active torsions:
REMARK  status: ('A' for Active; 'I' for Inactive)
REMARK    1  A    between atoms: C_1  and  C_2
REMARK    2  A    between atoms: C_2  and  N_3
REMARK    3  A    between atoms: N_3  and  C_4
REMARK    4  A    between atoms: N_3  and  S_6
REMARK    5  A    between atoms: C_4  and  C_5
REMARK    6  A    between atoms: S_6  and  C_9
REMARK    7  A    between atoms: C_12  and  C_13
REMARK    8  A    between atoms: C_14  and  C_15
REMARK                            x       y       z     vdW  Elec       q    Type
REMARK                         _______ _______ _______ _____ _____    ______ ____
ROOT
ATOM      1  C   UNL     1       3.687   5.376  18.887  0.00  0.00    +0.000 A 
ATOM      2  C   UNL     1       3.014   5.133  20.101  0.00  0.00    +0.000 A 
ATOM      3  C   UNL     1       2.130   6.090  20.628  0.00  0.00    +0.000 A 
ATOM      4  C   UNL     1       1.899   7.298  19.958  0.00  0.00    +0.000 A 
ATOM      5  C   UNL     1       2.610   7.537  18.775  0.00  0.00    +0.000 A 
ATOM      6  C   UNL     1       3.493   6.591  18.229  0.00  0.00    +0.000 A 
ATOM      7 CL   UNL     1       4.243   7.068  16.754  0.00  0.00    +0.000 Cl
ENDROOT
BRANCH   1   8
ATOM      8  S   UNL     1       4.815   4.120  18.324  0.00  0.00    +0.000 S 
ATOM      9  O   UNL     1       4.212   3.516  17.154  0.00  0.00    +0.000 OA
ATOM     10  O   UNL     1       5.260   3.295  19.425  0.00  0.00    +0.000 OA
BRANCH   8  11
ATOM     11  N   UNL     1       6.207   5.011  17.799  0.00  0.00    +0.000 NA
BRANCH  11  13
ATOM     12  C   UNL     1       7.919   6.712  18.541  0.00  0.00    +0.000 C 
ATOM     13  C   UNL     1       7.038   5.534  18.928  0.00  0.00    +0.000 C 
ENDBRANCH  11  13
BRANCH  11  14
ATOM     14  C   UNL     1       6.978   4.301  16.723  0.00  0.00    +0.000 C 
ATOM     15  C   UNL     1       6.899   4.970  15.358  0.00  0.00    +0.000 C 
ENDBRANCH  11  14
ENDBRANCH   8  11
ENDBRANCH   1   8
BRANCH   4  16
ATOM     16  C   UNL     1       0.967   8.295  20.516  0.00  0.00    +0.000 C 
ATOM     17  C   UNL     1       0.775   9.515  19.979  0.00  0.00    +0.000 C 
BRANCH  17  18
ATOM     18  C   UNL     1      -0.140  10.454  20.544  0.00  0.00    +0.000 A 
ATOM     19  N   UNL     1      -0.423  10.623  21.821  0.00  0.00    +0.000 NA
ATOM     20  C   UNL     1      -1.386  11.605  21.992  0.00  0.00    +0.000 A 
ATOM     21  C   UNL     1      -1.931  12.029  23.219  0.00  0.00    +0.000 A 
ATOM     22  C   UNL     1      -2.915  13.023  23.242  0.00  0.00    +0.000 A 
ATOM     23  C   UNL     1      -3.359  13.603  22.057  0.00  0.00    +0.000 A 
ATOM     24  C   UNL     1      -2.826  13.211  20.826  0.00  0.00    +0.000 A 
ATOM     25  C   UNL     1      -1.840  12.208  20.815  0.00  0.00    +0.000 A 
ATOM     26  S   UNL     1      -1.006  11.516  19.483  0.00  0.00    +0.000 S 
ENDBRANCH  17  18
ENDBRANCH   4  16
TORSDOF 6
ENDMDL
MODEL 7
REMARK VINA RESULT:      -6.9      1.051      1.180
REMARK  Name = 
REMARK  8 active torsions:
REMARK  status: ('A' for Active; 'I' for Inactive)
REMARK    1  A    between atoms: C_1  and  C_2
REMARK    2  A    between atoms: C_2  and  N_3
REMARK    3  A    between atoms: N_3  and  C_4
REMARK    4  A    between atoms: N_3  and  S_6
REMARK    5  A    between atoms: C_4  and  C_5
REMARK    6  A    between atoms: S_6  and  C_9
REMARK    7  A    between atoms: C_12  and  C_13
REMARK    8  A    between atoms: C_14  and  C_15
REMARK                            x       y       z     vdW  Elec       q    Type
REMARK                         _______ _______ _______ _____ _____    ______ ____
ROOT
ATOM      1  C   UNL     1       3.156   6.109  18.918  0.00  0.00    +0.000 A 
ATOM      2  C   UNL     1       3.042   7.314  18.195  0.00  0.00    +0.000 A 
ATOM      3  C   UNL     1       2.210   8.347  18.660  0.00  0.00    +0.000 A 
ATOM      4  C   UNL     1       1.483   8.201  19.849  0.00  0.00    +0.000 A 
ATOM      5  C   UNL     1       1.578   6.980  20.528  0.00  0.00    +0.000 A 
ATOM      6  C   UNL     1       2.409   5.938  20.083  0.00  0.00    +0.000 A 
ATOM      7 CL   UNL     1       2.404   4.533  21.079  0.00  0.00    +0.000 Cl
ENDROOT
BRANCH   1   8
ATOM      8  S   UNL     1       4.204   4.848  18.224  0.00  0.00    +0.000 S 
ATOM      9  O   UNL     1       3.371   4.057  17.343  0.00  0.00    +0.000 OA
ATOM     10  O   UNL     1       4.992   4.209  19.254  0.00  0.00    +0.000 OA
BRANCH   8  11
ATOM     11  N   UNL     1       5.325   5.730  17.239  0.00  0.00    +0.000 NA
BRANCH  11  13
ATOM     12  C   UNL     1       7.375   7.185  17.479  0.00  0.00    +0.000 C 
ATOM     13  C   UNL     1       6.671   5.896  17.874  0.00  0.00    +0.000 C 
ENDBRANCH  11  13
BRANCH  11  14
ATOM     14  C   UNL     1       5.353   5.247  15.817  0.00  0.00    +0.000 C 
ATOM     15  C   UNL     1       6.382   4.158  15.551  0.00  0.00    +0.000 C 
ENDBRANCH  11  14
ENDBRANCH   8  11
ENDBRANCH   1   8
BRANCH   4  16
ATOM     16  C   UNL     1       0.616   9.291  20.331  0.00  0.00    +0.000 C 
ATOM     17  C   UNL     1       0.662   9.777  21.587  0.00  0.00    +0.000 C 
BRANCH  17  18
ATOM     18  C   UNL     1      -0.190  10.837  22.018  0.00  0.00    +0.000 A 
ATOM     19  N   UNL     1      -1.231  10.747  22.824  0.00  0.00    +0.000 NA
ATOM     20  C   UNL     1      -1.839  11.982  22.992  0.00  0.00    +0.000 A 
ATOM     21  C   UNL     1      -2.981  12.245  23.772  0.00  0.00    +0.000 A 
ATOM     22  C   UNL     1      -3.501  13.542  23.835  0.00  0.00    +0.000 A 
ATOM     23  C   UNL     1      -2.894  14.580  23.135  0.00  0.00    +0.000 A 
ATOM     24  C   UNL     1      -1.751  14.350  22.364  0.00  0.00    +0.000 A 
ATOM     25  C   UNL     1      -1.240  13.041  22.304  0.00  0.00    +0.000 A 
ATOM     26  S   UNL     1       0.126  12.444  21.452  0.00  0.00    +0.000 S 
ENDBRANCH  17  18
ENDBRANCH   4  16
TORSDOF 6
ENDMDL
MODEL 8
REMARK VINA RESULT:      -6.8      5.467      8.593
REMARK  Name = 
REMARK  8 active torsions:
REMARK  status: ('A' for Active; 'I' for Inactive)
REMARK    1  A    between atoms: C_1  and  C_2
REMARK    2  A    between atoms: C_2  and  N_3
REMARK    3  A    between atoms: N_3  and  C_4
REMARK    4  A    between atoms: N_3  and  S_6
REMARK    5  A    between atoms: C_4  and  C_5
REMARK    6  A    between atoms: S_6  and  C_9
REMARK    7  A    between atoms: C_12  and  C_13
REMARK    8  A    between atoms: C_14  and  C_15
REMARK                            x       y       z     vdW  Elec       q    Type
REMARK                         _______ _______ _______ _____ _____    ______ ____
ROOT
ATOM      1  C   UNL     1       6.327   5.858  18.042  0.00  0.00    +0.000 A 
ATOM      2  C   UNL     1       7.364   5.993  18.987  0.00  0.00    +0.000 A 
ATOM      3  C   UNL     1       8.171   7.144  18.997  0.00  0.00    +0.000 A 
ATOM      4  C   UNL     1       7.959   8.176  18.074  0.00  0.00    +0.000 A 
ATOM      5  C   UNL     1       6.951   8.002  17.118  0.00  0.00    +0.000 A 
ATOM      6  C   UNL     1       6.130   6.863  17.095  0.00  0.00    +0.000 A 
ATOM      7 CL   UNL     1       4.931   6.860  15.858  0.00  0.00    +0.000 Cl
ENDROOT
BRANCH   1   8
ATOM      8  S   UNL     1       5.387   4.347  18.086  0.00  0.00    +0.000 S 
ATOM      9  O   UNL     1       5.733   3.680  19.324  0.00  0.00    +0.000 OA
ATOM     10  O   UNL     1       5.480   3.644  16.826  0.00  0.00    +0.000 OA
BRANCH   8  11
ATOM     11  N   UNL     1       3.742   4.880  18.217  0.00  0.00    +0.000 NA
BRANCH  11  13
ATOM     12  C   UNL     1       2.327   3.414  19.709  0.00  0.00    +0.000 C 
ATOM     13  C   UNL     1       2.757   3.756  18.291  0.00  0.00    +0.000 C 
ENDBRANCH  11  13
BRANCH  11  14
ATOM     14  C   UNL     1       3.560   5.948  19.258  0.00  0.00    +0.000 C 
ATOM     15  C   UNL     1       2.801   7.172  18.766  0.00  0.00    +0.000 C 
ENDBRANCH  11  14
ENDBRANCH   8  11
ENDBRANCH   1   8
BRANCH   4  16
ATOM     16  C   UNL     1       8.809   9.381  18.094  0.00  0.00    +0.000 C 
ATOM     17  C   UNL     1       8.319  10.635  18.074  0.00  0.00    +0.000 C 
BRANCH  17  18
ATOM     18  C   UNL     1       9.172  11.780  18.099  0.00  0.00    +0.000 A 
ATOM     19  N   UNL     1       8.818  13.034  18.303  0.00  0.00    +0.000 NA
ATOM     20  C   UNL     1       9.914  13.879  18.223  0.00  0.00    +0.000 A 
ATOM     21  C   UNL     1       9.895  15.280  18.374  0.00  0.00    +0.000 A 
ATOM     22  C   UNL     1      11.080  16.013  18.248  0.00  0.00    +0.000 A 
ATOM     23  C   UNL     1      12.283  15.367  17.979  0.00  0.00    +0.000 A 
ATOM     24  C   UNL     1      12.333  13.978  17.837  0.00  0.00    +0.000 A 
ATOM     25  C   UNL     1      11.135  13.251  17.961  0.00  0.00    +0.000 A 
ATOM     26  S   UNL     1      10.871  11.559  17.837  0.00  0.00    +0.000 S 
ENDBRANCH  17  18
ENDBRANCH   4  16
TORSDOF 6
ENDMDL
MODEL 9
REMARK VINA RESULT:      -6.7      1.165      1.770
REMARK  Name = 
REMARK  8 active torsions:
REMARK  status: ('A' for Active; 'I' for Inactive)
REMARK    1  A    between atoms: C_1  and  C_2
REMARK    2  A    between atoms: C_2  and  N_3
REMARK    3  A    between atoms: N_3  and  C_4
REMARK    4  A    between atoms: N_3  and  S_6
REMARK    5  A    between atoms: C_4  and  C_5
REMARK    6  A    between atoms: S_6  and  C_9
REMARK    7  A    between atoms: C_12  and  C_13
REMARK    8  A    between atoms: C_14  and  C_15
REMARK                            x       y       z     vdW  Elec       q    Type
REMARK                         _______ _______ _______ _____ _____    ______ ____
ROOT
ATOM      1  C   UNL     1       3.375   4.830  19.480  0.00  0.00    +0.000 A 
ATOM      2  C   UNL     1       3.373   6.077  18.823  0.00  0.00    +0.000 A 
ATOM      3  C   UNL     1       2.568   7.128  19.296  0.00  0.00    +0.000 A 
ATOM      4  C   UNL     1       1.759   6.958  20.426  0.00  0.00    +0.000 A 
ATOM      5  C   UNL     1       1.744   5.699  21.038  0.00  0.00    +0.000 A 
ATOM      6  C   UNL     1       2.545   4.637  20.584  0.00  0.00    +0.000 A 
ATOM      7 CL   UNL     1       2.401   3.182  21.495  0.00  0.00    +0.000 Cl
ENDROOT
BRANCH   1   8
ATOM      8  S   UNL     1       4.397   3.551  18.781  0.00  0.00    +0.000 S 
ATOM      9  O   UNL     1       3.688   3.038  17.627  0.00  0.00    +0.000 OA
ATOM     10  O   UNL     1       4.871   2.650  19.807  0.00  0.00    +0.000 OA
BRANCH   8  11
ATOM     11  N   UNL     1       5.795   4.400  18.205  0.00  0.00    +0.000 NA
BRANCH  11  13
ATOM     12  C   UNL     1       6.440   4.197  15.773  0.00  0.00    +0.000 C 
ATOM     13  C   UNL     1       5.631   4.946  16.821  0.00  0.00    +0.000 C 
ENDBRANCH  11  13
BRANCH  11  14
ATOM     14  C   UNL     1       6.333   5.379  19.210  0.00  0.00    +0.000 C 
ATOM     15  C   UNL     1       7.804   5.722  19.017  0.00  0.00    +0.000 C 
ENDBRANCH  11  14
ENDBRANCH   8  11
ENDBRANCH   1   8
BRANCH   4  16
ATOM     16  C   UNL     1       0.920   8.067  20.916  0.00  0.00    +0.000 C 
ATOM     17  C   UNL     1       0.852   9.270  20.314  0.00  0.00    +0.000 C 
BRANCH  17  18
ATOM     18  C   UNL     1       0.025  10.320  20.814  0.00  0.00    +0.000 A 
ATOM     19  N   UNL     1      -0.577  10.372  21.987  0.00  0.00    +0.000 NA
ATOM     20  C   UNL     1      -1.325  11.532  22.112  0.00  0.00    +0.000 A 
ATOM     21  C   UNL     1      -2.105  11.902  23.225  0.00  0.00    +0.000 A 
ATOM     22  C   UNL     1      -2.828  13.099  23.206  0.00  0.00    +0.000 A 
ATOM     23  C   UNL     1      -2.779  13.935  22.095  0.00  0.00    +0.000 A 
ATOM     24  C   UNL     1      -2.002  13.600  20.982  0.00  0.00    +0.000 A 
ATOM     25  C   UNL     1      -1.284  12.391  21.010  0.00  0.00    +0.000 A 
ATOM     26  S   UNL     1      -0.258  11.707  19.814  0.00  0.00    +0.000 S 
ENDBRANCH  17  18
ENDBRANCH   4  16
TORSDOF 6
ENDMDL
