MODEL 1
REMARK VINA RESULT:      -7.9      0.000      0.000
REMARK  Name = 
REMARK  8 active torsions:
REMARK  status: ('A' for Active; 'I' for Inactive)
REMARK    1  A    between atoms: C_1  and  C_2
REMARK    2  A    between atoms: C_2  and  C_3
REMARK    3  A    between atoms: C_3  and  C_4
REMARK    4  A    between atoms: C_4  and  C_5
REMARK    5  A    between atoms: C_5  and  N_6
REMARK    6  A    between atoms: C_8  and  C_9
REMARK    7  A    between atoms: C_9  and  C_11
REMARK    8  A    between atoms: C_22  and  C_23
REMARK                            x       y       z     vdW  Elec       q    Type
REMARK                         _______ _______ _______ _____ _____    ______ ____
ROOT
ATOM      1  N   UNL     1       2.124   6.945  19.729  0.00  0.00    +0.000 N 
ATOM      2  C   UNL     1       1.496   8.168  19.882  0.00  0.00    +0.000 A 
ATOM      3  C   UNL     1       1.806   8.971  18.803  0.00  0.00    +0.000 A 
ATOM      4  C   UNL     1       2.565   8.148  17.927  0.00  0.00    +0.000 A 
ATOM      5  C   UNL     1       2.742   6.890  18.490  0.00  0.00    +0.000 A 
ENDROOT
BRANCH   5   6
ATOM      6  C   UNL     1       3.482   5.761  17.899  0.00  0.00    +0.000 A 
ATOM      7  C   UNL     1       4.877   5.847  17.752  0.00  0.00    +0.000 A 
ATOM      8  C   UNL     1       5.607   4.812  17.158  0.00  0.00    +0.000 A 
ATOM      9  C   UNL     1       4.954   3.664  16.722  0.00  0.00    +0.000 A 
ATOM     10  C   UNL     1       3.572   3.562  16.859  0.00  0.00    +0.000 A 
ATOM     11  C   UNL     1       2.842   4.613  17.420  0.00  0.00    +0.000 A 
ENDBRANCH   5   6
BRANCH   3  12
ATOM     12  C   UNL     1       1.444  10.367  18.541  0.00  0.00    +0.000 C 
ATOM     13  O   UNL     1       2.220  11.101  17.934  0.00  0.00    +0.000 OA
BRANCH  12  14
ATOM     14  C   UNL     1       0.172  10.937  19.089  0.00  0.00    +0.000 A 
ATOM     15  C   UNL     1       0.254  11.756  20.231  0.00  0.00    +0.000 A 
ATOM     16  C   UNL     1      -0.880  12.361  20.755  0.00  0.00    +0.000 A 
ATOM     17  C   UNL     1      -2.106  12.188  20.124  0.00  0.00    +0.000 A 
ATOM     18  C   UNL     1      -2.219  11.413  18.960  0.00  0.00    +0.000 A 
ATOM     19  C   UNL     1      -3.469  11.297  18.331  0.00  0.00    +0.000 A 
ATOM     20  C   UNL     1      -3.622  10.550  17.166  0.00  0.00    +0.000 A 
ATOM     21  C   UNL     1      -2.529   9.891  16.625  0.00  0.00    +0.000 A 
ATOM     22  C   UNL     1      -1.280   9.988  17.247  0.00  0.00    +0.000 A 
ATOM     23  C   UNL     1      -1.079  10.760  18.422  0.00  0.00    +0.000 A 
ENDBRANCH  12  14
ENDBRANCH   3  12
BRANCH   1  24
ATOM     24  C   UNL     1       2.122   5.937  20.783  0.00  0.00    +0.000 C 
BRANCH  24  25
ATOM     25  C   UNL     1       1.188   4.748  20.549  0.00  0.00    +0.000 C 
BRANCH  25  26
ATOM     26  C   UNL     1       1.658   3.477  21.257  0.00  0.00    +0.000 C 
BRANCH  26  28
ATOM     27  C   UNL     1       3.821   2.561  20.361  0.00  0.00    +0.000 C 
ATOM     28  C   UNL     1       2.305   2.507  20.269  0.00  0.00    +0.000 C 
ENDBRANCH  26  28
ENDBRANCH  25  26
ENDBRANCH  24  25
ENDBRANCH   1  24
TORSDOF 7
ENDMDL
MODEL 2
REMARK VINA RESULT:      -7.9      1.276      3.368
REMARK  Name = 
REMARK  8 active torsions:
REMARK  status: ('A' for Active; 'I' for Inactive)
REMARK    1  A    between atoms: C_1  and  C_2
REMARK    2  A    between atoms: C_2  and  C_3
REMARK    3  A    between atoms: C_3  and  C_4
REMARK    4  A    between atoms: C_4  and  C_5
REMARK    5  A    between atoms: C_5  and  N_6
REMARK    6  A    between atoms: C_8  and  C_9
REMARK    7  A    between atoms: C_9  and  C_11
REMARK    8  A    between atoms: C_22  and  C_23
REMARK                            x       y       z     vdW  Elec       q    Type
REMARK                         _______ _______ _______ _____ _____    ______ ____
ROOT
ATOM      1  N   UNL     1       3.431   6.483  18.019  0.00  0.00    +0.000 N 
ATOM      2  C   UNL     1       3.439   7.813  17.639  0.00  0.00    +0.000 A 
ATOM      3  C   UNL     1       2.361   8.454  18.216  0.00  0.00    +0.000 A 
ATOM      4  C   UNL     1       1.752   7.481  19.054  0.00  0.00    +0.000 A 
ATOM      5  C   UNL     1       2.426   6.271  18.949  0.00  0.00    +0.000 A 
ENDROOT
BRANCH   5   6
ATOM      6  C   UNL     1       2.095   5.018  19.649  0.00  0.00    +0.000 A 
ATOM      7  C   UNL     1       1.365   4.020  18.980  0.00  0.00    +0.000 A 
ATOM      8  C   UNL     1       0.997   2.836  19.626  0.00  0.00    +0.000 A 
ATOM      9  C   UNL     1       1.375   2.620  20.947  0.00  0.00    +0.000 A 
ATOM     10  C   UNL     1       2.097   3.597  21.627  0.00  0.00    +0.000 A 
ATOM     11  C   UNL     1       2.432   4.795  20.989  0.00  0.00    +0.000 A 
ENDBRANCH   5   6
BRANCH   3  12
ATOM     12  C   UNL     1       1.901   9.836  18.062  0.00  0.00    +0.000 C 
ATOM     13  O   UNL     1       2.498  10.604  17.310  0.00  0.00    +0.000 OA
BRANCH  12  14
ATOM     14  C   UNL     1       0.763  10.355  18.885  0.00  0.00    +0.000 A 
ATOM     15  C   UNL     1       1.063  10.957  20.121  0.00  0.00    +0.000 A 
ATOM     16  C   UNL     1       0.059  11.509  20.907  0.00  0.00    +0.000 A 
ATOM     17  C   UNL     1      -1.253  11.499  20.451  0.00  0.00    +0.000 A 
ATOM     18  C   UNL     1      -1.584  10.944  19.206  0.00  0.00    +0.000 A 
ATOM     19  C   UNL     1      -2.917  10.991  18.765  0.00  0.00    +0.000 A 
ATOM     20  C   UNL     1      -3.286  10.466  17.530  0.00  0.00    +0.000 A 
ATOM     21  C   UNL     1      -2.328   9.867  16.725  0.00  0.00    +0.000 A 
ATOM     22  C   UNL     1      -0.999   9.802  17.155  0.00  0.00    +0.000 A 
ATOM     23  C   UNL     1      -0.580  10.349  18.398  0.00  0.00    +0.000 A 
ENDBRANCH  12  14
ENDBRANCH   3  12
BRANCH   1  24
ATOM     24  C   UNL     1       4.351   5.509  17.443  0.00  0.00    +0.000 C 
BRANCH  24  25
ATOM     25  C   UNL     1       5.302   4.841  18.439  0.00  0.00    +0.000 C 
BRANCH  25  26
ATOM     26  C   UNL     1       6.634   5.580  18.573  0.00  0.00    +0.000 C 
BRANCH  26  28
ATOM     27  C   UNL     1       7.645   7.668  17.604  0.00  0.00    +0.000 C 
ATOM     28  C   UNL     1       6.969   6.343  17.292  0.00  0.00    +0.000 C 
ENDBRANCH  26  28
ENDBRANCH  25  26
ENDBRANCH  24  25
ENDBRANCH   1  24
TORSDOF 7
ENDMDL
MODEL 3
REMARK VINA RESULT:      -7.8      0.507      1.137
REMARK  Name = 
REMARK  8 active torsions:
REMARK  status: ('A' for Active; 'I' for Inactive)
REMARK    1  A    between atoms: C_1  and  C_2
REMARK    2  A    between atoms: C_2  and  C_3
REMARK    3  A    between atoms: C_3  and  C_4
REMARK    4  A    between atoms: C_4  and  C_5
REMARK    5  A    between atoms: C_5  and  N_6
REMARK    6  A    between atoms: C_8  and  C_9
REMARK    7  A    between atoms: C_9  and  C_11
REMARK    8  A    between atoms: C_22  and  C_23
REMARK                            x       y       z     vdW  Elec       q    Type
REMARK                         _______ _______ _______ _____ _____    ______ ____
ROOT
ATOM      1  N   UNL     1       2.026   7.030  19.884  0.00  0.00    +0.000 N 
ATOM      2  C   UNL     1       1.377   8.250  19.945  0.00  0.00    +0.000 A 
ATOM      3  C   UNL     1       1.754   9.016  18.860  0.00  0.00    +0.000 A 
ATOM      4  C   UNL     1       2.581   8.169  18.072  0.00  0.00    +0.000 A 
ATOM      5  C   UNL     1       2.730   6.936  18.694  0.00  0.00    +0.000 A 
ENDROOT
BRANCH   5   6
ATOM      6  C   UNL     1       3.521   5.795  18.201  0.00  0.00    +0.000 A 
ATOM      7  C   UNL     1       2.900   4.807  17.417  0.00  0.00    +0.000 A 
ATOM      8  C   UNL     1       3.608   3.689  16.967  0.00  0.00    +0.000 A 
ATOM      9  C   UNL     1       4.957   3.552  17.276  0.00  0.00    +0.000 A 
ATOM     10  C   UNL     1       5.589   4.518  18.053  0.00  0.00    +0.000 A 
ATOM     11  C   UNL     1       4.869   5.617  18.531  0.00  0.00    +0.000 A 
ENDBRANCH   5   6
BRANCH   3  12
ATOM     12  C   UNL     1       1.398  10.396  18.519  0.00  0.00    +0.000 C 
ATOM     13  O   UNL     1       2.175  11.089  17.864  0.00  0.00    +0.000 OA
BRANCH  12  14
ATOM     14  C   UNL     1       0.134  11.006  19.042  0.00  0.00    +0.000 A 
ATOM     15  C   UNL     1       0.228  11.880  20.141  0.00  0.00    +0.000 A 
ATOM     16  C   UNL     1      -0.898  12.522  20.638  0.00  0.00    +0.000 A 
ATOM     17  C   UNL     1      -2.128  12.329  20.020  0.00  0.00    +0.000 A 
ATOM     18  C   UNL     1      -2.252  11.497  18.897  0.00  0.00    +0.000 A 
ATOM     19  C   UNL     1      -3.506  11.362  18.278  0.00  0.00    +0.000 A 
ATOM     20  C   UNL     1      -3.671  10.558  17.153  0.00  0.00    +0.000 A 
ATOM     21  C   UNL     1      -2.585   9.862  16.642  0.00  0.00    +0.000 A 
ATOM     22  C   UNL     1      -1.333   9.979  17.254  0.00  0.00    +0.000 A 
ATOM     23  C   UNL     1      -1.121  10.807  18.388  0.00  0.00    +0.000 A 
ENDBRANCH  12  14
ENDBRANCH   3  12
BRANCH   1  24
ATOM     24  C   UNL     1       1.959   6.064  20.974  0.00  0.00    +0.000 C 
BRANCH  24  25
ATOM     25  C   UNL     1       1.307   4.725  20.621  0.00  0.00    +0.000 C 
BRANCH  25  26
ATOM     26  C   UNL     1       2.217   3.530  20.904  0.00  0.00    +0.000 C 
BRANCH  26  28
ATOM     27  C   UNL     1       0.669   2.666  19.121  0.00  0.00    +0.000 C 
ATOM     28  C   UNL     1       1.816   2.323  20.057  0.00  0.00    +0.000 C 
ENDBRANCH  26  28
ENDBRANCH  25  26
ENDBRANCH  24  25
ENDBRANCH   1  24
TORSDOF 7
ENDMDL
MODEL 4
REMARK VINA RESULT:      -7.7      1.067      2.782
REMARK  Name = 
REMARK  8 active torsions:
REMARK  status: ('A' for Active; 'I' for Inactive)
REMARK    1  A    between atoms: C_1  and  C_2
REMARK    2  A    between atoms: C_2  and  C_3
REMARK    3  A    between atoms: C_3  and  C_4
REMARK    4  A    between atoms: C_4  and  C_5
REMARK    5  A    between atoms: C_5  and  N_6
REMARK    6  A    between atoms: C_8  and  C_9
REMARK    7  A    between atoms: C_9  and  C_11
REMARK    8  A    between atoms: C_22  and  C_23
REMARK                            x       y       z     vdW  Elec       q    Type
REMARK                         _______ _______ _______ _____ _____    ______ ____
ROOT
ATOM      1  N   UNL     1       3.465   6.522  18.456  0.00  0.00    +0.000 N 
ATOM      2  C   UNL     1       3.468   7.836  18.024  0.00  0.00    +0.000 A 
ATOM      3  C   UNL     1       2.274   8.431  18.382  0.00  0.00    +0.000 A 
ATOM      4  C   UNL     1       1.583   7.453  19.148  0.00  0.00    +0.000 A 
ATOM      5  C   UNL     1       2.328   6.283  19.212  0.00  0.00    +0.000 A 
ENDROOT
BRANCH   5   6
ATOM      6  C   UNL     1       1.950   5.037  19.901  0.00  0.00    +0.000 A 
ATOM      7  C   UNL     1       2.545   4.717  21.134  0.00  0.00    +0.000 A 
ATOM      8  C   UNL     1       2.240   3.524  21.796  0.00  0.00    +0.000 A 
ATOM      9  C   UNL     1       1.317   2.641  21.246  0.00  0.00    +0.000 A 
ATOM     10  C   UNL     1       0.718   2.940  20.026  0.00  0.00    +0.000 A 
ATOM     11  C   UNL     1       1.052   4.117  19.349  0.00  0.00    +0.000 A 
ENDBRANCH   5   6
BRANCH   3  12
ATOM     12  C   UNL     1       1.776   9.777  18.091  0.00  0.00    +0.000 C 
ATOM     13  O   UNL     1       2.327  10.467  17.236  0.00  0.00    +0.000 OA
BRANCH  12  14
ATOM     14  C   UNL     1       0.654  10.361  18.893  0.00  0.00    +0.000 A 
ATOM     15  C   UNL     1       0.971  10.982  20.116  0.00  0.00    +0.000 A 
ATOM     16  C   UNL     1      -0.015  11.593  20.880  0.00  0.00    +0.000 A 
ATOM     17  C   UNL     1      -1.324  11.624  20.415  0.00  0.00    +0.000 A 
ATOM     18  C   UNL     1      -1.670  11.052  19.182  0.00  0.00    +0.000 A 
ATOM     19  C   UNL     1      -2.997  11.142  18.730  0.00  0.00    +0.000 A 
ATOM     20  C   UNL     1      -3.379  10.601  17.506  0.00  0.00    +0.000 A 
ATOM     21  C   UNL     1      -2.441   9.944  16.723  0.00  0.00    +0.000 A 
ATOM     22  C   UNL     1      -1.118   9.837  17.165  0.00  0.00    +0.000 A 
ATOM     23  C   UNL     1      -0.685  10.397  18.396  0.00  0.00    +0.000 A 
ENDBRANCH  12  14
ENDBRANCH   3  12
BRANCH   1  24
ATOM     24  C   UNL     1       4.520   5.585  18.087  0.00  0.00    +0.000 C 
BRANCH  24  25
ATOM     25  C   UNL     1       4.324   4.876  16.745  0.00  0.00    +0.000 C 
BRANCH  25  26
ATOM     26  C   UNL     1       3.791   3.451  16.900  0.00  0.00    +0.000 C 
BRANCH  26  28
ATOM     27  C   UNL     1       3.605   1.475  18.443  0.00  0.00    +0.000 C 
ATOM     28  C   UNL     1       4.231   2.843  18.232  0.00  0.00    +0.000 C 
ENDBRANCH  26  28
ENDBRANCH  25  26
ENDBRANCH  24  25
ENDBRANCH   1  24
TORSDOF 7
ENDMDL
MODEL 5
REMARK VINA RESULT:      -7.7      1.197      3.477
REMARK  Name = 
REMARK  8 active torsions:
REMARK  status: ('A' for Active; 'I' for Inactive)
REMARK    1  A    between atoms: C_1  and  C_2
REMARK    2  A    between atoms: C_2  and  C_3
REMARK    3  A    between atoms: C_3  and  C_4
REMARK    4  A    between atoms: C_4  and  C_5
REMARK    5  A    between atoms: C_5  and  N_6
REMARK    6  A    between atoms: C_8  and  C_9
REMARK    7  A    between atoms: C_9  and  C_11
REMARK    8  A    between atoms: C_22  and  C_23
REMARK                            x       y       z     vdW  Elec       q    Type
REMARK                         _______ _______ _______ _____ _____    ______ ____
ROOT
ATOM      1  N   UNL     1       3.332   6.495  17.907  0.00  0.00    +0.000 N 
ATOM      2  C   UNL     1       3.351   7.830  17.543  0.00  0.00    +0.000 A 
ATOM      3  C   UNL     1       2.332   8.491  18.200  0.00  0.00    +0.000 A 
ATOM      4  C   UNL     1       1.754   7.523  19.066  0.00  0.00    +0.000 A 
ATOM      5  C   UNL     1       2.386   6.297  18.900  0.00  0.00    +0.000 A 
ENDROOT
BRANCH   5   6
ATOM      6  C   UNL     1       2.069   5.043  19.606  0.00  0.00    +0.000 A 
ATOM      7  C   UNL     1       1.383   4.020  18.929  0.00  0.00    +0.000 A 
ATOM      8  C   UNL     1       1.029   2.833  19.578  0.00  0.00    +0.000 A 
ATOM      9  C   UNL     1       1.375   2.642  20.912  0.00  0.00    +0.000 A 
ATOM     10  C   UNL     1       2.053   3.644  21.599  0.00  0.00    +0.000 A 
ATOM     11  C   UNL     1       2.374   4.844  20.957  0.00  0.00    +0.000 A 
ENDBRANCH   5   6
BRANCH   3  12
ATOM     12  C   UNL     1       1.901   9.887  18.094  0.00  0.00    +0.000 C 
ATOM     13  O   UNL     1       2.532  10.675  17.393  0.00  0.00    +0.000 OA
BRANCH  12  14
ATOM     14  C   UNL     1       0.749  10.390  18.908  0.00  0.00    +0.000 A 
ATOM     15  C   UNL     1       1.031  10.997  20.146  0.00  0.00    +0.000 A 
ATOM     16  C   UNL     1       0.013  11.535  20.923  0.00  0.00    +0.000 A 
ATOM     17  C   UNL     1      -1.295  11.508  20.456  0.00  0.00    +0.000 A 
ATOM     18  C   UNL     1      -1.608  10.948  19.208  0.00  0.00    +0.000 A 
ATOM     19  C   UNL     1      -2.938  10.977  18.757  0.00  0.00    +0.000 A 
ATOM     20  C   UNL     1      -3.290  10.446  17.519  0.00  0.00    +0.000 A 
ATOM     21  C   UNL     1      -2.318   9.860  16.723  0.00  0.00    +0.000 A 
ATOM     22  C   UNL     1      -0.991   9.814  17.164  0.00  0.00    +0.000 A 
ATOM     23  C   UNL     1      -0.590  10.366  18.409  0.00  0.00    +0.000 A 
ENDBRANCH  12  14
ENDBRANCH   3  12
BRANCH   1  24
ATOM     24  C   UNL     1       4.184   5.506  17.259  0.00  0.00    +0.000 C 
BRANCH  24  25
ATOM     25  C   UNL     1       5.685   5.670  17.510  0.00  0.00    +0.000 C 
BRANCH  25  26
ATOM     26  C   UNL     1       6.538   5.182  16.340  0.00  0.00    +0.000 C 
BRANCH  26  28
ATOM     27  C   UNL     1       6.041   4.047  14.152  0.00  0.00    +0.000 C 
ATOM     28  C   UNL     1       5.762   5.259  15.025  0.00  0.00    +0.000 C 
ENDBRANCH  26  28
ENDBRANCH  25  26
ENDBRANCH  24  25
ENDBRANCH   1  24
TORSDOF 7
ENDMDL
MODEL 6
REMARK VINA RESULT:      -7.7      1.172      3.385
REMARK  Name = 
REMARK  8 active torsions:
REMARK  status: ('A' for Active; 'I' for Inactive)
REMARK    1  A    between atoms: C_1  and  C_2
REMARK    2  A    between atoms: C_2  and  C_3
REMARK    3  A    between atoms: C_3  and  C_4
REMARK    4  A    between atoms: C_4  and  C_5
REMARK    5  A    between atoms: C_5  and  N_6
REMARK    6  A    between atoms: C_8  and  C_9
REMARK    7  A    between atoms: C_9  and  C_11
REMARK    8  A    between atoms: C_22  and  C_23
REMARK                            x       y       z     vdW  Elec       q    Type
REMARK                         _______ _______ _______ _____ _____    ______ ____
ROOT
ATOM      1  N   UNL     1       3.238   6.478  17.953  0.00  0.00    +0.000 N 
ATOM      2  C   UNL     1       3.273   7.813  17.592  0.00  0.00    +0.000 A 
ATOM      3  C   UNL     1       2.276   8.489  18.268  0.00  0.00    +0.000 A 
ATOM      4  C   UNL     1       1.697   7.528  19.141  0.00  0.00    +0.000 A 
ATOM      5  C   UNL     1       2.305   6.293  18.962  0.00  0.00    +0.000 A 
ENDROOT
BRANCH   5   6
ATOM      6  C   UNL     1       1.979   5.043  19.669  0.00  0.00    +0.000 A 
ATOM      7  C   UNL     1       2.419   4.858  20.992  0.00  0.00    +0.000 A 
ATOM      8  C   UNL     1       2.164   3.668  21.680  0.00  0.00    +0.000 A 
ATOM      9  C   UNL     1       1.443   2.650  21.063  0.00  0.00    +0.000 A 
ATOM     10  C   UNL     1       1.000   2.814  19.754  0.00  0.00    +0.000 A 
ATOM     11  C   UNL     1       1.288   3.991  19.057  0.00  0.00    +0.000 A 
ENDBRANCH   5   6
BRANCH   3  12
ATOM     12  C   UNL     1       1.867   9.892  18.173  0.00  0.00    +0.000 C 
ATOM     13  O   UNL     1       2.522  10.680  17.494  0.00  0.00    +0.000 OA
BRANCH  12  14
ATOM     14  C   UNL     1       0.708  10.402  18.972  0.00  0.00    +0.000 A 
ATOM     15  C   UNL     1       0.976  10.996  20.219  0.00  0.00    +0.000 A 
ATOM     16  C   UNL     1      -0.048  11.539  20.984  0.00  0.00    +0.000 A 
ATOM     17  C   UNL     1      -1.350  11.529  20.496  0.00  0.00    +0.000 A 
ATOM     18  C   UNL     1      -1.648  10.981  19.239  0.00  0.00    +0.000 A 
ATOM     19  C   UNL     1      -2.971  11.028  18.767  0.00  0.00    +0.000 A 
ATOM     20  C   UNL     1      -3.308  10.510  17.520  0.00  0.00    +0.000 A 
ATOM     21  C   UNL     1      -2.329   9.919  16.735  0.00  0.00    +0.000 A 
ATOM     22  C   UNL     1      -1.011   9.856  17.196  0.00  0.00    +0.000 A 
ATOM     23  C   UNL     1      -0.624  10.395  18.452  0.00  0.00    +0.000 A 
ENDBRANCH  12  14
ENDBRANCH   3  12
BRANCH   1  24
ATOM     24  C   UNL     1       4.062   5.476  17.288  0.00  0.00    +0.000 C 
BRANCH  24  25
ATOM     25  C   UNL     1       5.160   6.032  16.378  0.00  0.00    +0.000 C 
BRANCH  25  26
ATOM     26  C   UNL     1       6.566   5.764  16.914  0.00  0.00    +0.000 C 
BRANCH  26  28
ATOM     27  C   UNL     1       6.699   4.414  14.798  0.00  0.00    +0.000 C 
ATOM     28  C   UNL     1       7.193   4.551  16.228  0.00  0.00    +0.000 C 
ENDBRANCH  26  28
ENDBRANCH  25  26
ENDBRANCH  24  25
ENDBRANCH   1  24
TORSDOF 7
ENDMDL
MODEL 7
REMARK VINA RESULT:      -7.7      1.798      7.799
REMARK  Name = 
REMARK  8 active torsions:
REMARK  status: ('A' for Active; 'I' for Inactive)
REMARK    1  A    between atoms: C_1  and  C_2
REMARK    2  A    between atoms: C_2  and  C_3
REMARK    3  A    between atoms: C_3  and  C_4
REMARK    4  A    between atoms: C_4  and  C_5
REMARK    5  A    between atoms: C_5  and  N_6
REMARK    6  A    between atoms: C_8  and  C_9
REMARK    7  A    between atoms: C_9  and  C_11
REMARK    8  A    between atoms: C_22  and  C_23
REMARK                            x       y       z     vdW  Elec       q    Type
REMARK                         _______ _______ _______ _____ _____    ______ ____
ROOT
ATOM      1  N   UNL     1       1.139   8.562  20.176  0.00  0.00    +0.000 N 
ATOM      2  C   UNL     1       2.092   7.643  19.776  0.00  0.00    +0.000 A 
ATOM      3  C   UNL     1       2.488   7.937  18.486  0.00  0.00    +0.000 A 
ATOM      4  C   UNL     1       1.814   9.143  18.152  0.00  0.00    +0.000 A 
ATOM      5  C   UNL     1       0.998   9.540  19.204  0.00  0.00    +0.000 A 
ENDROOT
BRANCH   5   6
ATOM      6  C   UNL     1       0.130  10.730  19.241  0.00  0.00    +0.000 A 
ATOM      7  C   UNL     1      -1.256  10.585  19.049  0.00  0.00    +0.000 A 
ATOM      8  C   UNL     1      -2.105  11.695  19.037  0.00  0.00    +0.000 A 
ATOM      9  C   UNL     1      -1.584  12.969  19.238  0.00  0.00    +0.000 A 
ATOM     10  C   UNL     1      -0.215  13.133  19.427  0.00  0.00    +0.000 A 
ATOM     11  C   UNL     1       0.636  12.024  19.404  0.00  0.00    +0.000 A 
ENDBRANCH   5   6
BRANCH   3  12
ATOM     12  C   UNL     1       3.415   7.221  17.605  0.00  0.00    +0.000 C 
ATOM     13  O   UNL     1       3.640   7.645  16.474  0.00  0.00    +0.000 OA
BRANCH  12  14
ATOM     14  C   UNL     1       4.022   5.922  18.036  0.00  0.00    +0.000 A 
ATOM     15  C   UNL     1       5.374   5.923  18.427  0.00  0.00    +0.000 A 
ATOM     16  C   UNL     1       5.981   4.763  18.891  0.00  0.00    +0.000 A 
ATOM     17  C   UNL     1       5.236   3.595  19.005  0.00  0.00    +0.000 A 
ATOM     18  C   UNL     1       3.875   3.567  18.664  0.00  0.00    +0.000 A 
ATOM     19  C   UNL     1       3.149   2.377  18.834  0.00  0.00    +0.000 A 
ATOM     20  C   UNL     1       1.794   2.310  18.521  0.00  0.00    +0.000 A 
ATOM     21  C   UNL     1       1.150   3.429  18.015  0.00  0.00    +0.000 A 
ATOM     22  C   UNL     1       1.863   4.618  17.831  0.00  0.00    +0.000 A 
ATOM     23  C   UNL     1       3.240   4.732  18.161  0.00  0.00    +0.000 A 
ENDBRANCH  12  14
ENDBRANCH   3  12
BRANCH   1  24
ATOM     24  C   UNL     1       0.409   8.422  21.430  0.00  0.00    +0.000 C 
BRANCH  24  25
ATOM     25  C   UNL     1       0.659   9.528  22.458  0.00  0.00    +0.000 C 
BRANCH  25  26
ATOM     26  C   UNL     1      -0.632  10.052  23.090  0.00  0.00    +0.000 C 
BRANCH  26  28
ATOM     27  C   UNL     1      -2.295  11.937  23.060  0.00  0.00    +0.000 C 
ATOM     28  C   UNL     1      -0.883  11.507  22.697  0.00  0.00    +0.000 C 
ENDBRANCH  26  28
ENDBRANCH  25  26
ENDBRANCH  24  25
ENDBRANCH   1  24
TORSDOF 7
ENDMDL
MODEL 8
REMARK VINA RESULT:      -7.6      0.843      2.186
REMARK  Name = 
REMARK  8 active torsions:
REMARK  status: ('A' for Active; 'I' for Inactive)
REMARK    1  A    between atoms: C_1  and  C_2
REMARK    2  A    between atoms: C_2  and  C_3
REMARK    3  A    between atoms: C_3  and  C_4
REMARK    4  A    between atoms: C_4  and  C_5
REMARK    5  A    between atoms: C_5  and  N_6
REMARK    6  A    between atoms: C_8  and  C_9
REMARK    7  A    between atoms: C_9  and  C_11
REMARK    8  A    between atoms: C_22  and  C_23
REMARK                            x       y       z     vdW  Elec       q    Type
REMARK                         _______ _______ _______ _____ _____    ______ ____
ROOT
ATOM      1  N   UNL     1       2.300   7.017  19.449  0.00  0.00    +0.000 N 
ATOM      2  C   UNL     1       1.531   8.129  19.738  0.00  0.00    +0.000 A 
ATOM      3  C   UNL     1       1.680   9.055  18.724  0.00  0.00    +0.000 A 
ATOM      4  C   UNL     1       2.491   8.416  17.748  0.00  0.00    +0.000 A 
ATOM      5  C   UNL     1       2.856   7.149  18.186  0.00  0.00    +0.000 A 
ENDROOT
BRANCH   5   6
ATOM      6  C   UNL     1       3.701   6.181  17.467  0.00  0.00    +0.000 A 
ATOM      7  C   UNL     1       4.768   6.642  16.676  0.00  0.00    +0.000 A 
ATOM      8  C   UNL     1       5.566   5.756  15.947  0.00  0.00    +0.000 A 
ATOM      9  C   UNL     1       5.322   4.388  16.014  0.00  0.00    +0.000 A 
ATOM     10  C   UNL     1       4.270   3.911  16.790  0.00  0.00    +0.000 A 
ATOM     11  C   UNL     1       3.452   4.804  17.490  0.00  0.00    +0.000 A 
ENDBRANCH   5   6
BRANCH   3  12
ATOM     12  C   UNL     1       1.132  10.408  18.605  0.00  0.00    +0.000 C 
ATOM     13  O   UNL     1       1.865  11.385  18.743  0.00  0.00    +0.000 OA
BRANCH  12  14
ATOM     14  C   UNL     1      -0.338  10.618  18.408  0.00  0.00    +0.000 A 
ATOM     15  C   UNL     1      -0.995   9.824  17.448  0.00  0.00    +0.000 A 
ATOM     16  C   UNL     1      -2.366   9.929  17.257  0.00  0.00    +0.000 A 
ATOM     17  C   UNL     1      -3.106  10.801  18.046  0.00  0.00    +0.000 A 
ATOM     18  C   UNL     1      -2.492  11.577  19.040  0.00  0.00    +0.000 A 
ATOM     19  C   UNL     1      -3.282  12.416  19.844  0.00  0.00    +0.000 A 
ATOM     20  C   UNL     1      -2.715  13.191  20.851  0.00  0.00    +0.000 A 
ATOM     21  C   UNL     1      -1.344  13.154  21.056  0.00  0.00    +0.000 A 
ATOM     22  C   UNL     1      -0.543  12.333  20.257  0.00  0.00    +0.000 A 
ATOM     23  C   UNL     1      -1.088  11.509  19.236  0.00  0.00    +0.000 A 
ENDBRANCH  12  14
ENDBRANCH   3  12
BRANCH   1  24
ATOM     24  C   UNL     1       2.480   5.932  20.407  0.00  0.00    +0.000 C 
BRANCH  24  25
ATOM     25  C   UNL     1       1.301   4.965  20.528  0.00  0.00    +0.000 C 
BRANCH  25  26
ATOM     26  C   UNL     1       1.697   3.621  21.139  0.00  0.00    +0.000 C 
BRANCH  26  28
ATOM     27  C   UNL     1       0.868   2.549  19.022  0.00  0.00    +0.000 C 
ATOM     28  C   UNL     1       1.985   2.587  20.051  0.00  0.00    +0.000 C 
ENDBRANCH  26  28
ENDBRANCH  25  26
ENDBRANCH  24  25
ENDBRANCH   1  24
TORSDOF 7
ENDMDL
MODEL 9
REMARK VINA RESULT:      -7.5      1.890      7.630
REMARK  Name = 
REMARK  8 active torsions:
REMARK  status: ('A' for Active; 'I' for Inactive)
REMARK    1  A    between atoms: C_1  and  C_2
REMARK    2  A    between atoms: C_2  and  C_3
REMARK    3  A    between atoms: C_3  and  C_4
REMARK    4  A    between atoms: C_4  and  C_5
REMARK    5  A    between atoms: C_5  and  N_6
REMARK    6  A    between atoms: C_8  and  C_9
REMARK    7  A    between atoms: C_9  and  C_11
REMARK    8  A    between atoms: C_22  and  C_23
REMARK                            x       y       z     vdW  Elec       q    Type
REMARK                         _______ _______ _______ _____ _____    ______ ____
ROOT
ATOM      1  N   UNL     1       1.276   8.586  19.898  0.00  0.00    +0.000 N 
ATOM      2  C   UNL     1       2.177   7.561  19.670  0.00  0.00    +0.000 A 
ATOM      3  C   UNL     1       2.715   7.706  18.406  0.00  0.00    +0.000 A 
ATOM      4  C   UNL     1       2.183   8.928  17.910  0.00  0.00    +0.000 A 
ATOM      5  C   UNL     1       1.312   9.481  18.840  0.00  0.00    +0.000 A 
ENDROOT
BRANCH   5   6
ATOM      6  C   UNL     1       0.552  10.735  18.694  0.00  0.00    +0.000 A 
ATOM      7  C   UNL     1       1.210  11.967  18.849  0.00  0.00    +0.000 A 
ATOM      8  C   UNL     1       0.513  13.176  18.758  0.00  0.00    +0.000 A 
ATOM      9  C   UNL     1      -0.852  13.171  18.488  0.00  0.00    +0.000 A 
ATOM     10  C   UNL     1      -1.521  11.961  18.333  0.00  0.00    +0.000 A 
ATOM     11  C   UNL     1      -0.828  10.753  18.459  0.00  0.00    +0.000 A 
ENDBRANCH   5   6
BRANCH   3  12
ATOM     12  C   UNL     1       3.652   6.843  17.683  0.00  0.00    +0.000 C 
ATOM     13  O   UNL     1       4.069   7.177  16.576  0.00  0.00    +0.000 OA
BRANCH  12  14
ATOM     14  C   UNL     1       4.037   5.507  18.239  0.00  0.00    +0.000 A 
ATOM     15  C   UNL     1       5.338   5.357  18.755  0.00  0.00    +0.000 A 
ATOM     16  C   UNL     1       5.740   4.161  19.335  0.00  0.00    +0.000 A 
ATOM     17  C   UNL     1       4.836   3.111  19.441  0.00  0.00    +0.000 A 
ATOM     18  C   UNL     1       3.519   3.238  18.975  0.00  0.00    +0.000 A 
ATOM     19  C   UNL     1       2.626   2.166  19.139  0.00  0.00    +0.000 A 
ATOM     20  C   UNL     1       1.306   2.256  18.704  0.00  0.00    +0.000 A 
ATOM     21  C   UNL     1       0.866   3.413  18.080  0.00  0.00    +0.000 A 
ATOM     22  C   UNL     1       1.747   4.485  17.901  0.00  0.00    +0.000 A 
ATOM     23  C   UNL     1       3.093   4.440  18.352  0.00  0.00    +0.000 A 
ENDBRANCH  12  14
ENDBRANCH   3  12
BRANCH   1  24
ATOM     24  C   UNL     1       0.424   8.617  21.081  0.00  0.00    +0.000 C 
BRANCH  24  25
ATOM     25  C   UNL     1       0.806   9.661  22.133  0.00  0.00    +0.000 C 
BRANCH  25  26
ATOM     26  C   UNL     1      -0.200   9.739  23.281  0.00  0.00    +0.000 C 
BRANCH  26  28
ATOM     27  C   UNL     1      -0.594  11.948  22.146  0.00  0.00    +0.000 C 
ATOM     28  C   UNL     1      -1.176  10.897  23.077  0.00  0.00    +0.000 C 
ENDBRANCH  26  28
ENDBRANCH  25  26
ENDBRANCH  24  25
ENDBRANCH   1  24
TORSDOF 7
ENDMDL
