MODEL 1
REMARK VINA RESULT:      -7.2      0.000      0.000
REMARK  Name = 
REMARK  10 active torsions:
REMARK  status: ('A' for Active; 'I' for Inactive)
REMARK    1  A    between atoms: C_1  and  O_2
REMARK    2  A    between atoms: O_2  and  C_3
REMARK    3  A    between atoms: C_5  and  C_6
REMARK    4  A    between atoms: C_6  and  N_7
REMARK    5  A    between atoms: C_8  and  S_9
REMARK    6  A    between atoms: N_10  and  C_11
REMARK    7  A    between atoms: C_11  and  C_12
REMARK    8  A    between atoms: C_12  and  C_13
REMARK    9  A    between atoms: C_13  and  C_14
REMARK   10  A    between atoms: C_23  and  O_24
REMARK                            x       y       z     vdW  Elec       q    Type
REMARK                         _______ _______ _______ _____ _____    ______ ____
ROOT
ATOM      1  N   UNL     1       2.394   4.481  19.477  0.00  0.00    +0.000 NA
ATOM      2  C   UNL     1       2.116   3.320  19.916  0.00  0.00    +0.000 C 
ATOM      3  N   UNL     1       1.913   2.255  19.075  0.00  0.00    +0.000 N 
ATOM      4  H   UNL     1       1.497   1.422  19.475  0.00  0.00    +0.000 HD
ENDROOT
BRANCH   2   5
ATOM      5  S   UNL     1       1.930   2.862  21.601  0.00  0.00    +0.000 S 
ATOM      6  H   UNL     1       2.961   3.547  22.106  0.00  0.00    +0.000 HD
ENDBRANCH   2   5
BRANCH   1   7
ATOM      7  C   UNL     1       2.551   5.640  20.337  0.00  0.00    +0.000 C 
BRANCH   7  10
ATOM      8  C   UNL     1       1.374   9.231  19.589  0.00  0.00    +0.000 A 
ATOM      9  C   UNL     1       1.620   8.020  20.259  0.00  0.00    +0.000 A 
ATOM     10  C   UNL     1       2.259   6.942  19.622  0.00  0.00    +0.000 A 
ATOM     11  C   UNL     1       2.690   7.108  18.300  0.00  0.00    +0.000 A 
ATOM     12  C   UNL     1       2.453   8.303  17.623  0.00  0.00    +0.000 A 
ATOM     13  C   UNL     1       1.793   9.356  18.260  0.00  0.00    +0.000 A 
BRANCH   8  15
ATOM     14  C   UNL     1       0.667   9.924  21.761  0.00  0.00    +0.000 C 
ATOM     15  O   UNL     1       0.729  10.162  20.361  0.00  0.00    +0.000 OA
ENDBRANCH   8  15
BRANCH  13  16
ATOM     16  O   UNL     1       1.581  10.503  17.544  0.00  0.00    +0.000 OA
ATOM     17  H   UNL     1       0.878  11.019  17.970  0.00  0.00    +0.000 HD
ENDBRANCH  13  16
ENDBRANCH   7  10
ENDBRANCH   1   7
BRANCH   3  18
ATOM     18  C   UNL     1       2.440   2.177  17.731  0.00  0.00    +0.000 C 
BRANCH  18  19
ATOM     19  C   UNL     1       3.909   2.613  17.698  0.00  0.00    +0.000 C 
BRANCH  19  20
ATOM     20  C   UNL     1       4.141   3.675  16.617  0.00  0.00    +0.000 C 
BRANCH  20  21
ATOM     21  C   UNL     1       5.142   4.735  17.023  0.00  0.00    +0.000 A 
ATOM     22  C   UNL     1       5.946   4.564  18.160  0.00  0.00    +0.000 A 
ATOM     23  C   UNL     1       6.878   5.542  18.524  0.00  0.00    +0.000 A 
ATOM     24  C   UNL     1       7.009   6.696  17.755  0.00  0.00    +0.000 A 
ATOM     25 CL   UNL     1       8.150   7.903  18.209  0.00  0.00    +0.000 Cl
ATOM     26  C   UNL     1       6.220   6.879  16.623  0.00  0.00    +0.000 A 
ATOM     27  C   UNL     1       5.287   5.902  16.260  0.00  0.00    +0.000 A 
ENDBRANCH  20  21
ENDBRANCH  19  20
ENDBRANCH  18  19
ENDBRANCH   3  18
TORSDOF 9
ENDMDL
MODEL 2
REMARK VINA RESULT:      -6.9      4.143      7.474
REMARK  Name = 
REMARK  10 active torsions:
REMARK  status: ('A' for Active; 'I' for Inactive)
REMARK    1  A    between atoms: C_1  and  O_2
REMARK    2  A    between atoms: O_2  and  C_3
REMARK    3  A    between atoms: C_5  and  C_6
REMARK    4  A    between atoms: C_6  and  N_7
REMARK    5  A    between atoms: C_8  and  S_9
REMARK    6  A    between atoms: N_10  and  C_11
REMARK    7  A    between atoms: C_11  and  C_12
REMARK    8  A    between atoms: C_12  and  C_13
REMARK    9  A    between atoms: C_13  and  C_14
REMARK   10  A    between atoms: C_23  and  O_24
REMARK                            x       y       z     vdW  Elec       q    Type
REMARK                         _______ _______ _______ _____ _____    ______ ____
ROOT
ATOM      1  N   UNL     1       3.617   5.623  19.480  0.00  0.00    +0.000 NA
ATOM      2  C   UNL     1       2.563   5.550  20.190  0.00  0.00    +0.000 C 
ATOM      3  N   UNL     1       1.885   6.670  20.599  0.00  0.00    +0.000 N 
ATOM      4  H   UNL     1       1.186   6.549  21.323  0.00  0.00    +0.000 HD
ENDROOT
BRANCH   2   5
ATOM      5  S   UNL     1       1.803   4.079  20.774  0.00  0.00    +0.000 S 
ATOM      6  H   UNL     1       1.462   3.552  19.594  0.00  0.00    +0.000 HD
ENDBRANCH   2   5
BRANCH   1   7
ATOM      7  C   UNL     1       4.392   4.461  19.085  0.00  0.00    +0.000 C 
BRANCH   7  10
ATOM      8  C   UNL     1       6.933   5.943  16.598  0.00  0.00    +0.000 A 
ATOM      9  C   UNL     1       6.160   5.742  17.754  0.00  0.00    +0.000 A 
ATOM     10  C   UNL     1       5.215   4.704  17.838  0.00  0.00    +0.000 A 
ATOM     11  C   UNL     1       5.080   3.834  16.749  0.00  0.00    +0.000 A 
ATOM     12  C   UNL     1       5.839   4.021  15.596  0.00  0.00    +0.000 A 
ATOM     13  C   UNL     1       6.756   5.072  15.516  0.00  0.00    +0.000 A 
BRANCH   8  15
ATOM     14  C   UNL     1       7.795   7.742  17.908  0.00  0.00    +0.000 C 
ATOM     15  O   UNL     1       7.790   7.009  16.690  0.00  0.00    +0.000 OA
ENDBRANCH   8  15
BRANCH  13  16
ATOM     16  O   UNL     1       7.468   5.212  14.357  0.00  0.00    +0.000 OA
ATOM     17  H   UNL     1       6.862   5.445  13.636  0.00  0.00    +0.000 HD
ENDBRANCH  13  16
ENDBRANCH   7  10
ENDBRANCH   1   7
BRANCH   3  18
ATOM     18  C   UNL     1       1.957   7.948  19.926  0.00  0.00    +0.000 C 
BRANCH  18  19
ATOM     19  C   UNL     1       0.866   8.893  20.441  0.00  0.00    +0.000 C 
BRANCH  19  20
ATOM     20  C   UNL     1       0.883  10.220  19.672  0.00  0.00    +0.000 C 
BRANCH  20  21
ATOM     21  C   UNL     1      -0.433  10.538  18.997  0.00  0.00    +0.000 A 
ATOM     22  C   UNL     1      -0.812   9.880  17.818  0.00  0.00    +0.000 A 
ATOM     23  C   UNL     1      -2.035  10.170  17.204  0.00  0.00    +0.000 A 
ATOM     24  C   UNL     1      -2.884  11.123  17.764  0.00  0.00    +0.000 A 
ATOM     25 CL   UNL     1      -4.385  11.486  17.003  0.00  0.00    +0.000 Cl
ATOM     26  C   UNL     1      -2.522  11.782  18.935  0.00  0.00    +0.000 A 
ATOM     27  C   UNL     1      -1.299  11.493  19.548  0.00  0.00    +0.000 A 
ENDBRANCH  20  21
ENDBRANCH  19  20
ENDBRANCH  18  19
ENDBRANCH   3  18
TORSDOF 9
ENDMDL
MODEL 3
REMARK VINA RESULT:      -6.9      0.585      1.088
REMARK  Name = 
REMARK  10 active torsions:
REMARK  status: ('A' for Active; 'I' for Inactive)
REMARK    1  A    between atoms: C_1  and  O_2
REMARK    2  A    between atoms: O_2  and  C_3
REMARK    3  A    between atoms: C_5  and  C_6
REMARK    4  A    between atoms: C_6  and  N_7
REMARK    5  A    between atoms: C_8  and  S_9
REMARK    6  A    between atoms: N_10  and  C_11
REMARK    7  A    between atoms: C_11  and  C_12
REMARK    8  A    between atoms: C_12  and  C_13
REMARK    9  A    between atoms: C_13  and  C_14
REMARK   10  A    between atoms: C_23  and  O_24
REMARK                            x       y       z     vdW  Elec       q    Type
REMARK                         _______ _______ _______ _____ _____    ______ ____
ROOT
ATOM      1  N   UNL     1       2.306   4.957  19.522  0.00  0.00    +0.000 NA
ATOM      2  C   UNL     1       2.120   3.757  19.901  0.00  0.00    +0.000 C 
ATOM      3  N   UNL     1       1.973   2.727  19.006  0.00  0.00    +0.000 N 
ATOM      4  H   UNL     1       1.626   1.846  19.367  0.00  0.00    +0.000 HD
ENDROOT
BRANCH   2   5
ATOM      5  S   UNL     1       2.008   3.196  21.561  0.00  0.00    +0.000 S 
ATOM      6  H   UNL     1       1.306   2.080  21.345  0.00  0.00    +0.000 HD
ENDBRANCH   2   5
BRANCH   1   7
ATOM      7  C   UNL     1       2.401   6.076  20.442  0.00  0.00    +0.000 C 
BRANCH   7  10
ATOM      8  C   UNL     1       1.155   9.680  19.895  0.00  0.00    +0.000 A 
ATOM      9  C   UNL     1       1.453   8.450  20.507  0.00  0.00    +0.000 A 
ATOM     10  C   UNL     1       2.053   7.398  19.791  0.00  0.00    +0.000 A 
ATOM     11  C   UNL     1       2.392   7.611  18.449  0.00  0.00    +0.000 A 
ATOM     12  C   UNL     1       2.102   8.825  17.830  0.00  0.00    +0.000 A 
ATOM     13  C   UNL     1       1.481   9.852  18.545  0.00  0.00    +0.000 A 
BRANCH   8  15
ATOM     14  C   UNL     1      -0.547  10.126  21.509  0.00  0.00    +0.000 C 
ATOM     15  O   UNL     1       0.559  10.580  20.740  0.00  0.00    +0.000 OA
ENDBRANCH   8  15
BRANCH  13  16
ATOM     16  O   UNL     1       1.214  11.019  17.884  0.00  0.00    +0.000 OA
ATOM     17  H   UNL     1       2.030  11.345  17.470  0.00  0.00    +0.000 HD
ENDBRANCH  13  16
ENDBRANCH   7  10
ENDBRANCH   1   7
BRANCH   3  18
ATOM     18  C   UNL     1       2.472   2.760  17.649  0.00  0.00    +0.000 C 
BRANCH  18  19
ATOM     19  C   UNL     1       4.001   2.854  17.636  0.00  0.00    +0.000 C 
BRANCH  19  20
ATOM     20  C   UNL     1       4.486   3.737  16.481  0.00  0.00    +0.000 C 
BRANCH  20  21
ATOM     21  C   UNL     1       5.438   4.828  16.919  0.00  0.00    +0.000 A 
ATOM     22  C   UNL     1       5.164   6.175  16.637  0.00  0.00    +0.000 A 
ATOM     23  C   UNL     1       6.042   7.180  17.055  0.00  0.00    +0.000 A 
ATOM     24  C   UNL     1       7.200   6.845  17.754  0.00  0.00    +0.000 A 
ATOM     25 CL   UNL     1       8.284   8.083  18.260  0.00  0.00    +0.000 Cl
ATOM     26  C   UNL     1       7.483   5.514  18.044  0.00  0.00    +0.000 A 
ATOM     27  C   UNL     1       6.607   4.508  17.625  0.00  0.00    +0.000 A 
ENDBRANCH  20  21
ENDBRANCH  19  20
ENDBRANCH  18  19
ENDBRANCH   3  18
TORSDOF 9
ENDMDL
MODEL 4
REMARK VINA RESULT:      -6.8      4.644      6.492
REMARK  Name = 
REMARK  10 active torsions:
REMARK  status: ('A' for Active; 'I' for Inactive)
REMARK    1  A    between atoms: C_1  and  O_2
REMARK    2  A    between atoms: O_2  and  C_3
REMARK    3  A    between atoms: C_5  and  C_6
REMARK    4  A    between atoms: C_6  and  N_7
REMARK    5  A    between atoms: C_8  and  S_9
REMARK    6  A    between atoms: N_10  and  C_11
REMARK    7  A    between atoms: C_11  and  C_12
REMARK    8  A    between atoms: C_12  and  C_13
REMARK    9  A    between atoms: C_13  and  C_14
REMARK   10  A    between atoms: C_23  and  O_24
REMARK                            x       y       z     vdW  Elec       q    Type
REMARK                         _______ _______ _______ _____ _____    ______ ____
ROOT
ATOM      1  N   UNL     1       6.077   5.091  17.696  0.00  0.00    +0.000 NA
ATOM      2  C   UNL     1       6.257   5.852  16.692  0.00  0.00    +0.000 C 
ATOM      3  N   UNL     1       6.812   7.100  16.818  0.00  0.00    +0.000 N 
ATOM      4  H   UNL     1       6.735   7.723  16.022  0.00  0.00    +0.000 HD
ENDROOT
BRANCH   2   5
ATOM      5  S   UNL     1       5.844   5.488  15.025  0.00  0.00    +0.000 S 
ATOM      6  H   UNL     1       5.489   6.716  14.637  0.00  0.00    +0.000 HD
ENDBRANCH   2   5
BRANCH   1   7
ATOM      7  C   UNL     1       5.435   3.792  17.604  0.00  0.00    +0.000 C 
BRANCH   7  10
ATOM      8  C   UNL     1       2.345   4.796  19.675  0.00  0.00    +0.000 A 
ATOM      9  C   UNL     1       3.571   4.862  18.990  0.00  0.00    +0.000 A 
ATOM     10  C   UNL     1       4.128   3.732  18.366  0.00  0.00    +0.000 A 
ATOM     11  C   UNL     1       3.413   2.528  18.403  0.00  0.00    +0.000 A 
ATOM     12  C   UNL     1       2.197   2.448  19.079  0.00  0.00    +0.000 A 
ATOM     13  C   UNL     1       1.668   3.571  19.717  0.00  0.00    +0.000 A 
BRANCH   8  15
ATOM     14  C   UNL     1       2.404   7.181  19.595  0.00  0.00    +0.000 C 
ATOM     15  O   UNL     1       1.965   5.989  20.233  0.00  0.00    +0.000 OA
ENDBRANCH   8  15
BRANCH  13  16
ATOM     16  O   UNL     1       0.475   3.432  20.371  0.00  0.00    +0.000 OA
ATOM     17  H   UNL     1       0.159   2.520  20.267  0.00  0.00    +0.000 HD
ENDBRANCH  13  16
ENDBRANCH   7  10
ENDBRANCH   1   7
BRANCH   3  18
ATOM     18  C   UNL     1       7.664   7.497  17.916  0.00  0.00    +0.000 C 
BRANCH  18  19
ATOM     19  C   UNL     1       8.147   8.941  17.733  0.00  0.00    +0.000 C 
BRANCH  19  20
ATOM     20  C   UNL     1       8.871   9.440  18.989  0.00  0.00    +0.000 C 
BRANCH  20  21
ATOM     21  C   UNL     1       9.455  10.826  18.833  0.00  0.00    +0.000 A 
ATOM     22  C   UNL     1      10.517  11.252  19.643  0.00  0.00    +0.000 A 
ATOM     23  C   UNL     1      11.061  12.532  19.486  0.00  0.00    +0.000 A 
ATOM     24  C   UNL     1      10.544  13.393  18.521  0.00  0.00    +0.000 A 
ATOM     25 CL   UNL     1      11.208  14.970  18.335  0.00  0.00    +0.000 Cl
ATOM     26  C   UNL     1       9.491  12.983  17.707  0.00  0.00    +0.000 A 
ATOM     27  C   UNL     1       8.947  11.705  17.865  0.00  0.00    +0.000 A 
ENDBRANCH  20  21
ENDBRANCH  19  20
ENDBRANCH  18  19
ENDBRANCH   3  18
TORSDOF 9
ENDMDL
MODEL 5
REMARK VINA RESULT:      -6.7      5.193      7.180
REMARK  Name = 
REMARK  10 active torsions:
REMARK  status: ('A' for Active; 'I' for Inactive)
REMARK    1  A    between atoms: C_1  and  O_2
REMARK    2  A    between atoms: O_2  and  C_3
REMARK    3  A    between atoms: C_5  and  C_6
REMARK    4  A    between atoms: C_6  and  N_7
REMARK    5  A    between atoms: C_8  and  S_9
REMARK    6  A    between atoms: N_10  and  C_11
REMARK    7  A    between atoms: C_11  and  C_12
REMARK    8  A    between atoms: C_12  and  C_13
REMARK    9  A    between atoms: C_13  and  C_14
REMARK   10  A    between atoms: C_23  and  O_24
REMARK                            x       y       z     vdW  Elec       q    Type
REMARK                         _______ _______ _______ _____ _____    ______ ____
ROOT
ATOM      1  N   UNL     1       5.839   6.726  16.759  0.00  0.00    +0.000 NA
ATOM      2  C   UNL     1       6.946   6.474  17.332  0.00  0.00    +0.000 C 
ATOM      3  N   UNL     1       7.845   7.463  17.642  0.00  0.00    +0.000 N 
ATOM      4  H   UNL     1       8.780   7.173  17.903  0.00  0.00    +0.000 HD
ENDROOT
BRANCH   2   5
ATOM      5  S   UNL     1       7.532   4.889  17.811  0.00  0.00    +0.000 S 
ATOM      6  H   UNL     1       8.613   5.277  18.493  0.00  0.00    +0.000 HD
ENDBRANCH   2   5
BRANCH   1   7
ATOM      7  C   UNL     1       4.896   5.697  16.361  0.00  0.00    +0.000 C 
BRANCH   7  10
ATOM      8  C   UNL     1       2.848   3.747  18.978  0.00  0.00    +0.000 A 
ATOM      9  C   UNL     1       3.755   4.046  17.947  0.00  0.00    +0.000 A 
ATOM     10  C   UNL     1       3.907   5.355  17.456  0.00  0.00    +0.000 A 
ATOM     11  C   UNL     1       3.158   6.381  18.046  0.00  0.00    +0.000 A 
ATOM     12  C   UNL     1       2.255   6.099  19.068  0.00  0.00    +0.000 A 
ATOM     13  C   UNL     1       2.094   4.791  19.529  0.00  0.00    +0.000 A 
BRANCH   8  15
ATOM     14  C   UNL     1       3.415   1.499  18.409  0.00  0.00    +0.000 C 
ATOM     15  O   UNL     1       2.823   2.419  19.317  0.00  0.00    +0.000 OA
ENDBRANCH   8  15
BRANCH  13  16
ATOM     16  O   UNL     1       1.188   4.572  20.530  0.00  0.00    +0.000 OA
ATOM     17  H   UNL     1       0.371   5.057  20.332  0.00  0.00    +0.000 HD
ENDBRANCH  13  16
ENDBRANCH   7  10
ENDBRANCH   1   7
BRANCH   3  18
ATOM     18  C   UNL     1       7.486   8.852  17.819  0.00  0.00    +0.000 C 
BRANCH  18  19
ATOM     19  C   UNL     1       8.736   9.739  17.819  0.00  0.00    +0.000 C 
BRANCH  19  20
ATOM     20  C   UNL     1       9.220  10.004  19.249  0.00  0.00    +0.000 C 
BRANCH  20  21
ATOM     21  C   UNL     1      10.006  11.290  19.387  0.00  0.00    +0.000 A 
ATOM     22  C   UNL     1      10.886  11.704  18.377  0.00  0.00    +0.000 A 
ATOM     23  C   UNL     1      11.602  12.899  18.505  0.00  0.00    +0.000 A 
ATOM     24  C   UNL     1      11.444  13.685  19.645  0.00  0.00    +0.000 A 
ATOM     25 CL   UNL     1      12.332  15.151  19.806  0.00  0.00    +0.000 Cl
ATOM     26  C   UNL     1      10.572  13.288  20.655  0.00  0.00    +0.000 A 
ATOM     27  C   UNL     1       9.858  12.092  20.528  0.00  0.00    +0.000 A 
ENDBRANCH  20  21
ENDBRANCH  19  20
ENDBRANCH  18  19
ENDBRANCH   3  18
TORSDOF 9
ENDMDL
MODEL 6
REMARK VINA RESULT:      -6.6      0.895      1.412
REMARK  Name = 
REMARK  10 active torsions:
REMARK  status: ('A' for Active; 'I' for Inactive)
REMARK    1  A    between atoms: C_1  and  O_2
REMARK    2  A    between atoms: O_2  and  C_3
REMARK    3  A    between atoms: C_5  and  C_6
REMARK    4  A    between atoms: C_6  and  N_7
REMARK    5  A    between atoms: C_8  and  S_9
REMARK    6  A    between atoms: N_10  and  C_11
REMARK    7  A    between atoms: C_11  and  C_12
REMARK    8  A    between atoms: C_12  and  C_13
REMARK    9  A    between atoms: C_13  and  C_14
REMARK   10  A    between atoms: C_23  and  O_24
REMARK                            x       y       z     vdW  Elec       q    Type
REMARK                         _______ _______ _______ _____ _____    ______ ____
ROOT
ATOM      1  N   UNL     1       1.506   4.578  19.907  0.00  0.00    +0.000 NA
ATOM      2  C   UNL     1       1.764   3.398  20.303  0.00  0.00    +0.000 C 
ATOM      3  N   UNL     1       1.389   2.292  19.583  0.00  0.00    +0.000 N 
ATOM      4  H   UNL     1       1.441   1.395  20.052  0.00  0.00    +0.000 HD
ENDROOT
BRANCH   2   5
ATOM      5  S   UNL     1       2.601   2.957  21.783  0.00  0.00    +0.000 S 
ATOM      6  H   UNL     1       2.567   4.147  22.390  0.00  0.00    +0.000 HD
ENDBRANCH   2   5
BRANCH   1   7
ATOM      7  C   UNL     1       1.833   5.765  20.676  0.00  0.00    +0.000 C 
BRANCH   7  10
ATOM      8  C   UNL     1       1.346   9.394  19.478  0.00  0.00    +0.000 A 
ATOM      9  C   UNL     1       1.293   8.231  20.265  0.00  0.00    +0.000 A 
ATOM     10  C   UNL     1       1.862   7.021  19.830  0.00  0.00    +0.000 A 
ATOM     11  C   UNL     1       2.529   7.001  18.599  0.00  0.00    +0.000 A 
ATOM     12  C   UNL     1       2.590   8.146  17.808  0.00  0.00    +0.000 A 
ATOM     13  C   UNL     1       1.997   9.334  18.240  0.00  0.00    +0.000 A 
BRANCH   8  15
ATOM     14  C   UNL     1      -0.641  10.692  19.733  0.00  0.00    +0.000 C 
ATOM     15  O   UNL     1       0.727  10.473  20.054  0.00  0.00    +0.000 OA
ENDBRANCH   8  15
BRANCH  13  16
ATOM     16  O   UNL     1       2.082  10.426  17.419  0.00  0.00    +0.000 OA
ATOM     17  H   UNL     1       2.224  10.128  16.506  0.00  0.00    +0.000 HD
ENDBRANCH  13  16
ENDBRANCH   7  10
ENDBRANCH   1   7
BRANCH   3  18
ATOM     18  C   UNL     1       1.130   2.305  18.161  0.00  0.00    +0.000 C 
BRANCH  18  19
ATOM     19  C   UNL     1       2.128   3.215  17.436  0.00  0.00    +0.000 C 
BRANCH  19  20
ATOM     20  C   UNL     1       3.571   2.786  17.727  0.00  0.00    +0.000 C 
BRANCH  20  21
ATOM     21  C   UNL     1       4.551   3.939  17.721  0.00  0.00    +0.000 A 
ATOM     22  C   UNL     1       4.781   4.679  16.553  0.00  0.00    +0.000 A 
ATOM     23  C   UNL     1       5.680   5.751  16.557  0.00  0.00    +0.000 A 
ATOM     24  C   UNL     1       6.356   6.086  17.729  0.00  0.00    +0.000 A 
ATOM     25 CL   UNL     1       7.469   7.399  17.731  0.00  0.00    +0.000 Cl
ATOM     26  C   UNL     1       6.136   5.362  18.897  0.00  0.00    +0.000 A 
ATOM     27  C   UNL     1       5.239   4.290  18.892  0.00  0.00    +0.000 A 
ENDBRANCH  20  21
ENDBRANCH  19  20
ENDBRANCH  18  19
ENDBRANCH   3  18
TORSDOF 9
ENDMDL
MODEL 7
REMARK VINA RESULT:      -6.5      3.956      7.078
REMARK  Name = 
REMARK  10 active torsions:
REMARK  status: ('A' for Active; 'I' for Inactive)
REMARK    1  A    between atoms: C_1  and  O_2
REMARK    2  A    between atoms: O_2  and  C_3
REMARK    3  A    between atoms: C_5  and  C_6
REMARK    4  A    between atoms: C_6  and  N_7
REMARK    5  A    between atoms: C_8  and  S_9
REMARK    6  A    between atoms: N_10  and  C_11
REMARK    7  A    between atoms: C_11  and  C_12
REMARK    8  A    between atoms: C_12  and  C_13
REMARK    9  A    between atoms: C_13  and  C_14
REMARK   10  A    between atoms: C_23  and  O_24
REMARK                            x       y       z     vdW  Elec       q    Type
REMARK                         _______ _______ _______ _____ _____    ______ ____
ROOT
ATOM      1  N   UNL     1       3.383   5.451  19.547  0.00  0.00    +0.000 NA
ATOM      2  C   UNL     1       2.255   5.414  20.134  0.00  0.00    +0.000 C 
ATOM      3  N   UNL     1       1.674   6.540  20.661  0.00  0.00    +0.000 N 
ATOM      4  H   UNL     1       0.888   6.405  21.286  0.00  0.00    +0.000 HD
ENDROOT
BRANCH   2   5
ATOM      5  S   UNL     1       1.262   3.989  20.390  0.00  0.00    +0.000 S 
ATOM      6  H   UNL     1       0.391   4.174  19.394  0.00  0.00    +0.000 HD
ENDBRANCH   2   5
BRANCH   1   7
ATOM      7  C   UNL     1       4.053   4.268  19.036  0.00  0.00    +0.000 C 
BRANCH   7  10
ATOM      8  C   UNL     1       7.001   5.747  17.046  0.00  0.00    +0.000 A 
ATOM      9  C   UNL     1       6.095   5.480  18.086  0.00  0.00    +0.000 A 
ATOM     10  C   UNL     1       5.024   4.584  17.918  0.00  0.00    +0.000 A 
ATOM     11  C   UNL     1       4.895   3.920  16.692  0.00  0.00    +0.000 A 
ATOM     12  C   UNL     1       5.785   4.175  15.652  0.00  0.00    +0.000 A 
ATOM     13  C   UNL     1       6.829   5.087  15.823  0.00  0.00    +0.000 A 
BRANCH   8  15
ATOM     14  C   UNL     1       7.584   8.021  17.480  0.00  0.00    +0.000 C 
ATOM     15  O   UNL     1       7.970   6.656  17.384  0.00  0.00    +0.000 OA
ENDBRANCH   8  15
BRANCH  13  16
ATOM     16  O   UNL     1       7.669   5.303  14.765  0.00  0.00    +0.000 OA
ATOM     17  H   UNL     1       7.395   4.744  14.021  0.00  0.00    +0.000 HD
ENDBRANCH  13  16
ENDBRANCH   7  10
ENDBRANCH   1   7
BRANCH   3  18
ATOM     18  C   UNL     1       1.975   7.884  20.221  0.00  0.00    +0.000 C 
BRANCH  18  19
ATOM     19  C   UNL     1       1.742   8.026  18.713  0.00  0.00    +0.000 C 
BRANCH  19  20
ATOM     20  C   UNL     1       1.681   9.502  18.304  0.00  0.00    +0.000 C 
BRANCH  20  21
ATOM     21  C   UNL     1       0.311  10.117  18.482  0.00  0.00    +0.000 A 
ATOM     22  C   UNL     1       0.066  11.039  19.510  0.00  0.00    +0.000 A 
ATOM     23  C   UNL     1      -1.201  11.613  19.662  0.00  0.00    +0.000 A 
ATOM     24  C   UNL     1      -2.230  11.266  18.789  0.00  0.00    +0.000 A 
ATOM     25 CL   UNL     1      -3.791  11.967  18.983  0.00  0.00    +0.000 Cl
ATOM     26  C   UNL     1      -2.001  10.355  17.762  0.00  0.00    +0.000 A 
ATOM     27  C   UNL     1      -0.736   9.780  17.611  0.00  0.00    +0.000 A 
ENDBRANCH  20  21
ENDBRANCH  19  20
ENDBRANCH  18  19
ENDBRANCH   3  18
TORSDOF 9
ENDMDL
MODEL 8
REMARK VINA RESULT:      -6.5      2.935      5.399
REMARK  Name = 
REMARK  10 active torsions:
REMARK  status: ('A' for Active; 'I' for Inactive)
REMARK    1  A    between atoms: C_1  and  O_2
REMARK    2  A    between atoms: O_2  and  C_3
REMARK    3  A    between atoms: C_5  and  C_6
REMARK    4  A    between atoms: C_6  and  N_7
REMARK    5  A    between atoms: C_8  and  S_9
REMARK    6  A    between atoms: N_10  and  C_11
REMARK    7  A    between atoms: C_11  and  C_12
REMARK    8  A    between atoms: C_12  and  C_13
REMARK    9  A    between atoms: C_13  and  C_14
REMARK   10  A    between atoms: C_23  and  O_24
REMARK                            x       y       z     vdW  Elec       q    Type
REMARK                         _______ _______ _______ _____ _____    ______ ____
ROOT
ATOM      1  N   UNL     1       2.957   3.284  17.644  0.00  0.00    +0.000 NA
ATOM      2  C   UNL     1       3.012   2.398  18.555  0.00  0.00    +0.000 C 
ATOM      3  N   UNL     1       2.166   2.414  19.635  0.00  0.00    +0.000 N 
ATOM      4  H   UNL     1       2.399   1.810  20.415  0.00  0.00    +0.000 HD
ENDROOT
BRANCH   2   5
ATOM      5  S   UNL     1       4.131   1.047  18.626  0.00  0.00    +0.000 S 
ATOM      6  H   UNL     1       5.248   1.698  18.289  0.00  0.00    +0.000 HD
ENDBRANCH   2   5
BRANCH   1   7
ATOM      7  C   UNL     1       3.878   3.330  16.523  0.00  0.00    +0.000 C 
BRANCH   7  10
ATOM      8  C   UNL     1       7.032   5.209  17.690  0.00  0.00    +0.000 A 
ATOM      9  C   UNL     1       6.036   4.226  17.563  0.00  0.00    +0.000 A 
ATOM     10  C   UNL     1       4.947   4.390  16.689  0.00  0.00    +0.000 A 
ATOM     11  C   UNL     1       4.888   5.549  15.905  0.00  0.00    +0.000 A 
ATOM     12  C   UNL     1       5.868   6.533  16.022  0.00  0.00    +0.000 A 
ATOM     13  C   UNL     1       6.931   6.368  16.913  0.00  0.00    +0.000 A 
BRANCH   8  15
ATOM     14  C   UNL     1       8.023   5.599  19.827  0.00  0.00    +0.000 C 
ATOM     15  O   UNL     1       8.008   4.885  18.597  0.00  0.00    +0.000 OA
ENDBRANCH   8  15
BRANCH  13  16
ATOM     16  O   UNL     1       7.860   7.370  16.990  0.00  0.00    +0.000 OA
ATOM     17  H   UNL     1       8.609   7.155  16.412  0.00  0.00    +0.000 HD
ENDBRANCH  13  16
ENDBRANCH   7  10
ENDBRANCH   1   7
BRANCH   3  18
ATOM     18  C   UNL     1       0.877   3.069  19.641  0.00  0.00    +0.000 C 
BRANCH  18  19
ATOM     19  C   UNL     1       0.845   4.195  20.681  0.00  0.00    +0.000 C 
BRANCH  19  20
ATOM     20  C   UNL     1       2.175   4.956  20.705  0.00  0.00    +0.000 C 
BRANCH  20  21
ATOM     21  C   UNL     1       2.107   6.304  20.022  0.00  0.00    +0.000 A 
ATOM     22  C   UNL     1       2.639   6.484  18.736  0.00  0.00    +0.000 A 
ATOM     23  C   UNL     1       2.563   7.730  18.105  0.00  0.00    +0.000 A 
ATOM     24  C   UNL     1       1.957   8.803  18.756  0.00  0.00    +0.000 A 
ATOM     25 CL   UNL     1       1.872  10.338  17.981  0.00  0.00    +0.000 Cl
ATOM     26  C   UNL     1       1.422   8.638  20.030  0.00  0.00    +0.000 A 
ATOM     27  C   UNL     1       1.500   7.394  20.662  0.00  0.00    +0.000 A 
ENDBRANCH  20  21
ENDBRANCH  19  20
ENDBRANCH  18  19
ENDBRANCH   3  18
TORSDOF 9
ENDMDL
MODEL 9
REMARK VINA RESULT:      -6.5      4.753      6.736
REMARK  Name = 
REMARK  10 active torsions:
REMARK  status: ('A' for Active; 'I' for Inactive)
REMARK    1  A    between atoms: C_1  and  O_2
REMARK    2  A    between atoms: O_2  and  C_3
REMARK    3  A    between atoms: C_5  and  C_6
REMARK    4  A    between atoms: C_6  and  N_7
REMARK    5  A    between atoms: C_8  and  S_9
REMARK    6  A    between atoms: N_10  and  C_11
REMARK    7  A    between atoms: C_11  and  C_12
REMARK    8  A    between atoms: C_12  and  C_13
REMARK    9  A    between atoms: C_13  and  C_14
REMARK   10  A    between atoms: C_23  and  O_24
REMARK                            x       y       z     vdW  Elec       q    Type
REMARK                         _______ _______ _______ _____ _____    ______ ____
ROOT
ATOM      1  N   UNL     1       4.811   6.781  17.713  0.00  0.00    +0.000 NA
ATOM      2  C   UNL     1       5.670   6.492  16.820  0.00  0.00    +0.000 C 
ATOM      3  N   UNL     1       6.975   6.905  16.908  0.00  0.00    +0.000 N 
ATOM      4  H   UNL     1       7.545   6.818  16.074  0.00  0.00    +0.000 HD
ENDROOT
BRANCH   2   5
ATOM      5  S   UNL     1       5.377   5.564  15.359  0.00  0.00    +0.000 S 
ATOM      6  H   UNL     1       4.522   4.669  15.862  0.00  0.00    +0.000 HD
ENDBRANCH   2   5
BRANCH   1   7
ATOM      7  C   UNL     1       3.410   6.415  17.618  0.00  0.00    +0.000 C 
BRANCH   7  10
ATOM      8  C   UNL     1       2.824   3.251  19.736  0.00  0.00    +0.000 A 
ATOM      9  C   UNL     1       3.217   4.100  18.687  0.00  0.00    +0.000 A 
ATOM     10  C   UNL     1       2.972   5.484  18.729  0.00  0.00    +0.000 A 
ATOM     11  C   UNL     1       2.357   6.019  19.867  0.00  0.00    +0.000 A 
ATOM     12  C   UNL     1       1.962   5.189  20.914  0.00  0.00    +0.000 A 
ATOM     13  C   UNL     1       2.187   3.813  20.848  0.00  0.00    +0.000 A 
BRANCH   8  15
ATOM     14  C   UNL     1       3.571   1.569  18.215  0.00  0.00    +0.000 C 
ATOM     15  O   UNL     1       3.130   1.932  19.516  0.00  0.00    +0.000 OA
ENDBRANCH   8  15
BRANCH  13  16
ATOM     16  O   UNL     1       1.771   3.046  21.902  0.00  0.00    +0.000 OA
ATOM     17  H   UNL     1       0.919   3.381  22.224  0.00  0.00    +0.000 HD
ENDBRANCH  13  16
ENDBRANCH   7  10
ENDBRANCH   1   7
BRANCH   3  18
ATOM     18  C   UNL     1       7.631   7.250  18.149  0.00  0.00    +0.000 C 
BRANCH  18  19
ATOM     19  C   UNL     1       8.654   8.370  17.929  0.00  0.00    +0.000 C 
BRANCH  19  20
ATOM     20  C   UNL     1       7.973   9.743  17.934  0.00  0.00    +0.000 C 
BRANCH  20  21
ATOM     21  C   UNL     1       8.872  10.855  18.429  0.00  0.00    +0.000 A 
ATOM     22  C   UNL     1       8.893  12.101  17.784  0.00  0.00    +0.000 A 
ATOM     23  C   UNL     1       9.718  13.129  18.254  0.00  0.00    +0.000 A 
ATOM     24  C   UNL     1      10.527  12.917  19.368  0.00  0.00    +0.000 A 
ATOM     25 CL   UNL     1      11.548  14.180  19.939  0.00  0.00    +0.000 Cl
ATOM     26  C   UNL     1      10.514  11.687  20.020  0.00  0.00    +0.000 A 
ATOM     27  C   UNL     1       9.691  10.659  19.550  0.00  0.00    +0.000 A 
ENDBRANCH  20  21
ENDBRANCH  19  20
ENDBRANCH  18  19
ENDBRANCH   3  18
TORSDOF 9
ENDMDL
