MODEL 1
REMARK VINA RESULT:      -7.8      0.000      0.000
REMARK  Name = 
REMARK  1 active torsions:
REMARK  status: ('A' for Active; 'I' for Inactive)
REMARK    1  A    between atoms: C_1  and  C_2
REMARK                            x       y       z     vdW  Elec       q    Type
REMARK                         _______ _______ _______ _____ _____    ______ ____
ROOT
ATOM      1  C   UNL     1       8.264   5.670  19.396  0.00  0.00    +0.000 C 
ATOM      2  C   UNL     1       7.361   4.816  18.373  0.00  0.00    +0.000 C 
ATOM      3  C   UNL     1       6.627   5.543  17.706  0.00  0.00    +0.000 C 
ATOM      4  C   UNL     1       5.816   6.363  17.039  0.00  0.00    +0.000 C 
ATOM      5  C   UNL     1       5.969   5.642  15.683  0.00  0.00    +0.000 A 
ATOM      6  C   UNL     1       5.014   4.598  15.319  0.00  0.00    +0.000 A 
ATOM      7  C   UNL     1       5.237   3.809  14.188  0.00  0.00    +0.000 A 
ATOM      8  C   UNL     1       6.332   4.185  13.428  0.00  0.00    +0.000 A 
ATOM      9  C   UNL     1       7.404   4.873  14.065  0.00  0.00    +0.000 A 
ATOM     10  C   UNL     1       7.283   5.070  15.477  0.00  0.00    +0.000 A 
ATOM     11  O   UNL     1       7.901   4.486  16.822  0.00  0.00    +0.000 OA
ATOM     12  N   UNL     1       4.637   6.086  17.809  0.00  0.00    +0.000 N 
ATOM     13  C   UNL     1       3.719   7.137  17.495  0.00  0.00    +0.000 C 
ATOM     14  C   UNL     1       2.377   6.914  18.000  0.00  0.00    +0.000 C 
ATOM     15  C   UNL     1       2.445   6.664  19.504  0.00  0.00    +0.000 C 
ATOM     16  S   UNL     1       3.206   5.027  20.000  0.00  0.00    +0.000 S 
ATOM     17  C   UNL     1       4.720   5.209  19.042  0.00  0.00    +0.000 C 
ATOM     18  N   UNL     1       5.972   4.583  19.287  0.00  0.00    +0.000 NA
ENDROOT
TORSDOF 0
ENDMDL
MODEL 2
REMARK VINA RESULT:      -7.4      2.405      3.697
REMARK  Name = 
REMARK  1 active torsions:
REMARK  status: ('A' for Active; 'I' for Inactive)
REMARK    1  A    between atoms: C_1  and  C_2
REMARK                            x       y       z     vdW  Elec       q    Type
REMARK                         _______ _______ _______ _____ _____    ______ ____
ROOT
ATOM      1  C   UNL     1       1.908   8.035  17.953  0.00  0.00    +0.000 C 
ATOM      2  C   UNL     1       3.258   7.213  18.256  0.00  0.00    +0.000 C 
ATOM      3  C   UNL     1       3.204   6.074  17.793  0.00  0.00    +0.000 C 
ATOM      4  C   UNL     1       3.085   4.835  17.318  0.00  0.00    +0.000 C 
ATOM      5  C   UNL     1       4.531   4.747  16.786  0.00  0.00    +0.000 A 
ATOM      6  C   UNL     1       5.572   4.187  17.646  0.00  0.00    +0.000 A 
ATOM      7  C   UNL     1       6.913   4.265  17.260  0.00  0.00    +0.000 A 
ATOM      8  C   UNL     1       7.122   4.789  15.995  0.00  0.00    +0.000 A 
ATOM      9  C   UNL     1       6.151   5.679  15.454  0.00  0.00    +0.000 A 
ATOM     10  C   UNL     1       5.048   6.010  16.304  0.00  0.00    +0.000 A 
ATOM     11  O   UNL     1       4.539   7.240  17.176  0.00  0.00    +0.000 OA
ATOM     12  N   UNL     1       2.799   4.206  18.576  0.00  0.00    +0.000 N 
ATOM     13  C   UNL     1       2.274   2.917  18.248  0.00  0.00    +0.000 C 
ATOM     14  C   UNL     1       2.135   2.032  19.390  0.00  0.00    +0.000 C 
ATOM     15  C   UNL     1       1.291   2.724  20.458  0.00  0.00    +0.000 C 
ATOM     16  S   UNL     1       2.126   4.163  21.316  0.00  0.00    +0.000 S 
ATOM     17  C   UNL     1       2.598   5.046  19.820  0.00  0.00    +0.000 C 
ATOM     18  N   UNL     1       2.849   6.439  19.689  0.00  0.00    +0.000 NA
ENDROOT
TORSDOF 0
ENDMDL
MODEL 3
REMARK VINA RESULT:      -7.0      3.035      5.100
REMARK  Name = 
REMARK  1 active torsions:
REMARK  status: ('A' for Active; 'I' for Inactive)
REMARK    1  A    between atoms: C_1  and  C_2
REMARK                            x       y       z     vdW  Elec       q    Type
REMARK                         _______ _______ _______ _____ _____    ______ ____
ROOT
ATOM      1  C   UNL     1       2.227   8.151  18.357  0.00  0.00    +0.000 C 
ATOM      2  C   UNL     1       2.618   6.712  17.751  0.00  0.00    +0.000 C 
ATOM      3  C   UNL     1       3.322   6.074  18.531  0.00  0.00    +0.000 C 
ATOM      4  C   UNL     1       4.122   5.435  19.385  0.00  0.00    +0.000 C 
ATOM      5  C   UNL     1       3.474   4.050  19.180  0.00  0.00    +0.000 A 
ATOM      6  C   UNL     1       4.028   3.146  18.175  0.00  0.00    +0.000 A 
ATOM      7  C   UNL     1       3.351   1.969  17.844  0.00  0.00    +0.000 A 
ATOM      8  C   UNL     1       2.230   1.710  18.615  0.00  0.00    +0.000 A 
ATOM      9  C   UNL     1       1.546   2.804  19.218  0.00  0.00    +0.000 A 
ATOM     10  C   UNL     1       2.051   4.110  18.922  0.00  0.00    +0.000 A 
ATOM     11  O   UNL     1       1.654   5.371  18.036  0.00  0.00    +0.000 OA
ATOM     12  N   UNL     1       5.349   5.705  18.690  0.00  0.00    +0.000 N 
ATOM     13  C   UNL     1       6.391   5.419  19.627  0.00  0.00    +0.000 C 
ATOM     14  C   UNL     1       7.719   5.410  19.043  0.00  0.00    +0.000 C 
ATOM     15  C   UNL     1       7.959   6.738  18.329  0.00  0.00    +0.000 C 
ATOM     16  S   UNL     1       6.965   6.984  16.762  0.00  0.00    +0.000 S 
ATOM     17  C   UNL     1       5.356   6.621  17.483  0.00  0.00    +0.000 C 
ATOM     18  N   UNL     1       4.087   7.060  17.017  0.00  0.00    +0.000 NA
ENDROOT
TORSDOF 0
ENDMDL
MODEL 4
REMARK VINA RESULT:      -6.8      2.607      4.246
REMARK  Name = 
REMARK  1 active torsions:
REMARK  status: ('A' for Active; 'I' for Inactive)
REMARK    1  A    between atoms: C_1  and  C_2
REMARK                            x       y       z     vdW  Elec       q    Type
REMARK                         _______ _______ _______ _____ _____    ______ ____
ROOT
ATOM      1  C   UNL     1       1.565   7.917  17.638  0.00  0.00    +0.000 C 
ATOM      2  C   UNL     1       2.826   7.378  18.481  0.00  0.00    +0.000 C 
ATOM      3  C   UNL     1       3.260   6.326  18.015  0.00  0.00    +0.000 C 
ATOM      4  C   UNL     1       3.670   5.164  17.507  0.00  0.00    +0.000 C 
ATOM      5  C   UNL     1       5.176   5.464  17.659  0.00  0.00    +0.000 A 
ATOM      6  C   UNL     1       5.868   5.037  18.873  0.00  0.00    +0.000 A 
ATOM      7  C   UNL     1       7.178   5.456  19.114  0.00  0.00    +0.000 A 
ATOM      8  C   UNL     1       7.756   6.175  18.080  0.00  0.00    +0.000 A 
ATOM      9  C   UNL     1       6.909   6.894  17.191  0.00  0.00    +0.000 A 
ATOM     10  C   UNL     1       5.508   6.861  17.481  0.00  0.00    +0.000 A 
ATOM     11  O   UNL     1       4.387   7.825  18.071  0.00  0.00    +0.000 OA
ATOM     12  N   UNL     1       3.055   4.327  18.498  0.00  0.00    +0.000 N 
ATOM     13  C   UNL     1       3.060   3.009  17.944  0.00  0.00    +0.000 C 
ATOM     14  C   UNL     1       2.687   1.974  18.890  0.00  0.00    +0.000 C 
ATOM     15  C   UNL     1       1.329   2.318  19.497  0.00  0.00    +0.000 C 
ATOM     16  S   UNL     1       1.334   3.779  20.667  0.00  0.00    +0.000 S 
ATOM     17  C   UNL     1       2.146   4.933  19.549  0.00  0.00    +0.000 C 
ATOM     18  N   UNL     1       2.067   6.351  19.573  0.00  0.00    +0.000 NA
ENDROOT
TORSDOF 0
ENDMDL
MODEL 5
REMARK VINA RESULT:      -6.3      2.943      5.619
REMARK  Name = 
REMARK  1 active torsions:
REMARK  status: ('A' for Active; 'I' for Inactive)
REMARK    1  A    between atoms: C_1  and  C_2
REMARK                            x       y       z     vdW  Elec       q    Type
REMARK                         _______ _______ _______ _____ _____    ______ ____
ROOT
ATOM      1  C   UNL     1       2.285   8.382  18.909  0.00  0.00    +0.000 C 
ATOM      2  C   UNL     1       2.203   6.824  18.516  0.00  0.00    +0.000 C 
ATOM      3  C   UNL     1       3.099   6.177  19.055  0.00  0.00    +0.000 C 
ATOM      4  C   UNL     1       4.112   5.522  19.621  0.00  0.00    +0.000 C 
ATOM      5  C   UNL     1       3.285   4.275  19.997  0.00  0.00    +0.000 A 
ATOM      6  C   UNL     1       3.236   3.148  19.068  0.00  0.00    +0.000 A 
ATOM      7  C   UNL     1       2.352   2.090  19.300  0.00  0.00    +0.000 A 
ATOM      8  C   UNL     1       1.660   2.166  20.497  0.00  0.00    +0.000 A 
ATOM      9  C   UNL     1       1.440   3.446  21.081  0.00  0.00    +0.000 A 
ATOM     10  C   UNL     1       1.911   4.574  20.336  0.00  0.00    +0.000 A 
ATOM     11  O   UNL     1       1.314   5.750  19.445  0.00  0.00    +0.000 OA
ATOM     12  N   UNL     1       4.934   5.447  18.446  0.00  0.00    +0.000 N 
ATOM     13  C   UNL     1       6.240   5.100  18.913  0.00  0.00    +0.000 C 
ATOM     14  C   UNL     1       7.168   4.750  17.853  0.00  0.00    +0.000 C 
ATOM     15  C   UNL     1       7.222   5.891  16.841  0.00  0.00    +0.000 C 
ATOM     16  S   UNL     1       5.678   6.103  15.804  0.00  0.00    +0.000 S 
ATOM     17  C   UNL     1       4.517   6.165  17.178  0.00  0.00    +0.000 C 
ATOM     18  N   UNL     1       3.232   6.772  17.190  0.00  0.00    +0.000 NA
ENDROOT
TORSDOF 0
ENDMDL
MODEL 6
REMARK VINA RESULT:      -5.8      7.250      9.924
REMARK  Name = 
REMARK  1 active torsions:
REMARK  status: ('A' for Active; 'I' for Inactive)
REMARK    1  A    between atoms: C_1  and  C_2
REMARK                            x       y       z     vdW  Elec       q    Type
REMARK                         _______ _______ _______ _____ _____    ______ ____
ROOT
ATOM      1  C   UNL     1       1.443   9.779  18.391  0.00  0.00    +0.000 C 
ATOM      2  C   UNL     1      -0.156   9.754  18.569  0.00  0.00    +0.000 C 
ATOM      3  C   UNL     1      -0.626  10.890  18.559  0.00  0.00    +0.000 C 
ATOM      4  C   UNL     1      -1.089  12.140  18.591  0.00  0.00    +0.000 C 
ATOM      5  C   UNL     1      -2.344  11.849  17.742  0.00  0.00    +0.000 A 
ATOM      6  C   UNL     1      -3.593  11.499  18.415  0.00  0.00    +0.000 A 
ATOM      7  C   UNL     1      -4.688  11.055  17.669  0.00  0.00    +0.000 A 
ATOM      8  C   UNL     1      -4.508  11.097  16.296  0.00  0.00    +0.000 A 
ATOM      9  C   UNL     1      -3.186  11.016  15.776  0.00  0.00    +0.000 A 
ATOM     10  C   UNL     1      -2.137  10.833  16.732  0.00  0.00    +0.000 A 
ATOM     11  O   UNL     1      -1.166   9.676  17.234  0.00  0.00    +0.000 OA
ATOM     12  N   UNL     1      -1.252  12.216  20.015  0.00  0.00    +0.000 N 
ATOM     13  C   UNL     1      -1.398  13.608  20.310  0.00  0.00    +0.000 C 
ATOM     14  C   UNL     1      -1.804  13.879  21.677  0.00  0.00    +0.000 C 
ATOM     15  C   UNL     1      -0.821  13.206  22.632  0.00  0.00    +0.000 C 
ATOM     16  S   UNL     1      -0.915  11.337  22.676  0.00  0.00    +0.000 S 
ATOM     17  C   UNL     1      -0.770  11.084  20.899  0.00  0.00    +0.000 C 
ATOM     18  N   UNL     1      -0.297   9.921  20.234  0.00  0.00    +0.000 NA
ENDROOT
TORSDOF 0
ENDMDL
MODEL 7
REMARK VINA RESULT:      -5.6      9.327     10.545
REMARK  Name = 
REMARK  1 active torsions:
REMARK  status: ('A' for Active; 'I' for Inactive)
REMARK    1  A    between atoms: C_1  and  C_2
REMARK                            x       y       z     vdW  Elec       q    Type
REMARK                         _______ _______ _______ _____ _____    ______ ____
ROOT
ATOM      1  C   UNL     1       9.505  15.091  22.779  0.00  0.00    +0.000 C 
ATOM      2  C   UNL     1       8.844  14.407  21.480  0.00  0.00    +0.000 C 
ATOM      3  C   UNL     1       9.682  14.204  20.604  0.00  0.00    +0.000 C 
ATOM      4  C   UNL     1      10.612  14.045  19.663  0.00  0.00    +0.000 C 
ATOM      5  C   UNL     1      10.121  12.653  19.210  0.00  0.00    +0.000 A 
ATOM      6  C   UNL     1       9.165  12.560  18.109  0.00  0.00    +0.000 A 
ATOM      7  C   UNL     1       8.569  11.334  17.804  0.00  0.00    +0.000 A 
ATOM      8  C   UNL     1       9.047  10.260  18.536  0.00  0.00    +0.000 A 
ATOM      9  C   UNL     1       9.605  10.503  19.823  0.00  0.00    +0.000 A 
ATOM     10  C   UNL     1       9.570  11.857  20.285  0.00  0.00    +0.000 A 
ATOM     11  O   UNL     1       8.764  12.739  21.336  0.00  0.00    +0.000 OA
ATOM     12  N   UNL     1      10.232  15.176  18.866  0.00  0.00    +0.000 N 
ATOM     13  C   UNL     1      11.334  15.413  17.986  0.00  0.00    +0.000 C 
ATOM     14  C   UNL     1      11.052  16.377  16.939  0.00  0.00    +0.000 C 
ATOM     15  C   UNL     1      10.558  17.674  17.575  0.00  0.00    +0.000 C 
ATOM     16  S   UNL     1       8.851  17.580  18.337  0.00  0.00    +0.000 S 
ATOM     17  C   UNL     1       9.164  16.131  19.358  0.00  0.00    +0.000 C 
ATOM     18  N   UNL     1       8.486  15.759  20.551  0.00  0.00    +0.000 NA
ENDROOT
TORSDOF 0
ENDMDL
MODEL 8
REMARK VINA RESULT:      -5.6      9.049     11.277
REMARK  Name = 
REMARK  1 active torsions:
REMARK  status: ('A' for Active; 'I' for Inactive)
REMARK    1  A    between atoms: C_1  and  C_2
REMARK                            x       y       z     vdW  Elec       q    Type
REMARK                         _______ _______ _______ _____ _____    ______ ____
ROOT
ATOM      1  C   UNL     1       0.615  15.084  20.514  0.00  0.00    +0.000 C 
ATOM      2  C   UNL     1       0.677  13.881  21.582  0.00  0.00    +0.000 C 
ATOM      3  C   UNL     1      -0.351  13.206  21.558  0.00  0.00    +0.000 C 
ATOM      4  C   UNL     1      -1.499  12.530  21.532  0.00  0.00    +0.000 C 
ATOM      5  C   UNL     1      -0.848  11.138  21.672  0.00  0.00    +0.000 A 
ATOM      6  C   UNL     1      -0.680  10.561  23.004  0.00  0.00    +0.000 A 
ATOM      7  C   UNL     1       0.068   9.393  23.170  0.00  0.00    +0.000 A 
ATOM      8  C   UNL     1       0.501   8.810  21.990  0.00  0.00    +0.000 A 
ATOM      9  C   UNL     1       0.677   9.636  20.844  0.00  0.00    +0.000 A 
ATOM     10  C   UNL     1       0.443  11.036  21.026  0.00  0.00    +0.000 A 
ATOM     11  O   UNL     1       1.285  12.381  21.150  0.00  0.00    +0.000 OA
ATOM     12  N   UNL     1      -2.063  13.123  22.712  0.00  0.00    +0.000 N 
ATOM     13  C   UNL     1      -3.456  12.806  22.671  0.00  0.00    +0.000 C 
ATOM     14  C   UNL     1      -4.166  13.122  23.897  0.00  0.00    +0.000 C 
ATOM     15  C   UNL     1      -3.937  14.591  24.241  0.00  0.00    +0.000 C 
ATOM     16  S   UNL     1      -2.202  15.010  24.805  0.00  0.00    +0.000 S 
ATOM     17  C   UNL     1      -1.348  14.264  23.407  0.00  0.00    +0.000 C 
ATOM     18  N   UNL     1      -0.057  14.595  22.913  0.00  0.00    +0.000 NA
ENDROOT
TORSDOF 0
ENDMDL
MODEL 9
REMARK VINA RESULT:      -5.5      9.437     11.024
REMARK  Name = 
REMARK  1 active torsions:
REMARK  status: ('A' for Active; 'I' for Inactive)
REMARK    1  A    between atoms: C_1  and  C_2
REMARK                            x       y       z     vdW  Elec       q    Type
REMARK                         _______ _______ _______ _____ _____    ______ ____
ROOT
ATOM      1  C   UNL     1      11.722  11.673  18.169  0.00  0.00    +0.000 C 
ATOM      2  C   UNL     1      11.434  12.499  19.520  0.00  0.00    +0.000 C 
ATOM      3  C   UNL     1      10.334  13.048  19.484  0.00  0.00    +0.000 C 
ATOM      4  C   UNL     1       9.156  13.663  19.386  0.00  0.00    +0.000 C 
ATOM      5  C   UNL     1       8.728  13.388  20.843  0.00  0.00    +0.000 A 
ATOM      6  C   UNL     1       9.024  14.383  21.871  0.00  0.00    +0.000 A 
ATOM      7  C   UNL     1       8.814  14.079  23.219  0.00  0.00    +0.000 A 
ATOM      8  C   UNL     1       8.216  12.851  23.448  0.00  0.00    +0.000 A 
ATOM      9  C   UNL     1       8.378  11.819  22.481  0.00  0.00    +0.000 A 
ATOM     10  C   UNL     1       9.211  12.125  21.359  0.00  0.00    +0.000 A 
ATOM     11  O   UNL     1      10.668  11.774  20.822  0.00  0.00    +0.000 OA
ATOM     12  N   UNL     1       9.677  14.964  19.080  0.00  0.00    +0.000 N 
ATOM     13  C   UNL     1       8.569  15.712  18.572  0.00  0.00    +0.000 C 
ATOM     14  C   UNL     1       8.839  17.129  18.418  0.00  0.00    +0.000 C 
ATOM     15  C   UNL     1      10.079  17.309  17.547  0.00  0.00    +0.000 C 
ATOM     16  S   UNL     1      11.691  16.803  18.352  0.00  0.00    +0.000 S 
ATOM     17  C   UNL     1      11.162  15.155  18.847  0.00  0.00    +0.000 C 
ATOM     18  N   UNL     1      11.989  14.024  19.089  0.00  0.00    +0.000 NA
ENDROOT
TORSDOF 0
ENDMDL
