MODEL 1
REMARK VINA RESULT:      -7.2      0.000      0.000
REMARK  Name = 
REMARK  2 active torsions:
REMARK  status: ('A' for Active; 'I' for Inactive)
REMARK    1  A    between atoms: C_1  and  C_2
REMARK    2  A    between atoms: C_18  and  C_20
REMARK                            x       y       z     vdW  Elec       q    Type
REMARK                         _______ _______ _______ _____ _____    ______ ____
ROOT
ATOM      1  C   UNL     1      -0.852  14.373  21.054  0.00  0.00    +0.000 C 
ATOM      2  C   UNL     1      -1.694  13.107  20.831  0.00  0.00    +0.000 C 
ATOM      3  C   UNL     1      -0.934  12.150  19.973  0.00  0.00    +0.000 A 
ATOM      4  N   UNL     1      -0.681  12.356  18.648  0.00  0.00    +0.000 NA
ATOM      5  C   UNL     1       0.063  11.336  18.293  0.00  0.00    +0.000 A 
ATOM      6  N   UNL     1       0.316  10.455  19.330  0.00  0.00    +0.000 N 
ATOM      7  C   UNL     1       1.095   9.265  19.276  0.00  0.00    +0.000 A 
ATOM      8  C   UNL     1       1.771   8.913  18.105  0.00  0.00    +0.000 A 
ATOM      9  C   UNL     1       2.548   7.756  18.100  0.00  0.00    +0.000 A 
ATOM     10  C   UNL     1       2.629   6.988  19.247  0.00  0.00    +0.000 A 
ATOM     11  F   UNL     1       3.372   5.878  19.271  0.00  0.00    +0.000 F 
ATOM     12  C   UNL     1       1.933   7.393  20.371  0.00  0.00    +0.000 A 
ATOM     13  N   UNL     1       1.173   8.514  20.409  0.00  0.00    +0.000 NA
ATOM     14  C   UNL     1      -0.339  10.992  20.420  0.00  0.00    +0.000 A 
ATOM     15  C   UNL     1      -0.435  10.499  21.823  0.00  0.00    +0.000 C 
ATOM     16  C   UNL     1      -0.934  11.648  22.738  0.00  0.00    +0.000 C 
ATOM     17  N   UNL     1      -2.029  12.442  22.126  0.00  0.00    +0.000 N 
ATOM     18  C   UNL     1      -3.280  12.460  22.773  0.00  0.00    +0.000 C 
ATOM     19  O   UNL     1      -3.468  11.878  23.838  0.00  0.00    +0.000 OA
ENDROOT
BRANCH  18  20
ATOM     20  C   UNL     1      -4.430  13.215  22.178  0.00  0.00    +0.000 A 
ATOM     21  C   UNL     1      -5.253  12.558  21.255  0.00  0.00    +0.000 A 
ATOM     22  C   UNL     1      -6.448  13.116  20.821  0.00  0.00    +0.000 A 
ATOM     23  C   UNL     1      -6.756  14.413  21.191  0.00  0.00    +0.000 A 
ATOM     24  F   UNL     1      -7.915  14.934  20.761  0.00  0.00    +0.000 F 
ATOM     25  C   UNL     1      -5.873  15.162  21.973  0.00  0.00    +0.000 A 
ATOM     26 CL   UNL     1      -6.281  16.822  22.264  0.00  0.00    +0.000 Cl
ATOM     27  C   UNL     1      -4.707  14.562  22.490  0.00  0.00    +0.000 A 
ATOM     28 CL   UNL     1      -3.657  15.494  23.511  0.00  0.00    +0.000 Cl
ENDBRANCH  18  20
TORSDOF 1
ENDMDL
MODEL 2
REMARK VINA RESULT:      -7.1      4.406      5.810
REMARK  Name = 
REMARK  2 active torsions:
REMARK  status: ('A' for Active; 'I' for Inactive)
REMARK    1  A    between atoms: C_1  and  C_2
REMARK    2  A    between atoms: C_18  and  C_20
REMARK                            x       y       z     vdW  Elec       q    Type
REMARK                         _______ _______ _______ _____ _____    ______ ____
ROOT
ATOM      1  C   UNL     1      -0.978  10.874  19.617  0.00  0.00    +0.000 C 
ATOM      2  C   UNL     1       0.511  10.827  19.991  0.00  0.00    +0.000 C 
ATOM      3  C   UNL     1       0.880   9.435  20.388  0.00  0.00    +0.000 A 
ATOM      4  N   UNL     1       0.453   8.837  21.537  0.00  0.00    +0.000 NA
ATOM      5  C   UNL     1       0.930   7.617  21.470  0.00  0.00    +0.000 A 
ATOM      6  N   UNL     1       1.662   7.378  20.320  0.00  0.00    +0.000 N 
ATOM      7  C   UNL     1       2.297   6.161  19.942  0.00  0.00    +0.000 A 
ATOM      8  C   UNL     1       2.155   5.014  20.728  0.00  0.00    +0.000 A 
ATOM      9  C   UNL     1       2.767   3.834  20.310  0.00  0.00    +0.000 A 
ATOM     10  C   UNL     1       3.498   3.827  19.135  0.00  0.00    +0.000 A 
ATOM     11  F   UNL     1       4.088   2.708  18.710  0.00  0.00    +0.000 F 
ATOM     12  C   UNL     1       3.599   4.997  18.407  0.00  0.00    +0.000 A 
ATOM     13  N   UNL     1       3.012   6.160  18.784  0.00  0.00    +0.000 NA
ATOM     14  C   UNL     1       1.625   8.568  19.622  0.00  0.00    +0.000 A 
ATOM     15  C   UNL     1       2.230   8.932  18.309  0.00  0.00    +0.000 C 
ATOM     16  C   UNL     1       1.572  10.235  17.785  0.00  0.00    +0.000 C 
ATOM     17  N   UNL     1       1.373  11.253  18.848  0.00  0.00    +0.000 N 
ATOM     18  C   UNL     1       2.039  12.487  18.721  0.00  0.00    +0.000 C 
ATOM     19  O   UNL     1       2.735  12.752  17.743  0.00  0.00    +0.000 OA
ENDROOT
BRANCH  18  20
ATOM     20  C   UNL     1       1.903  13.535  19.784  0.00  0.00    +0.000 A 
ATOM     21  C   UNL     1       2.862  13.578  20.804  0.00  0.00    +0.000 A 
ATOM     22  C   UNL     1       2.922  14.638  21.699  0.00  0.00    +0.000 A 
ATOM     23  C   UNL     1       1.920  15.591  21.679  0.00  0.00    +0.000 A 
ATOM     24  F   UNL     1       1.996  16.606  22.552  0.00  0.00    +0.000 F 
ATOM     25  C   UNL     1       0.851  15.486  20.785  0.00  0.00    +0.000 A 
ATOM     26 CL   UNL     1      -0.426  16.649  20.932  0.00  0.00    +0.000 Cl
ATOM     27  C   UNL     1       0.842  14.463  19.815  0.00  0.00    +0.000 A 
ATOM     28 CL   UNL     1      -0.465  14.389  18.675  0.00  0.00    +0.000 Cl
ENDBRANCH  18  20
TORSDOF 1
ENDMDL
MODEL 3
REMARK VINA RESULT:      -7.0      1.981      2.749
REMARK  Name = 
REMARK  2 active torsions:
REMARK  status: ('A' for Active; 'I' for Inactive)
REMARK    1  A    between atoms: C_1  and  C_2
REMARK    2  A    between atoms: C_18  and  C_20
REMARK                            x       y       z     vdW  Elec       q    Type
REMARK                         _______ _______ _______ _____ _____    ______ ____
ROOT
ATOM      1  C   UNL     1       1.773  12.461  20.640  0.00  0.00    +0.000 C 
ATOM      2  C   UNL     1       0.632  11.458  20.417  0.00  0.00    +0.000 C 
ATOM      3  C   UNL     1       1.119  10.333  19.564  0.00  0.00    +0.000 A 
ATOM      4  N   UNL     1       1.422  10.462  18.240  0.00  0.00    +0.000 NA
ATOM      5  C   UNL     1       1.877   9.282  17.890  0.00  0.00    +0.000 A 
ATOM      6  N   UNL     1       1.888   8.369  18.930  0.00  0.00    +0.000 N 
ATOM      7  C   UNL     1       2.331   7.017  18.883  0.00  0.00    +0.000 A 
ATOM      8  C   UNL     1       2.896   6.497  17.715  0.00  0.00    +0.000 A 
ATOM      9  C   UNL     1       3.346   5.179  17.717  0.00  0.00    +0.000 A 
ATOM     10  C   UNL     1       3.220   4.419  18.866  0.00  0.00    +0.000 A 
ATOM     11  F   UNL     1       3.649   3.155  18.895  0.00  0.00    +0.000 F 
ATOM     12  C   UNL     1       2.649   4.995  19.985  0.00  0.00    +0.000 A 
ATOM     13  N   UNL     1       2.207   6.275  20.017  0.00  0.00    +0.000 NA
ATOM     14  C   UNL     1       1.392   9.062  20.016  0.00  0.00    +0.000 A 
ATOM     15  C   UNL     1       1.166   8.615  21.420  0.00  0.00    +0.000 C 
ATOM     16  C   UNL     1       0.979   9.857  22.330  0.00  0.00    +0.000 C 
ATOM     17  N   UNL     1       0.130  10.907  21.712  0.00  0.00    +0.000 N 
ATOM     18  C   UNL     1      -1.075  11.252  22.353  0.00  0.00    +0.000 C 
ATOM     19  O   UNL     1      -1.412  10.742  23.419  0.00  0.00    +0.000 OA
ENDROOT
BRANCH  18  20
ATOM     20  C   UNL     1      -1.987  12.278  21.751  0.00  0.00    +0.000 A 
ATOM     21  C   UNL     1      -2.716  11.933  20.606  0.00  0.00    +0.000 A 
ATOM     22  C   UNL     1      -3.727  12.748  20.116  0.00  0.00    +0.000 A 
ATOM     23  C   UNL     1      -3.914  13.997  20.680  0.00  0.00    +0.000 A 
ATOM     24  F   UNL     1      -4.896  14.770  20.192  0.00  0.00    +0.000 F 
ATOM     25  C   UNL     1      -3.090  14.445  21.715  0.00  0.00    +0.000 A 
ATOM     26 CL   UNL     1      -3.311  16.077  22.258  0.00  0.00    +0.000 Cl
ATOM     27  C   UNL     1      -2.128  13.580  22.273  0.00  0.00    +0.000 A 
ATOM     28 CL   UNL     1      -1.157  14.137  23.601  0.00  0.00    +0.000 Cl
ENDBRANCH  18  20
TORSDOF 1
ENDMDL
MODEL 4
REMARK VINA RESULT:      -6.9      8.449     12.110
REMARK  Name = 
REMARK  2 active torsions:
REMARK  status: ('A' for Active; 'I' for Inactive)
REMARK    1  A    between atoms: C_1  and  C_2
REMARK    2  A    between atoms: C_18  and  C_20
REMARK                            x       y       z     vdW  Elec       q    Type
REMARK                         _______ _______ _______ _____ _____    ______ ____
ROOT
ATOM      1  C   UNL     1       7.237  15.830  21.868  0.00  0.00    +0.000 C 
ATOM      2  C   UNL     1       6.901  15.229  20.495  0.00  0.00    +0.000 C 
ATOM      3  C   UNL     1       5.418  15.155  20.334  0.00  0.00    +0.000 A 
ATOM      4  N   UNL     1       4.621  14.297  21.035  0.00  0.00    +0.000 NA
ATOM      5  C   UNL     1       3.402  14.600  20.659  0.00  0.00    +0.000 A 
ATOM      6  N   UNL     1       3.353  15.627  19.733  0.00  0.00    +0.000 N 
ATOM      7  C   UNL     1       2.190  16.197  19.140  0.00  0.00    +0.000 A 
ATOM      8  C   UNL     1       0.917  15.778  19.535  0.00  0.00    +0.000 A 
ATOM      9  C   UNL     1      -0.198  16.380  18.955  0.00  0.00    +0.000 A 
ATOM     10  C   UNL     1      -0.018  17.369  18.005  0.00  0.00    +0.000 A 
ATOM     11  F   UNL     1      -1.069  17.966  17.438  0.00  0.00    +0.000 F 
ATOM     12  C   UNL     1       1.270  17.733  17.659  0.00  0.00    +0.000 A 
ATOM     13  N   UNL     1       2.374  17.171  18.208  0.00  0.00    +0.000 NA
ATOM     14  C   UNL     1       4.671  15.981  19.526  0.00  0.00    +0.000 A 
ATOM     15  C   UNL     1       5.258  17.026  18.639  0.00  0.00    +0.000 C 
ATOM     16  C   UNL     1       6.726  17.293  19.064  0.00  0.00    +0.000 C 
ATOM     17  N   UNL     1       7.472  16.051  19.386  0.00  0.00    +0.000 N 
ATOM     18  C   UNL     1       8.599  15.730  18.606  0.00  0.00    +0.000 C 
ATOM     19  O   UNL     1       8.998  16.466  17.706  0.00  0.00    +0.000 OA
ENDROOT
BRANCH  18  20
ATOM     20  C   UNL     1       9.366  14.468  18.864  0.00  0.00    +0.000 A 
ATOM     21  C   UNL     1      10.542  14.546  19.621  0.00  0.00    +0.000 A 
ATOM     22  C   UNL     1      11.190  13.405  20.075  0.00  0.00    +0.000 A 
ATOM     23  C   UNL     1      10.751  12.167  19.642  0.00  0.00    +0.000 A 
ATOM     24  F   UNL     1      11.391  11.077  20.091  0.00  0.00    +0.000 F 
ATOM     25  C   UNL     1       9.684  12.060  18.746  0.00  0.00    +0.000 A 
ATOM     26 CL   UNL     1       9.300  10.477  18.152  0.00  0.00    +0.000 Cl
ATOM     27  C   UNL     1       8.968  13.212  18.362  0.00  0.00    +0.000 A 
ATOM     28 CL   UNL     1       7.607  13.048  17.298  0.00  0.00    +0.000 Cl
ENDBRANCH  18  20
TORSDOF 1
ENDMDL
MODEL 5
REMARK VINA RESULT:      -6.9      1.346      1.424
REMARK  Name = 
REMARK  2 active torsions:
REMARK  status: ('A' for Active; 'I' for Inactive)
REMARK    1  A    between atoms: C_1  and  C_2
REMARK    2  A    between atoms: C_18  and  C_20
REMARK                            x       y       z     vdW  Elec       q    Type
REMARK                         _______ _______ _______ _____ _____    ______ ____
ROOT
ATOM      1  C   UNL     1       0.524  13.472  21.379  0.00  0.00    +0.000 C 
ATOM      2  C   UNL     1      -0.513  12.433  20.928  0.00  0.00    +0.000 C 
ATOM      3  C   UNL     1       0.167  11.366  20.133  0.00  0.00    +0.000 A 
ATOM      4  N   UNL     1       0.685  11.563  18.887  0.00  0.00    +0.000 NA
ATOM      5  C   UNL     1       1.249  10.420  18.580  0.00  0.00    +0.000 A 
ATOM      6  N   UNL     1       1.126   9.465  19.574  0.00  0.00    +0.000 N 
ATOM      7  C   UNL     1       1.636   8.135  19.557  0.00  0.00    +0.000 A 
ATOM      8  C   UNL     1       2.417   7.690  18.487  0.00  0.00    +0.000 A 
ATOM      9  C   UNL     1       2.923   6.392  18.521  0.00  0.00    +0.000 A 
ATOM     10  C   UNL     1       2.639   5.580  19.604  0.00  0.00    +0.000 A 
ATOM     11  F   UNL     1       3.118   4.334  19.662  0.00  0.00    +0.000 F 
ATOM     12  C   UNL     1       1.859   6.084  20.627  0.00  0.00    +0.000 A 
ATOM     13  N   UNL     1       1.356   7.342  20.627  0.00  0.00    +0.000 NA
ATOM     14  C   UNL     1       0.419  10.090  20.581  0.00  0.00    +0.000 A 
ATOM     15  C   UNL     1      -0.021   9.574  21.909  0.00  0.00    +0.000 C 
ATOM     16  C   UNL     1      -0.420  10.768  22.816  0.00  0.00    +0.000 C 
ATOM     17  N   UNL     1      -1.201  11.807  22.097  0.00  0.00    +0.000 N 
ATOM     18  C   UNL     1      -2.513  12.074  22.533  0.00  0.00    +0.000 C 
ATOM     19  O   UNL     1      -3.002  11.506  23.506  0.00  0.00    +0.000 OA
ENDROOT
BRANCH  18  20
ATOM     20  C   UNL     1      -3.357  13.086  21.819  0.00  0.00    +0.000 A 
ATOM     21  C   UNL     1      -4.209  12.643  20.799  0.00  0.00    +0.000 A 
ATOM     22  C   UNL     1      -5.165  13.478  20.237  0.00  0.00    +0.000 A 
ATOM     23  C   UNL     1      -5.173  14.817  20.585  0.00  0.00    +0.000 A 
ATOM     24  F   UNL     1      -6.105  15.608  20.031  0.00  0.00    +0.000 F 
ATOM     25  C   UNL     1      -4.225  15.331  21.473  0.00  0.00    +0.000 A 
ATOM     26 CL   UNL     1      -4.228  17.045  21.735  0.00  0.00    +0.000 Cl
ATOM     27  C   UNL     1      -3.317  14.464  22.113  0.00  0.00    +0.000 A 
ATOM     28 CL   UNL     1      -2.188  15.116  23.260  0.00  0.00    +0.000 Cl
ENDBRANCH  18  20
TORSDOF 1
ENDMDL
MODEL 6
REMARK VINA RESULT:      -6.8      1.419      1.668
REMARK  Name = 
REMARK  2 active torsions:
REMARK  status: ('A' for Active; 'I' for Inactive)
REMARK    1  A    between atoms: C_1  and  C_2
REMARK    2  A    between atoms: C_18  and  C_20
REMARK                            x       y       z     vdW  Elec       q    Type
REMARK                         _______ _______ _______ _____ _____    ______ ____
ROOT
ATOM      1  C   UNL     1      -0.738  14.734  21.743  0.00  0.00    +0.000 C 
ATOM      2  C   UNL     1      -1.633  13.589  21.248  0.00  0.00    +0.000 C 
ATOM      3  C   UNL     1      -0.865  12.735  20.293  0.00  0.00    +0.000 A 
ATOM      4  N   UNL     1      -0.493  13.141  19.045  0.00  0.00    +0.000 NA
ATOM      5  C   UNL     1       0.214  12.143  18.572  0.00  0.00    +0.000 A 
ATOM      6  N   UNL     1       0.329  11.085  19.457  0.00  0.00    +0.000 N 
ATOM      7  C   UNL     1       1.038   9.867  19.254  0.00  0.00    +0.000 A 
ATOM      8  C   UNL     1       1.784   9.667  18.089  0.00  0.00    +0.000 A 
ATOM      9  C   UNL     1       2.488   8.474  17.940  0.00  0.00    +0.000 A 
ATOM     10  C   UNL     1       2.429   7.521  18.941  0.00  0.00    +0.000 A 
ATOM     11  F   UNL     1       3.100   6.372  18.825  0.00  0.00    +0.000 F 
ATOM     12  C   UNL     1       1.670   7.782  20.065  0.00  0.00    +0.000 A 
ATOM     13  N   UNL     1       0.977   8.934  20.243  0.00  0.00    +0.000 NA
ATOM     14  C   UNL     1      -0.379  11.479  20.574  0.00  0.00    +0.000 A 
ATOM     15  C   UNL     1      -0.618  10.766  21.862  0.00  0.00    +0.000 C 
ATOM     16  C   UNL     1      -1.120  11.780  22.923  0.00  0.00    +0.000 C 
ATOM     17  N   UNL     1      -2.112  12.743  22.383  0.00  0.00    +0.000 N 
ATOM     18  C   UNL     1      -3.408  12.744  22.934  0.00  0.00    +0.000 C 
ATOM     19  O   UNL     1      -3.717  12.008  23.867  0.00  0.00    +0.000 OA
ENDROOT
BRANCH  18  20
ATOM     20  C   UNL     1      -4.458  13.670  22.399  0.00  0.00    +0.000 A 
ATOM     21  C   UNL     1      -4.882  14.735  23.204  0.00  0.00    +0.000 A 
ATOM     22  C   UNL     1      -5.691  15.746  22.704  0.00  0.00    +0.000 A 
ATOM     23  C   UNL     1      -6.214  15.618  21.430  0.00  0.00    +0.000 A 
ATOM     24  F   UNL     1      -6.994  16.606  20.966  0.00  0.00    +0.000 F 
ATOM     25  C   UNL     1      -5.951  14.483  20.659  0.00  0.00    +0.000 A 
ATOM     26 CL   UNL     1      -6.766  14.350  19.134  0.00  0.00    +0.000 Cl
ATOM     27  C   UNL     1      -5.054  13.504  21.131  0.00  0.00    +0.000 A 
ATOM     28 CL   UNL     1      -4.694  12.132  20.130  0.00  0.00    +0.000 Cl
ENDBRANCH  18  20
TORSDOF 1
ENDMDL
MODEL 7
REMARK VINA RESULT:      -6.7      3.325      4.506
REMARK  Name = 
REMARK  2 active torsions:
REMARK  status: ('A' for Active; 'I' for Inactive)
REMARK    1  A    between atoms: C_1  and  C_2
REMARK    2  A    between atoms: C_18  and  C_20
REMARK                            x       y       z     vdW  Elec       q    Type
REMARK                         _______ _______ _______ _____ _____    ______ ____
ROOT
ATOM      1  C   UNL     1      -3.131  12.239  23.059  0.00  0.00    +0.000 C 
ATOM      2  C   UNL     1      -1.690  12.719  22.833  0.00  0.00    +0.000 C 
ATOM      3  C   UNL     1      -0.824  11.550  22.496  0.00  0.00    +0.000 A 
ATOM      4  N   UNL     1      -0.484  10.576  23.390  0.00  0.00    +0.000 NA
ATOM      5  C   UNL     1       0.210   9.713  22.687  0.00  0.00    +0.000 A 
ATOM      6  N   UNL     1       0.347  10.073  21.358  0.00  0.00    +0.000 N 
ATOM      7  C   UNL     1       1.026   9.349  20.336  0.00  0.00    +0.000 A 
ATOM      8  C   UNL     1       1.581   8.095  20.607  0.00  0.00    +0.000 A 
ATOM      9  C   UNL     1       2.211   7.404  19.573  0.00  0.00    +0.000 A 
ATOM     10  C   UNL     1       2.275   7.974  18.315  0.00  0.00    +0.000 A 
ATOM     11  F   UNL     1       2.868   7.330  17.307  0.00  0.00    +0.000 F 
ATOM     12  C   UNL     1       1.707   9.219  18.118  0.00  0.00    +0.000 A 
ATOM     13  N   UNL     1       1.083   9.914  19.100  0.00  0.00    +0.000 NA
ATOM     14  C   UNL     1      -0.328  11.271  21.243  0.00  0.00    +0.000 A 
ATOM     15  C   UNL     1      -0.534  12.149  20.056  0.00  0.00    +0.000 C 
ATOM     16  C   UNL     1      -1.680  13.152  20.352  0.00  0.00    +0.000 C 
ATOM     17  N   UNL     1      -1.616  13.717  21.724  0.00  0.00    +0.000 N 
ATOM     18  C   UNL     1      -1.443  15.107  21.864  0.00  0.00    +0.000 C 
ATOM     19  O   UNL     1      -1.388  15.856  20.891  0.00  0.00    +0.000 OA
ENDROOT
BRANCH  18  20
ATOM     20  C   UNL     1      -1.334  15.724  23.225  0.00  0.00    +0.000 A 
ATOM     21  C   UNL     1      -2.488  15.802  24.016  0.00  0.00    +0.000 A 
ATOM     22  C   UNL     1      -2.427  16.166  25.355  0.00  0.00    +0.000 A 
ATOM     23  C   UNL     1      -1.225  16.609  25.875  0.00  0.00    +0.000 A 
ATOM     24  F   UNL     1      -1.187  16.957  27.170  0.00  0.00    +0.000 F 
ATOM     25  C   UNL     1      -0.089  16.709  25.068  0.00  0.00    +0.000 A 
ATOM     26 CL   UNL     1       1.331  17.408  25.775  0.00  0.00    +0.000 Cl
ATOM     27  C   UNL     1      -0.129  16.249  23.736  0.00  0.00    +0.000 A 
ATOM     28 CL   UNL     1       1.311  16.324  22.770  0.00  0.00    +0.000 Cl
ENDBRANCH  18  20
TORSDOF 1
ENDMDL
MODEL 8
REMARK VINA RESULT:      -6.7      5.761     10.649
REMARK  Name = 
REMARK  2 active torsions:
REMARK  status: ('A' for Active; 'I' for Inactive)
REMARK    1  A    between atoms: C_1  and  C_2
REMARK    2  A    between atoms: C_18  and  C_20
REMARK                            x       y       z     vdW  Elec       q    Type
REMARK                         _______ _______ _______ _____ _____    ______ ____
ROOT
ATOM      1  C   UNL     1       1.429   6.281  17.267  0.00  0.00    +0.000 C 
ATOM      2  C   UNL     1       2.384   6.841  18.332  0.00  0.00    +0.000 C 
ATOM      3  C   UNL     1       1.914   8.192  18.759  0.00  0.00    +0.000 A 
ATOM      4  N   UNL     1       1.965   9.299  17.964  0.00  0.00    +0.000 NA
ATOM      5  C   UNL     1       1.396  10.243  18.676  0.00  0.00    +0.000 A 
ATOM      6  N   UNL     1       0.968   9.808  19.919  0.00  0.00    +0.000 N 
ATOM      7  C   UNL     1       0.306  10.577  20.918  0.00  0.00    +0.000 A 
ATOM      8  C   UNL     1      -0.051  11.905  20.669  0.00  0.00    +0.000 A 
ATOM      9  C   UNL     1      -0.725  12.615  21.660  0.00  0.00    +0.000 A 
ATOM     10  C   UNL     1      -1.019  11.994  22.860  0.00  0.00    +0.000 A 
ATOM     11  F   UNL     1      -1.669  12.652  23.824  0.00  0.00    +0.000 F 
ATOM     12  C   UNL     1      -0.635  10.679  23.041  0.00  0.00    +0.000 A 
ATOM     13  N   UNL     1       0.017   9.959  22.095  0.00  0.00    +0.000 NA
ATOM     14  C   UNL     1       1.311   8.472  19.965  0.00  0.00    +0.000 A 
ATOM     15  C   UNL     1       1.109   7.464  21.045  0.00  0.00    +0.000 C 
ATOM     16  C   UNL     1       1.301   6.040  20.459  0.00  0.00    +0.000 C 
ATOM     17  N   UNL     1       2.452   5.946  19.526  0.00  0.00    +0.000 N 
ATOM     18  C   UNL     1       3.512   5.082  19.861  0.00  0.00    +0.000 C 
ATOM     19  O   UNL     1       3.485   4.383  20.871  0.00  0.00    +0.000 OA
ENDROOT
BRANCH  18  20
ATOM     20  C   UNL     1       4.715   4.979  18.973  0.00  0.00    +0.000 A 
ATOM     21  C   UNL     1       5.896   5.616  19.374  0.00  0.00    +0.000 A 
ATOM     22  C   UNL     1       7.100   5.396  18.717  0.00  0.00    +0.000 A 
ATOM     23  C   UNL     1       7.100   4.652  17.550  0.00  0.00    +0.000 A 
ATOM     24  F   UNL     1       8.272   4.451  16.930  0.00  0.00    +0.000 F 
ATOM     25  C   UNL     1       5.908   4.143  17.026  0.00  0.00    +0.000 A 
ATOM     26 CL   UNL     1       5.993   3.347  15.488  0.00  0.00    +0.000 Cl
ATOM     27  C   UNL     1       4.705   4.287  17.744  0.00  0.00    +0.000 A 
ATOM     28 CL   UNL     1       3.248   3.593  17.104  0.00  0.00    +0.000 Cl
ENDBRANCH  18  20
TORSDOF 1
ENDMDL
MODEL 9
REMARK VINA RESULT:      -6.7      3.978      5.580
REMARK  Name = 
REMARK  2 active torsions:
REMARK  status: ('A' for Active; 'I' for Inactive)
REMARK    1  A    between atoms: C_1  and  C_2
REMARK    2  A    between atoms: C_18  and  C_20
REMARK                            x       y       z     vdW  Elec       q    Type
REMARK                         _______ _______ _______ _____ _____    ______ ____
ROOT
ATOM      1  C   UNL     1      -2.157  11.848  23.400  0.00  0.00    +0.000 C 
ATOM      2  C   UNL     1      -1.891  12.889  22.301  0.00  0.00    +0.000 C 
ATOM      3  C   UNL     1      -1.684  12.192  20.997  0.00  0.00    +0.000 A 
ATOM      4  N   UNL     1      -0.587  11.434  20.708  0.00  0.00    +0.000 NA
ATOM      5  C   UNL     1      -0.827  10.949  19.513  0.00  0.00    +0.000 A 
ATOM      6  N   UNL     1      -2.043  11.354  18.992  0.00  0.00    +0.000 N 
ATOM      7  C   UNL     1      -2.602  10.995  17.732  0.00  0.00    +0.000 A 
ATOM      8  C   UNL     1      -1.946  10.082  16.902  0.00  0.00    +0.000 A 
ATOM      9  C   UNL     1      -2.539   9.733  15.690  0.00  0.00    +0.000 A 
ATOM     10  C   UNL     1      -3.752  10.297  15.340  0.00  0.00    +0.000 A 
ATOM     11  F   UNL     1      -4.344   9.974  14.187  0.00  0.00    +0.000 F 
ATOM     12  C   UNL     1      -4.344  11.195  16.207  0.00  0.00    +0.000 A 
ATOM     13  N   UNL     1      -3.796  11.552  17.394  0.00  0.00    +0.000 NA
ATOM     14  C   UNL     1      -2.594  12.165  19.964  0.00  0.00    +0.000 A 
ATOM     15  C   UNL     1      -3.893  12.896  19.984  0.00  0.00    +0.000 C 
ATOM     16  C   UNL     1      -4.217  13.325  21.439  0.00  0.00    +0.000 C 
ATOM     17  N   UNL     1      -3.032  13.844  22.169  0.00  0.00    +0.000 N 
ATOM     18  C   UNL     1      -3.059  15.178  22.619  0.00  0.00    +0.000 C 
ATOM     19  O   UNL     1      -4.043  15.897  22.462  0.00  0.00    +0.000 OA
ENDROOT
BRANCH  18  20
ATOM     20  C   UNL     1      -1.874  15.763  23.327  0.00  0.00    +0.000 A 
ATOM     21  C   UNL     1      -0.888  16.400  22.562  0.00  0.00    +0.000 A 
ATOM     22  C   UNL     1       0.125  17.141  23.156  0.00  0.00    +0.000 A 
ATOM     23  C   UNL     1       0.251  17.121  24.534  0.00  0.00    +0.000 A 
ATOM     24  F   UNL     1       1.236  17.843  25.088  0.00  0.00    +0.000 F 
ATOM     25  C   UNL     1      -0.614  16.356  25.320  0.00  0.00    +0.000 A 
ATOM     26 CL   UNL     1      -0.287  16.284  27.022  0.00  0.00    +0.000 Cl
ATOM     27  C   UNL     1      -1.698  15.682  24.723  0.00  0.00    +0.000 A 
ATOM     28 CL   UNL     1      -2.796  14.788  25.728  0.00  0.00    +0.000 Cl
ENDBRANCH  18  20
TORSDOF 1
ENDMDL
