MODEL 1
REMARK VINA RESULT:      -9.0      0.000      0.000
REMARK  Name = 
REMARK  12 active torsions:
REMARK  status: ('A' for Active; 'I' for Inactive)
REMARK    1  A    between atoms: C_1  and  O_2
REMARK    2  A    between atoms: O_2  and  C_3
REMARK    3  A    between atoms: C_5  and  N_6
REMARK    4  A    between atoms: N_6  and  C_7
REMARK    5  A    between atoms: C_8  and  C_9
REMARK    6  A    between atoms: C_9  and  C_11
REMARK    7  A    between atoms: N_13  and  C_14
REMARK    8  A    between atoms: C_21  and  C_22
REMARK    9  A    between atoms: C_30  and  O_31
REMARK   10  A    between atoms: O_31  and  C_32
REMARK   11  A    between atoms: C_33  and  O_34
REMARK   12  A    between atoms: O_34  and  C_35
REMARK                            x       y       z     vdW  Elec       q    Type
REMARK                         _______ _______ _______ _____ _____    ______ ____
ROOT
ATOM      1  C   UNL     1       6.620   6.934  17.386  0.00  0.00    +0.000 C 
ATOM      2  O   UNL     1       6.539   7.891  16.628  0.00  0.00    +0.000 OA
ENDROOT
BRANCH   1   3
ATOM      3  C   UNL     1       5.581   5.927  17.510  0.00  0.00    +0.000 A 
ATOM      4  C   UNL     1       4.699   5.730  18.556  0.00  0.00    +0.000 A 
ATOM      5  N   UNL     1       3.917   4.643  18.241  0.00  0.00    +0.000 N 
ATOM      6  N   UNL     1       4.283   4.102  17.058  0.00  0.00    +0.000 NA
ATOM      7  C   UNL     1       5.255   4.888  16.582  0.00  0.00    +0.000 A 
BRANCH   7   8
ATOM      8  C   UNL     1       5.844   4.641  15.265  0.00  0.00    +0.000 A 
ATOM      9  C   UNL     1       5.124   3.961  14.268  0.00  0.00    +0.000 A 
ATOM     10  C   UNL     1       5.652   3.803  12.989  0.00  0.00    +0.000 A 
ATOM     11  C   UNL     1       6.922   4.286  12.721  0.00  0.00    +0.000 A 
ATOM     12  F   UNL     1       7.435   4.149  11.491  0.00  0.00    +0.000 F 
ATOM     13  C   UNL     1       7.676   4.921  13.704  0.00  0.00    +0.000 A 
ATOM     14  C   UNL     1       7.136   5.099  14.980  0.00  0.00    +0.000 A 
ENDBRANCH   7   8
BRANCH   5  15
ATOM     15  C   UNL     1       2.847   4.095  19.005  0.00  0.00    +0.000 A 
ATOM     16  C   UNL     1       2.728   4.371  20.375  0.00  0.00    +0.000 A 
ATOM     17  C   UNL     1       1.685   3.820  21.112  0.00  0.00    +0.000 A 
ATOM     18  C   UNL     1       0.758   2.983  20.498  0.00  0.00    +0.000 A 
ATOM     19  C   UNL     1       0.861   2.708  19.134  0.00  0.00    +0.000 A 
ATOM     20  C   UNL     1       1.897   3.267  18.384  0.00  0.00    +0.000 A 
ENDBRANCH   5  15
ENDBRANCH   1   3
BRANCH   1  22
ATOM     21  C   UNL     1       8.557   7.796  18.629  0.00  0.00    +0.000 C 
ATOM     22  C   UNL     1       7.776   6.759  18.295  0.00  0.00    +0.000 C 
BRANCH  21  23
ATOM     23  N   UNL     1       8.407   9.127  18.328  0.00  0.00    +0.000 N 
ATOM     24  H   UNL     1       7.840   9.325  17.497  0.00  0.00    +0.000 HD
BRANCH  23  27
ATOM     25  C   UNL     1       9.864  11.748  20.567  0.00  0.00    +0.000 A 
ATOM     26  C   UNL     1       9.016  10.737  20.077  0.00  0.00    +0.000 A 
ATOM     27  C   UNL     1       9.155  10.219  18.796  0.00  0.00    +0.000 A 
ATOM     28  C   UNL     1      10.044  10.869  17.940  0.00  0.00    +0.000 A 
ATOM     29  C   UNL     1      10.830  11.958  18.363  0.00  0.00    +0.000 A 
ATOM     30  C   UNL     1      10.768  12.398  19.703  0.00  0.00    +0.000 A 
BRANCH  25  32
ATOM     31  C   UNL     1       8.462  12.321  22.383  0.00  0.00    +0.000 C 
ATOM     32  O   UNL     1       9.789  12.093  21.895  0.00  0.00    +0.000 OA
ENDBRANCH  25  32
BRANCH  29  33
ATOM     33  O   UNL     1      11.615  12.431  17.338  0.00  0.00    +0.000 OA
ATOM     34  C   UNL     1      11.221  13.592  16.625  0.00  0.00    +0.000 C 
ENDBRANCH  29  33
BRANCH  30  35
ATOM     35  O   UNL     1      11.606  13.425  20.031  0.00  0.00    +0.000 OA
ATOM     36  C   UNL     1      11.133  14.750  20.193  0.00  0.00    +0.000 C 
ENDBRANCH  30  35
ENDBRANCH  23  27
ENDBRANCH  21  23
ENDBRANCH   1  22
TORSDOF 9
ENDMDL
MODEL 2
REMARK VINA RESULT:      -9.0      1.051      2.562
REMARK  Name = 
REMARK  12 active torsions:
REMARK  status: ('A' for Active; 'I' for Inactive)
REMARK    1  A    between atoms: C_1  and  O_2
REMARK    2  A    between atoms: O_2  and  C_3
REMARK    3  A    between atoms: C_5  and  N_6
REMARK    4  A    between atoms: N_6  and  C_7
REMARK    5  A    between atoms: C_8  and  C_9
REMARK    6  A    between atoms: C_9  and  C_11
REMARK    7  A    between atoms: N_13  and  C_14
REMARK    8  A    between atoms: C_21  and  C_22
REMARK    9  A    between atoms: C_30  and  O_31
REMARK   10  A    between atoms: O_31  and  C_32
REMARK   11  A    between atoms: C_33  and  O_34
REMARK   12  A    between atoms: O_34  and  C_35
REMARK                            x       y       z     vdW  Elec       q    Type
REMARK                         _______ _______ _______ _____ _____    ______ ____
ROOT
ATOM      1  C   UNL     1       7.275   6.378  18.261  0.00  0.00    +0.000 C 
ATOM      2  O   UNL     1       8.285   6.170  18.921  0.00  0.00    +0.000 OA
ENDROOT
BRANCH   1   3
ATOM      3  C   UNL     1       6.096   5.533  18.323  0.00  0.00    +0.000 A 
ATOM      4  C   UNL     1       5.277   5.283  19.408  0.00  0.00    +0.000 A 
ATOM      5  N   UNL     1       4.304   4.401  18.999  0.00  0.00    +0.000 N 
ATOM      6  N   UNL     1       4.481   4.037  17.710  0.00  0.00    +0.000 NA
ATOM      7  C   UNL     1       5.531   4.742  17.273  0.00  0.00    +0.000 A 
BRANCH   7   8
ATOM      8  C   UNL     1       5.968   4.655  15.878  0.00  0.00    +0.000 A 
ATOM      9  C   UNL     1       7.291   4.961  15.516  0.00  0.00    +0.000 A 
ATOM     10  C   UNL     1       7.726   4.796  14.204  0.00  0.00    +0.000 A 
ATOM     11  C   UNL     1       6.825   4.367  13.244  0.00  0.00    +0.000 A 
ATOM     12  F   UNL     1       7.237   4.193  11.981  0.00  0.00    +0.000 F 
ATOM     13  C   UNL     1       5.497   4.102  13.567  0.00  0.00    +0.000 A 
ATOM     14  C   UNL     1       5.066   4.247  14.888  0.00  0.00    +0.000 A 
ENDBRANCH   7   8
BRANCH   5  15
ATOM     15  C   UNL     1       3.219   3.890  19.769  0.00  0.00    +0.000 A 
ATOM     16  C   UNL     1       1.915   4.370  19.579  0.00  0.00    +0.000 A 
ATOM     17  C   UNL     1       0.867   3.871  20.344  0.00  0.00    +0.000 A 
ATOM     18  C   UNL     1       1.106   2.899  21.312  0.00  0.00    +0.000 A 
ATOM     19  C   UNL     1       2.397   2.408  21.505  0.00  0.00    +0.000 A 
ATOM     20  C   UNL     1       3.453   2.894  20.732  0.00  0.00    +0.000 A 
ENDBRANCH   5  15
ENDBRANCH   1   3
BRANCH   1  22
ATOM     21  C   UNL     1       7.787   8.669  17.533  0.00  0.00    +0.000 C 
ATOM     22  C   UNL     1       7.201   7.489  17.285  0.00  0.00    +0.000 C 
BRANCH  21  23
ATOM     23  N   UNL     1       8.596   9.032  18.582  0.00  0.00    +0.000 N 
ATOM     24  H   UNL     1       8.641   8.357  19.351  0.00  0.00    +0.000 HD
BRANCH  23  27
ATOM     25  C   UNL     1       9.950  12.504  18.239  0.00  0.00    +0.000 A 
ATOM     26  C   UNL     1       9.556  11.192  17.919  0.00  0.00    +0.000 A 
ATOM     27  C   UNL     1       9.112  10.301  18.889  0.00  0.00    +0.000 A 
ATOM     28  C   UNL     1       9.253  10.689  20.220  0.00  0.00    +0.000 A 
ATOM     29  C   UNL     1       9.750  11.956  20.583  0.00  0.00    +0.000 A 
ATOM     30  C   UNL     1      10.083  12.898  19.586  0.00  0.00    +0.000 A 
BRANCH  25  32
ATOM     31  C   UNL     1      11.523  13.289  16.658  0.00  0.00    +0.000 C 
ATOM     32  O   UNL     1      10.209  13.388  17.219  0.00  0.00    +0.000 OA
ENDBRANCH  25  32
BRANCH  29  33
ATOM     33  O   UNL     1       9.803  12.096  21.950  0.00  0.00    +0.000 OA
ATOM     34  C   UNL     1       8.618  12.375  22.678  0.00  0.00    +0.000 C 
ENDBRANCH  29  33
BRANCH  30  35
ATOM     35  O   UNL     1      10.506  14.117  20.036  0.00  0.00    +0.000 OA
ATOM     36  C   UNL     1      11.876  14.471  20.049  0.00  0.00    +0.000 C 
ENDBRANCH  30  35
ENDBRANCH  23  27
ENDBRANCH  21  23
ENDBRANCH   1  22
TORSDOF 9
ENDMDL
MODEL 3
REMARK VINA RESULT:      -8.8      0.882      1.450
REMARK  Name = 
REMARK  12 active torsions:
REMARK  status: ('A' for Active; 'I' for Inactive)
REMARK    1  A    between atoms: C_1  and  O_2
REMARK    2  A    between atoms: O_2  and  C_3
REMARK    3  A    between atoms: C_5  and  N_6
REMARK    4  A    between atoms: N_6  and  C_7
REMARK    5  A    between atoms: C_8  and  C_9
REMARK    6  A    between atoms: C_9  and  C_11
REMARK    7  A    between atoms: N_13  and  C_14
REMARK    8  A    between atoms: C_21  and  C_22
REMARK    9  A    between atoms: C_30  and  O_31
REMARK   10  A    between atoms: O_31  and  C_32
REMARK   11  A    between atoms: C_33  and  O_34
REMARK   12  A    between atoms: O_34  and  C_35
REMARK                            x       y       z     vdW  Elec       q    Type
REMARK                         _______ _______ _______ _____ _____    ______ ____
ROOT
ATOM      1  C   UNL     1       7.173   6.380  18.149  0.00  0.00    +0.000 C 
ATOM      2  O   UNL     1       8.202   6.133  18.762  0.00  0.00    +0.000 OA
ENDROOT
BRANCH   1   3
ATOM      3  C   UNL     1       6.003   5.520  18.178  0.00  0.00    +0.000 A 
ATOM      4  C   UNL     1       5.158   5.259  19.239  0.00  0.00    +0.000 A 
ATOM      5  N   UNL     1       4.207   4.365  18.803  0.00  0.00    +0.000 N 
ATOM      6  N   UNL     1       4.426   4.004  17.519  0.00  0.00    +0.000 NA
ATOM      7  C   UNL     1       5.479   4.723  17.112  0.00  0.00    +0.000 A 
BRANCH   7   8
ATOM      8  C   UNL     1       5.955   4.642  15.730  0.00  0.00    +0.000 A 
ATOM      9  C   UNL     1       7.251   5.064  15.388  0.00  0.00    +0.000 A 
ATOM     10  C   UNL     1       7.732   4.907  14.091  0.00  0.00    +0.000 A 
ATOM     11  C   UNL     1       6.900   4.369  13.124  0.00  0.00    +0.000 A 
ATOM     12  F   UNL     1       7.357   4.203  11.876  0.00  0.00    +0.000 F 
ATOM     13  C   UNL     1       5.595   3.987  13.425  0.00  0.00    +0.000 A 
ATOM     14  C   UNL     1       5.121   4.124  14.732  0.00  0.00    +0.000 A 
ENDBRANCH   7   8
BRANCH   5  15
ATOM     15  C   UNL     1       3.108   3.839  19.541  0.00  0.00    +0.000 A 
ATOM     16  C   UNL     1       1.894   3.540  18.906  0.00  0.00    +0.000 A 
ATOM     17  C   UNL     1       0.825   3.038  19.641  0.00  0.00    +0.000 A 
ATOM     18  C   UNL     1       0.949   2.839  21.013  0.00  0.00    +0.000 A 
ATOM     19  C   UNL     1       2.154   3.125  21.655  0.00  0.00    +0.000 A 
ATOM     20  C   UNL     1       3.237   3.617  20.923  0.00  0.00    +0.000 A 
ENDBRANCH   5  15
ENDBRANCH   1   3
BRANCH   1  22
ATOM     21  C   UNL     1       7.705   8.704  17.548  0.00  0.00    +0.000 C 
ATOM     22  C   UNL     1       7.061   7.563  17.265  0.00  0.00    +0.000 C 
BRANCH  21  23
ATOM     23  N   UNL     1       8.606   8.964  18.552  0.00  0.00    +0.000 N 
ATOM     24  H   UNL     1       8.724   8.212  19.238  0.00  0.00    +0.000 HD
BRANCH  23  27
ATOM     25  C   UNL     1       9.778  11.834  20.648  0.00  0.00    +0.000 A 
ATOM     26  C   UNL     1       9.123  10.652  20.257  0.00  0.00    +0.000 A 
ATOM     27  C   UNL     1       9.143  10.201  18.944  0.00  0.00    +0.000 A 
ATOM     28  C   UNL     1       9.675  11.061  17.984  0.00  0.00    +0.000 A 
ATOM     29  C   UNL     1      10.241  12.306  18.324  0.00  0.00    +0.000 A 
ATOM     30  C   UNL     1      10.323  12.699  19.678  0.00  0.00    +0.000 A 
BRANCH  25  32
ATOM     31  C   UNL     1       8.649  12.579  22.587  0.00  0.00    +0.000 C 
ATOM     32  O   UNL     1       9.870  12.133  21.986  0.00  0.00    +0.000 OA
ENDBRANCH  25  32
BRANCH  29  33
ATOM     33  O   UNL     1      10.685  12.970  17.206  0.00  0.00    +0.000 OA
ATOM     34  C   UNL     1      12.078  13.122  16.981  0.00  0.00    +0.000 C 
ENDBRANCH  29  33
BRANCH  30  35
ATOM     35  O   UNL     1      10.936  13.897  19.912  0.00  0.00    +0.000 OA
ATOM     36  C   UNL     1      10.200  15.102  20.013  0.00  0.00    +0.000 C 
ENDBRANCH  30  35
ENDBRANCH  23  27
ENDBRANCH  21  23
ENDBRANCH   1  22
TORSDOF 9
ENDMDL
MODEL 4
REMARK VINA RESULT:      -8.8      0.881      2.424
REMARK  Name = 
REMARK  12 active torsions:
REMARK  status: ('A' for Active; 'I' for Inactive)
REMARK    1  A    between atoms: C_1  and  O_2
REMARK    2  A    between atoms: O_2  and  C_3
REMARK    3  A    between atoms: C_5  and  N_6
REMARK    4  A    between atoms: N_6  and  C_7
REMARK    5  A    between atoms: C_8  and  C_9
REMARK    6  A    between atoms: C_9  and  C_11
REMARK    7  A    between atoms: N_13  and  C_14
REMARK    8  A    between atoms: C_21  and  C_22
REMARK    9  A    between atoms: C_30  and  O_31
REMARK   10  A    between atoms: O_31  and  C_32
REMARK   11  A    between atoms: C_33  and  O_34
REMARK   12  A    between atoms: O_34  and  C_35
REMARK                            x       y       z     vdW  Elec       q    Type
REMARK                         _______ _______ _______ _____ _____    ______ ____
ROOT
ATOM      1  C   UNL     1       7.236   6.397  18.172  0.00  0.00    +0.000 C 
ATOM      2  O   UNL     1       8.251   6.172  18.817  0.00  0.00    +0.000 OA
ENDROOT
BRANCH   1   3
ATOM      3  C   UNL     1       6.074   5.525  18.186  0.00  0.00    +0.000 A 
ATOM      4  C   UNL     1       5.199   5.282  19.227  0.00  0.00    +0.000 A 
ATOM      5  N   UNL     1       4.271   4.368  18.785  0.00  0.00    +0.000 N 
ATOM      6  N   UNL     1       4.533   3.977  17.518  0.00  0.00    +0.000 NA
ATOM      7  C   UNL     1       5.591   4.696  17.125  0.00  0.00    +0.000 A 
BRANCH   7   8
ATOM      8  C   UNL     1       6.111   4.586  15.761  0.00  0.00    +0.000 A 
ATOM      9  C   UNL     1       5.383   3.916  14.763  0.00  0.00    +0.000 A 
ATOM     10  C   UNL     1       5.838   3.887  13.447  0.00  0.00    +0.000 A 
ATOM     11  C   UNL     1       7.046   4.489  13.140  0.00  0.00    +0.000 A 
ATOM     12  F   UNL     1       7.487   4.476  11.874  0.00  0.00    +0.000 F 
ATOM     13  C   UNL     1       7.811   5.118  14.118  0.00  0.00    +0.000 A 
ATOM     14  C   UNL     1       7.342   5.167  15.433  0.00  0.00    +0.000 A 
ENDBRANCH   7   8
BRANCH   5  15
ATOM     15  C   UNL     1       3.155   3.849  19.502  0.00  0.00    +0.000 A 
ATOM     16  C   UNL     1       2.181   3.075  18.853  0.00  0.00    +0.000 A 
ATOM     17  C   UNL     1       1.091   2.585  19.562  0.00  0.00    +0.000 A 
ATOM     18  C   UNL     1       0.950   2.867  20.918  0.00  0.00    +0.000 A 
ATOM     19  C   UNL     1       1.916   3.629  21.576  0.00  0.00    +0.000 A 
ATOM     20  C   UNL     1       3.022   4.115  20.875  0.00  0.00    +0.000 A 
ENDBRANCH   5  15
ENDBRANCH   1   3
BRANCH   1  22
ATOM     21  C   UNL     1       7.714   8.732  17.569  0.00  0.00    +0.000 C 
ATOM     22  C   UNL     1       7.136   7.561  17.263  0.00  0.00    +0.000 C 
BRANCH  21  23
ATOM     23  N   UNL     1       8.536   9.042  18.625  0.00  0.00    +0.000 N 
ATOM     24  H   UNL     1       8.501   8.387  19.412  0.00  0.00    +0.000 HD
BRANCH  23  27
ATOM     25  C   UNL     1      10.272  12.333  18.222  0.00  0.00    +0.000 A 
ATOM     26  C   UNL     1       9.756  11.056  17.933  0.00  0.00    +0.000 A 
ATOM     27  C   UNL     1       9.169  10.263  18.910  0.00  0.00    +0.000 A 
ATOM     28  C   UNL     1       9.279  10.694  20.231  0.00  0.00    +0.000 A 
ATOM     29  C   UNL     1       9.890  11.918  20.571  0.00  0.00    +0.000 A 
ATOM     30  C   UNL     1      10.375  12.772  19.558  0.00  0.00    +0.000 A 
BRANCH  25  32
ATOM     31  C   UNL     1      12.096  13.192  16.988  0.00  0.00    +0.000 C 
ATOM     32  O   UNL     1      10.678  13.137  17.185  0.00  0.00    +0.000 OA
ENDBRANCH  25  32
BRANCH  29  33
ATOM     33  O   UNL     1       9.884  12.113  21.932  0.00  0.00    +0.000 OA
ATOM     34  C   UNL     1       8.754  12.702  22.556  0.00  0.00    +0.000 C 
ENDBRANCH  29  33
BRANCH  30  35
ATOM     35  O   UNL     1      10.901  13.959  19.983  0.00  0.00    +0.000 OA
ATOM     36  C   UNL     1      10.134  15.148  20.003  0.00  0.00    +0.000 C 
ENDBRANCH  30  35
ENDBRANCH  23  27
ENDBRANCH  21  23
ENDBRANCH   1  22
TORSDOF 9
ENDMDL
MODEL 5
REMARK VINA RESULT:      -8.7      6.102      9.551
REMARK  Name = 
REMARK  12 active torsions:
REMARK  status: ('A' for Active; 'I' for Inactive)
REMARK    1  A    between atoms: C_1  and  O_2
REMARK    2  A    between atoms: O_2  and  C_3
REMARK    3  A    between atoms: C_5  and  N_6
REMARK    4  A    between atoms: N_6  and  C_7
REMARK    5  A    between atoms: C_8  and  C_9
REMARK    6  A    between atoms: C_9  and  C_11
REMARK    7  A    between atoms: N_13  and  C_14
REMARK    8  A    between atoms: C_21  and  C_22
REMARK    9  A    between atoms: C_30  and  O_31
REMARK   10  A    between atoms: O_31  and  C_32
REMARK   11  A    between atoms: C_33  and  O_34
REMARK   12  A    between atoms: O_34  and  C_35
REMARK                            x       y       z     vdW  Elec       q    Type
REMARK                         _______ _______ _______ _____ _____    ______ ____
ROOT
ATOM      1  C   UNL     1       2.895   7.386  18.369  0.00  0.00    +0.000 C 
ATOM      2  O   UNL     1       2.381   7.191  19.462  0.00  0.00    +0.000 OA
ENDROOT
BRANCH   1   3
ATOM      3  C   UNL     1       3.552   6.343  17.601  0.00  0.00    +0.000 A 
ATOM      4  C   UNL     1       4.357   6.479  16.486  0.00  0.00    +0.000 A 
ATOM      5  N   UNL     1       4.730   5.216  16.087  0.00  0.00    +0.000 N 
ATOM      6  N   UNL     1       4.167   4.268  16.869  0.00  0.00    +0.000 NA
ATOM      7  C   UNL     1       3.488   4.930  17.813  0.00  0.00    +0.000 A 
BRANCH   7   8
ATOM      8  C   UNL     1       2.805   4.212  18.890  0.00  0.00    +0.000 A 
ATOM      9  C   UNL     1       3.499   3.813  20.046  0.00  0.00    +0.000 A 
ATOM     10  C   UNL     1       2.830   3.207  21.105  0.00  0.00    +0.000 A 
ATOM     11  C   UNL     1       1.473   2.958  20.991  0.00  0.00    +0.000 A 
ATOM     12  F   UNL     1       0.817   2.386  22.010  0.00  0.00    +0.000 F 
ATOM     13  C   UNL     1       0.770   3.300  19.839  0.00  0.00    +0.000 A 
ATOM     14  C   UNL     1       1.438   3.928  18.785  0.00  0.00    +0.000 A 
ENDBRANCH   7   8
BRANCH   5  15
ATOM     15  C   UNL     1       5.589   4.867  15.005  0.00  0.00    +0.000 A 
ATOM     16  C   UNL     1       6.882   5.403  14.914  0.00  0.00    +0.000 A 
ATOM     17  C   UNL     1       7.706   5.064  13.847  0.00  0.00    +0.000 A 
ATOM     18  C   UNL     1       7.251   4.198  12.856  0.00  0.00    +0.000 A 
ATOM     19  C   UNL     1       5.970   3.652  12.940  0.00  0.00    +0.000 A 
ATOM     20  C   UNL     1       5.140   3.978  14.015  0.00  0.00    +0.000 A 
ENDBRANCH   5  15
ENDBRANCH   1   3
BRANCH   1  22
ATOM     21  C   UNL     1       1.929   9.602  17.920  0.00  0.00    +0.000 C 
ATOM     22  C   UNL     1       2.941   8.736  17.763  0.00  0.00    +0.000 C 
BRANCH  21  23
ATOM     23  N   UNL     1       0.798   9.482  18.690  0.00  0.00    +0.000 N 
ATOM     24  H   UNL     1       0.800   8.697  19.349  0.00  0.00    +0.000 HD
BRANCH  23  27
ATOM     25  C   UNL     1      -2.193  11.698  19.076  0.00  0.00    +0.000 A 
ATOM     26  C   UNL     1      -0.990  11.024  19.359  0.00  0.00    +0.000 A 
ATOM     27  C   UNL     1      -0.459  10.077  18.494  0.00  0.00    +0.000 A 
ATOM     28  C   UNL     1      -1.257   9.673  17.424  0.00  0.00    +0.000 A 
ATOM     29  C   UNL     1      -2.518  10.247  17.173  0.00  0.00    +0.000 A 
ATOM     30  C   UNL     1      -2.994  11.295  17.989  0.00  0.00    +0.000 A 
BRANCH  25  32
ATOM     31  C   UNL     1      -2.345  12.543  21.279  0.00  0.00    +0.000 C 
ATOM     32  O   UNL     1      -2.574  12.746  19.880  0.00  0.00    +0.000 OA
ENDBRANCH  25  32
BRANCH  29  33
ATOM     33  O   UNL     1      -3.112   9.676  16.072  0.00  0.00    +0.000 OA
ATOM     34  C   UNL     1      -3.001  10.304  14.804  0.00  0.00    +0.000 C 
ENDBRANCH  29  33
BRANCH  30  35
ATOM     35  O   UNL     1      -4.203  11.823  17.634  0.00  0.00    +0.000 OA
ATOM     36  C   UNL     1      -5.416  11.345  18.187  0.00  0.00    +0.000 C 
ENDBRANCH  30  35
ENDBRANCH  23  27
ENDBRANCH  21  23
ENDBRANCH   1  22
TORSDOF 9
ENDMDL
MODEL 6
REMARK VINA RESULT:      -8.7      7.880     11.560
REMARK  Name = 
REMARK  12 active torsions:
REMARK  status: ('A' for Active; 'I' for Inactive)
REMARK    1  A    between atoms: C_1  and  O_2
REMARK    2  A    between atoms: O_2  and  C_3
REMARK    3  A    between atoms: C_5  and  N_6
REMARK    4  A    between atoms: N_6  and  C_7
REMARK    5  A    between atoms: C_8  and  C_9
REMARK    6  A    between atoms: C_9  and  C_11
REMARK    7  A    between atoms: N_13  and  C_14
REMARK    8  A    between atoms: C_21  and  C_22
REMARK    9  A    between atoms: C_30  and  O_31
REMARK   10  A    between atoms: O_31  and  C_32
REMARK   11  A    between atoms: C_33  and  O_34
REMARK   12  A    between atoms: O_34  and  C_35
REMARK                            x       y       z     vdW  Elec       q    Type
REMARK                         _______ _______ _______ _____ _____    ______ ____
ROOT
ATOM      1  C   UNL     1       0.565  10.417  21.397  0.00  0.00    +0.000 C 
ATOM      2  O   UNL     1       1.544  11.118  21.612  0.00  0.00    +0.000 OA
ENDROOT
BRANCH   1   3
ATOM      3  C   UNL     1      -0.519  10.812  20.516  0.00  0.00    +0.000 A 
ATOM      4  C   UNL     1      -0.814  10.336  19.253  0.00  0.00    +0.000 A 
ATOM      5  N   UNL     1      -1.914  11.025  18.795  0.00  0.00    +0.000 N 
ATOM      6  N   UNL     1      -2.316  11.956  19.688  0.00  0.00    +0.000 NA
ATOM      7  C   UNL     1      -1.515  11.813  20.750  0.00  0.00    +0.000 A 
BRANCH   7   8
ATOM      8  C   UNL     1      -1.713  12.619  21.956  0.00  0.00    +0.000 A 
ATOM      9  C   UNL     1      -0.799  13.627  22.309  0.00  0.00    +0.000 A 
ATOM     10  C   UNL     1      -1.035  14.449  23.408  0.00  0.00    +0.000 A 
ATOM     11  C   UNL     1      -2.163  14.233  24.181  0.00  0.00    +0.000 A 
ATOM     12  F   UNL     1      -2.404  15.026  25.234  0.00  0.00    +0.000 F 
ATOM     13  C   UNL     1      -3.060  13.211  23.881  0.00  0.00    +0.000 A 
ATOM     14  C   UNL     1      -2.835  12.401  22.765  0.00  0.00    +0.000 A 
ENDBRANCH   7   8
BRANCH   5  15
ATOM     15  C   UNL     1      -2.596  10.844  17.558  0.00  0.00    +0.000 A 
ATOM     16  C   UNL     1      -3.809  11.501  17.304  0.00  0.00    +0.000 A 
ATOM     17  C   UNL     1      -4.472  11.307  16.097  0.00  0.00    +0.000 A 
ATOM     18  C   UNL     1      -3.941  10.452  15.135  0.00  0.00    +0.000 A 
ATOM     19  C   UNL     1      -2.731   9.799  15.372  0.00  0.00    +0.000 A 
ATOM     20  C   UNL     1      -2.053   9.997  16.576  0.00  0.00    +0.000 A 
ENDBRANCH   5  15
ENDBRANCH   1   3
BRANCH   1  22
ATOM     21  C   UNL     1       0.943   7.996  21.605  0.00  0.00    +0.000 C 
ATOM     22  C   UNL     1       0.377   9.116  22.079  0.00  0.00    +0.000 C 
BRANCH  21  23
ATOM     23  N   UNL     1       1.821   7.845  20.560  0.00  0.00    +0.000 N 
ATOM     24  H   UNL     1       1.947   8.674  19.972  0.00  0.00    +0.000 HD
BRANCH  23  27
ATOM     25  C   UNL     1       3.428   5.406  18.220  0.00  0.00    +0.000 A 
ATOM     26  C   UNL     1       2.814   6.573  18.711  0.00  0.00    +0.000 A 
ATOM     27  C   UNL     1       2.323   6.656  20.007  0.00  0.00    +0.000 A 
ATOM     28  C   UNL     1       2.285   5.476  20.749  0.00  0.00    +0.000 A 
ATOM     29  C   UNL     1       2.789   4.259  20.248  0.00  0.00    +0.000 A 
ATOM     30  C   UNL     1       3.396   4.216  18.975  0.00  0.00    +0.000 A 
BRANCH  25  32
ATOM     31  C   UNL     1       5.079   6.432  16.874  0.00  0.00    +0.000 C 
ATOM     32  O   UNL     1       4.048   5.444  16.995  0.00  0.00    +0.000 OA
ENDBRANCH  25  32
BRANCH  29  33
ATOM     33  O   UNL     1       2.628   3.243  21.160  0.00  0.00    +0.000 OA
ATOM     34  C   UNL     1       1.346   2.669  21.359  0.00  0.00    +0.000 C 
ENDBRANCH  29  33
BRANCH  30  35
ATOM     35  O   UNL     1       3.903   3.004  18.599  0.00  0.00    +0.000 OA
ATOM     36  C   UNL     1       3.122   2.059  17.891  0.00  0.00    +0.000 C 
ENDBRANCH  30  35
ENDBRANCH  23  27
ENDBRANCH  21  23
ENDBRANCH   1  22
TORSDOF 9
ENDMDL
MODEL 7
REMARK VINA RESULT:      -8.6      8.017     11.538
REMARK  Name = 
REMARK  12 active torsions:
REMARK  status: ('A' for Active; 'I' for Inactive)
REMARK    1  A    between atoms: C_1  and  O_2
REMARK    2  A    between atoms: O_2  and  C_3
REMARK    3  A    between atoms: C_5  and  N_6
REMARK    4  A    between atoms: N_6  and  C_7
REMARK    5  A    between atoms: C_8  and  C_9
REMARK    6  A    between atoms: C_9  and  C_11
REMARK    7  A    between atoms: N_13  and  C_14
REMARK    8  A    between atoms: C_21  and  C_22
REMARK    9  A    between atoms: C_30  and  O_31
REMARK   10  A    between atoms: O_31  and  C_32
REMARK   11  A    between atoms: C_33  and  O_34
REMARK   12  A    between atoms: O_34  and  C_35
REMARK                            x       y       z     vdW  Elec       q    Type
REMARK                         _______ _______ _______ _____ _____    ______ ____
ROOT
ATOM      1  C   UNL     1       0.440  10.645  21.458  0.00  0.00    +0.000 C 
ATOM      2  O   UNL     1       1.433  11.344  21.611  0.00  0.00    +0.000 OA
ENDROOT
BRANCH   1   3
ATOM      3  C   UNL     1      -0.635  10.980  20.541  0.00  0.00    +0.000 A 
ATOM      4  C   UNL     1      -0.879  10.464  19.283  0.00  0.00    +0.000 A 
ATOM      5  N   UNL     1      -1.991  11.100  18.782  0.00  0.00    +0.000 N 
ATOM      6  N   UNL     1      -2.452  12.035  19.643  0.00  0.00    +0.000 NA
ATOM      7  C   UNL     1      -1.673  11.947  20.727  0.00  0.00    +0.000 A 
BRANCH   7   8
ATOM      8  C   UNL     1      -1.934  12.771  21.909  0.00  0.00    +0.000 A 
ATOM      9  C   UNL     1      -2.932  12.414  22.832  0.00  0.00    +0.000 A 
ATOM     10  C   UNL     1      -3.120  13.151  23.998  0.00  0.00    +0.000 A 
ATOM     11  C   UNL     1      -2.340  14.273  24.219  0.00  0.00    +0.000 A 
ATOM     12  F   UNL     1      -2.506  14.982  25.343  0.00  0.00    +0.000 F 
ATOM     13  C   UNL     1      -1.377  14.676  23.298  0.00  0.00    +0.000 A 
ATOM     14  C   UNL     1      -1.173  13.923  22.139  0.00  0.00    +0.000 A 
ENDBRANCH   7   8
BRANCH   5  15
ATOM     15  C   UNL     1      -2.634  10.867  17.532  0.00  0.00    +0.000 A 
ATOM     16  C   UNL     1      -2.057  10.018  16.576  0.00  0.00    +0.000 A 
ATOM     17  C   UNL     1      -2.689   9.807  15.355  0.00  0.00    +0.000 A 
ATOM     18  C   UNL     1      -3.892  10.446  15.068  0.00  0.00    +0.000 A 
ATOM     19  C   UNL     1      -4.479  11.287  16.014  0.00  0.00    +0.000 A 
ATOM     20  C   UNL     1      -3.859  11.493  17.248  0.00  0.00    +0.000 A 
ENDBRANCH   5  15
ENDBRANCH   1   3
BRANCH   1  22
ATOM     21  C   UNL     1       0.818   8.261  21.924  0.00  0.00    +0.000 C 
ATOM     22  C   UNL     1       0.225   9.417  22.257  0.00  0.00    +0.000 C 
BRANCH  21  23
ATOM     23  N   UNL     1       1.747   8.015  20.943  0.00  0.00    +0.000 N 
ATOM     24  H   UNL     1       2.170   8.848  20.523  0.00  0.00    +0.000 HD
BRANCH  23  27
ATOM     25  C   UNL     1       1.622   4.434  19.861  0.00  0.00    +0.000 A 
ATOM     26  C   UNL     1       1.499   5.590  20.654  0.00  0.00    +0.000 A 
ATOM     27  C   UNL     1       1.968   6.826  20.228  0.00  0.00    +0.000 A 
ATOM     28  C   UNL     1       2.740   6.849  19.068  0.00  0.00    +0.000 A 
ATOM     29  C   UNL     1       2.979   5.689  18.305  0.00  0.00    +0.000 A 
ATOM     30  C   UNL     1       2.396   4.460  18.682  0.00  0.00    +0.000 A 
BRANCH  25  32
ATOM     31  C   UNL     1       1.533   2.667  21.429  0.00  0.00    +0.000 C 
ATOM     32  O   UNL     1       0.985   3.284  20.257  0.00  0.00    +0.000 OA
ENDBRANCH  25  32
BRANCH  29  33
ATOM     33  O   UNL     1       3.773   5.966  17.217  0.00  0.00    +0.000 OA
ATOM     34  C   UNL     1       5.180   5.811  17.311  0.00  0.00    +0.000 C 
ENDBRANCH  29  33
BRANCH  30  35
ATOM     35  O   UNL     1       2.642   3.405  17.851  0.00  0.00    +0.000 OA
ATOM     36  C   UNL     1       3.619   2.427  18.159  0.00  0.00    +0.000 C 
ENDBRANCH  30  35
ENDBRANCH  23  27
ENDBRANCH  21  23
ENDBRANCH   1  22
TORSDOF 9
ENDMDL
MODEL 8
REMARK VINA RESULT:      -8.5      7.949     11.620
REMARK  Name = 
REMARK  12 active torsions:
REMARK  status: ('A' for Active; 'I' for Inactive)
REMARK    1  A    between atoms: C_1  and  O_2
REMARK    2  A    between atoms: O_2  and  C_3
REMARK    3  A    between atoms: C_5  and  N_6
REMARK    4  A    between atoms: N_6  and  C_7
REMARK    5  A    between atoms: C_8  and  C_9
REMARK    6  A    between atoms: C_9  and  C_11
REMARK    7  A    between atoms: N_13  and  C_14
REMARK    8  A    between atoms: C_21  and  C_22
REMARK    9  A    between atoms: C_30  and  O_31
REMARK   10  A    between atoms: O_31  and  C_32
REMARK   11  A    between atoms: C_33  and  O_34
REMARK   12  A    between atoms: O_34  and  C_35
REMARK                            x       y       z     vdW  Elec       q    Type
REMARK                         _______ _______ _______ _____ _____    ______ ____
ROOT
ATOM      1  C   UNL     1       0.591  10.650  21.370  0.00  0.00    +0.000 C 
ATOM      2  O   UNL     1       1.569  11.368  21.524  0.00  0.00    +0.000 OA
ENDROOT
BRANCH   1   3
ATOM      3  C   UNL     1      -0.511  10.985  20.486  0.00  0.00    +0.000 A 
ATOM      4  C   UNL     1      -0.803  10.457  19.243  0.00  0.00    +0.000 A 
ATOM      5  N   UNL     1      -1.924  11.099  18.772  0.00  0.00    +0.000 N 
ATOM      6  N   UNL     1      -2.346  12.048  19.636  0.00  0.00    +0.000 NA
ATOM      7  C   UNL     1      -1.533  11.965  20.695  0.00  0.00    +0.000 A 
BRANCH   7   8
ATOM      8  C   UNL     1      -1.745  12.806  21.875  0.00  0.00    +0.000 A 
ATOM      9  C   UNL     1      -2.844  12.594  22.724  0.00  0.00    +0.000 A 
ATOM     10  C   UNL     1      -2.997  13.338  23.891  0.00  0.00    +0.000 A 
ATOM     11  C   UNL     1      -2.073  14.326  24.185  0.00  0.00    +0.000 A 
ATOM     12  F   UNL     1      -2.206  15.040  25.311  0.00  0.00    +0.000 F 
ATOM     13  C   UNL     1      -1.001  14.589  23.337  0.00  0.00    +0.000 A 
ATOM     14  C   UNL     1      -0.836  13.827  22.178  0.00  0.00    +0.000 A 
ENDBRANCH   7   8
BRANCH   5  15
ATOM     15  C   UNL     1      -2.611  10.857  17.547  0.00  0.00    +0.000 A 
ATOM     16  C   UNL     1      -2.078   9.988  16.584  0.00  0.00    +0.000 A 
ATOM     17  C   UNL     1      -2.753   9.770  15.388  0.00  0.00    +0.000 A 
ATOM     18  C   UNL     1      -3.957  10.421  15.133  0.00  0.00    +0.000 A 
ATOM     19  C   UNL     1      -4.502  11.281  16.086  0.00  0.00    +0.000 A 
ATOM     20  C   UNL     1      -3.838  11.496  17.295  0.00  0.00    +0.000 A 
ENDBRANCH   5  15
ENDBRANCH   1   3
BRANCH   1  22
ATOM     21  C   UNL     1       0.948   8.240  21.699  0.00  0.00    +0.000 C 
ATOM     22  C   UNL     1       0.422   9.393  22.136  0.00  0.00    +0.000 C 
BRANCH  21  23
ATOM     23  N   UNL     1       1.768   8.015  20.620  0.00  0.00    +0.000 N 
ATOM     24  H   UNL     1       1.948   8.833  20.031  0.00  0.00    +0.000 HD
BRANCH  23  27
ATOM     25  C   UNL     1       3.389   5.456  18.422  0.00  0.00    +0.000 A 
ATOM     26  C   UNL     1       2.931   6.695  18.909  0.00  0.00    +0.000 A 
ATOM     27  C   UNL     1       2.134   6.788  20.042  0.00  0.00    +0.000 A 
ATOM     28  C   UNL     1       1.642   5.597  20.574  0.00  0.00    +0.000 A 
ATOM     29  C   UNL     1       1.990   4.339  20.044  0.00  0.00    +0.000 A 
ATOM     30  C   UNL     1       2.898   4.253  18.966  0.00  0.00    +0.000 A 
BRANCH  25  32
ATOM     31  C   UNL     1       4.763   6.735  16.984  0.00  0.00    +0.000 C 
ATOM     32  O   UNL     1       4.314   5.442  17.406  0.00  0.00    +0.000 OA
ENDBRANCH  25  32
BRANCH  29  33
ATOM     33  O   UNL     1       1.371   3.323  20.732  0.00  0.00    +0.000 OA
ATOM     34  C   UNL     1       2.025   2.717  21.836  0.00  0.00    +0.000 C 
ENDBRANCH  29  33
BRANCH  30  35
ATOM     35  O   UNL     1       3.215   2.989  18.556  0.00  0.00    +0.000 OA
ATOM     36  C   UNL     1       2.454   2.313  17.572  0.00  0.00    +0.000 C 
ENDBRANCH  30  35
ENDBRANCH  23  27
ENDBRANCH  21  23
ENDBRANCH   1  22
TORSDOF 9
ENDMDL
MODEL 9
REMARK VINA RESULT:      -8.4      5.854      8.984
REMARK  Name = 
REMARK  12 active torsions:
REMARK  status: ('A' for Active; 'I' for Inactive)
REMARK    1  A    between atoms: C_1  and  O_2
REMARK    2  A    between atoms: O_2  and  C_3
REMARK    3  A    between atoms: C_5  and  N_6
REMARK    4  A    between atoms: N_6  and  C_7
REMARK    5  A    between atoms: C_8  and  C_9
REMARK    6  A    between atoms: C_9  and  C_11
REMARK    7  A    between atoms: N_13  and  C_14
REMARK    8  A    between atoms: C_21  and  C_22
REMARK    9  A    between atoms: C_30  and  O_31
REMARK   10  A    between atoms: O_31  and  C_32
REMARK   11  A    between atoms: C_33  and  O_34
REMARK   12  A    between atoms: O_34  and  C_35
REMARK                            x       y       z     vdW  Elec       q    Type
REMARK                         _______ _______ _______ _____ _____    ______ ____
ROOT
ATOM      1  C   UNL     1       3.096   7.306  18.354  0.00  0.00    +0.000 C 
ATOM      2  O   UNL     1       2.711   7.122  19.501  0.00  0.00    +0.000 OA
ENDROOT
BRANCH   1   3
ATOM      3  C   UNL     1       3.709   6.268  17.544  0.00  0.00    +0.000 A 
ATOM      4  C   UNL     1       4.492   6.413  16.415  0.00  0.00    +0.000 A 
ATOM      5  N   UNL     1       4.824   5.152  15.975  0.00  0.00    +0.000 N 
ATOM      6  N   UNL     1       4.255   4.198  16.745  0.00  0.00    +0.000 NA
ATOM      7  C   UNL     1       3.614   4.851  17.721  0.00  0.00    +0.000 A 
BRANCH   7   8
ATOM      8  C   UNL     1       2.937   4.122  18.795  0.00  0.00    +0.000 A 
ATOM      9  C   UNL     1       3.669   3.536  19.843  0.00  0.00    +0.000 A 
ATOM     10  C   UNL     1       3.018   2.918  20.907  0.00  0.00    +0.000 A 
ATOM     11  C   UNL     1       1.636   2.846  20.901  0.00  0.00    +0.000 A 
ATOM     12  F   UNL     1       1.000   2.263  21.926  0.00  0.00    +0.000 F 
ATOM     13  C   UNL     1       0.889   3.376  19.853  0.00  0.00    +0.000 A 
ATOM     14  C   UNL     1       1.541   4.016  18.796  0.00  0.00    +0.000 A 
ENDBRANCH   7   8
BRANCH   5  15
ATOM     15  C   UNL     1       5.650   4.810  14.866  0.00  0.00    +0.000 A 
ATOM     16  C   UNL     1       6.930   5.366  14.725  0.00  0.00    +0.000 A 
ATOM     17  C   UNL     1       7.721   5.034  13.632  0.00  0.00    +0.000 A 
ATOM     18  C   UNL     1       7.245   4.155  12.662  0.00  0.00    +0.000 A 
ATOM     19  C   UNL     1       5.977   3.590  12.795  0.00  0.00    +0.000 A 
ATOM     20  C   UNL     1       5.181   3.908  13.896  0.00  0.00    +0.000 A 
ENDBRANCH   5  15
ENDBRANCH   1   3
BRANCH   1  22
ATOM     21  C   UNL     1       1.913   9.389  17.801  0.00  0.00    +0.000 C 
ATOM     22  C   UNL     1       3.021   8.639  17.714  0.00  0.00    +0.000 C 
BRANCH  21  23
ATOM     23  N   UNL     1       0.767   9.160  18.522  0.00  0.00    +0.000 N 
ATOM     24  H   UNL     1       0.250   8.314  18.263  0.00  0.00    +0.000 HD
BRANCH  23  27
ATOM     25  C   UNL     1      -1.650  11.785  19.651  0.00  0.00    +0.000 A 
ATOM     26  C   UNL     1      -0.849  10.984  18.816  0.00  0.00    +0.000 A 
ATOM     27  C   UNL     1       0.049  10.058  19.329  0.00  0.00    +0.000 A 
ATOM     28  C   UNL     1       0.274  10.083  20.705  0.00  0.00    +0.000 A 
ATOM     29  C   UNL     1      -0.430  10.952  21.563  0.00  0.00    +0.000 A 
ATOM     30  C   UNL     1      -1.429  11.804  21.043  0.00  0.00    +0.000 A 
BRANCH  25  32
ATOM     31  C   UNL     1      -3.821  11.829  18.715  0.00  0.00    +0.000 C 
ATOM     32  O   UNL     1      -2.641  12.552  19.087  0.00  0.00    +0.000 OA
ENDBRANCH  25  32
BRANCH  29  33
ATOM     33  O   UNL     1      -0.025  10.796  22.867  0.00  0.00    +0.000 OA
ATOM     34  C   UNL     1       0.031   9.499  23.439  0.00  0.00    +0.000 C 
ENDBRANCH  29  33
BRANCH  30  35
ATOM     35  O   UNL     1      -2.092  12.570  21.959  0.00  0.00    +0.000 OA
ATOM     36  C   UNL     1      -1.712  13.907  22.226  0.00  0.00    +0.000 C 
ENDBRANCH  30  35
ENDBRANCH  23  27
ENDBRANCH  21  23
ENDBRANCH   1  22
TORSDOF 9
ENDMDL
