MODEL 1
REMARK VINA RESULT:      -6.5      0.000      0.000
REMARK  Name = 
REMARK  1 active torsions:
REMARK  status: ('A' for Active; 'I' for Inactive)
REMARK    1  A    between atoms: C_2  and  C_4
REMARK                            x       y       z     vdW  Elec       q    Type
REMARK                         _______ _______ _______ _____ _____    ______ ____
ROOT
ATOM      1  C   UNL     1       6.689   5.275  17.794  0.00  0.00    +0.000 A 
ATOM      2  C   UNL     1       7.192   4.781  16.579  0.00  0.00    +0.000 A 
ATOM      3  C   UNL     1       6.371   4.083  15.697  0.00  0.00    +0.000 A 
ATOM      4  C   UNL     1       5.039   3.866  16.028  0.00  0.00    +0.000 A 
ATOM      5  C   UNL     1       4.518   4.361  17.232  0.00  0.00    +0.000 A 
ATOM      6  C   UNL     1       5.334   5.079  18.124  0.00  0.00    +0.000 A 
ATOM      7  C   UNL     1       4.695   5.588  19.387  0.00  0.00    +0.000 C 
ATOM      8  C   UNL     1       3.250   5.946  19.083  0.00  0.00    +0.000 C 
ATOM      9  O   UNL     1       2.539   4.813  18.562  0.00  0.00    +0.000 OA
ATOM     10  C   UNL     1       3.087   4.095  17.548  0.00  0.00    +0.000 C 
ATOM     11  O   UNL     1       2.442   3.263  16.921  0.00  0.00    +0.000 OA
ENDROOT
BRANCH   1  13
ATOM     12  N   UNL     1       8.083   5.301  19.786  0.00  0.00    +0.000 N 
ATOM     13  C   UNL     1       7.636   5.995  18.691  0.00  0.00    +0.000 C 
ATOM     14  O   UNL     1       8.010   7.133  18.474  0.00  0.00    +0.000 OA
ATOM     15  H   UNL     1       8.776   5.756  20.366  0.00  0.00    +0.000 HD
ATOM     16  H   UNL     1       7.949   4.308  19.906  0.00  0.00    +0.000 HD
ENDBRANCH   1  13
TORSDOF 1
ENDMDL
MODEL 2
REMARK VINA RESULT:      -6.5      3.026      4.795
REMARK  Name = 
REMARK  1 active torsions:
REMARK  status: ('A' for Active; 'I' for Inactive)
REMARK    1  A    between atoms: C_2  and  C_4
REMARK                            x       y       z     vdW  Elec       q    Type
REMARK                         _______ _______ _______ _____ _____    ______ ____
ROOT
ATOM      1  C   UNL     1       3.350   2.924  19.922  0.00  0.00    +0.000 A 
ATOM      2  C   UNL     1       2.201   2.641  20.677  0.00  0.00    +0.000 A 
ATOM      3  C   UNL     1       1.248   3.625  20.925  0.00  0.00    +0.000 A 
ATOM      4  C   UNL     1       1.442   4.908  20.424  0.00  0.00    +0.000 A 
ATOM      5  C   UNL     1       2.580   5.205  19.659  0.00  0.00    +0.000 A 
ATOM      6  C   UNL     1       3.542   4.214  19.391  0.00  0.00    +0.000 A 
ATOM      7  C   UNL     1       4.725   4.611  18.552  0.00  0.00    +0.000 C 
ATOM      8  C   UNL     1       4.268   5.647  17.539  0.00  0.00    +0.000 C 
ATOM      9  O   UNL     1       3.692   6.787  18.194  0.00  0.00    +0.000 OA
ATOM     10  C   UNL     1       2.749   6.595  19.152  0.00  0.00    +0.000 C 
ATOM     11  O   UNL     1       2.071   7.518  19.588  0.00  0.00    +0.000 OA
ENDROOT
BRANCH   1  13
ATOM     12  N   UNL     1       4.144   1.039  18.607  0.00  0.00    +0.000 N 
ATOM     13  C   UNL     1       4.331   1.821  19.717  0.00  0.00    +0.000 C 
ATOM     14  O   UNL     1       5.258   1.617  20.479  0.00  0.00    +0.000 OA
ATOM     15  H   UNL     1       4.841   0.329  18.423  0.00  0.00    +0.000 HD
ATOM     16  H   UNL     1       3.511   1.280  17.859  0.00  0.00    +0.000 HD
ENDBRANCH   1  13
TORSDOF 1
ENDMDL
MODEL 3
REMARK VINA RESULT:      -6.4      1.905      2.410
REMARK  Name = 
REMARK  1 active torsions:
REMARK  status: ('A' for Active; 'I' for Inactive)
REMARK    1  A    between atoms: C_2  and  C_4
REMARK                            x       y       z     vdW  Elec       q    Type
REMARK                         _______ _______ _______ _____ _____    ______ ____
ROOT
ATOM      1  C   UNL     1       5.532   5.303  18.526  0.00  0.00    +0.000 A 
ATOM      2  C   UNL     1       5.270   6.523  17.881  0.00  0.00    +0.000 A 
ATOM      3  C   UNL     1       3.991   6.832  17.428  0.00  0.00    +0.000 A 
ATOM      4  C   UNL     1       2.960   5.916  17.609  0.00  0.00    +0.000 A 
ATOM      5  C   UNL     1       3.202   4.697  18.259  0.00  0.00    +0.000 A 
ATOM      6  C   UNL     1       4.488   4.381  18.734  0.00  0.00    +0.000 A 
ATOM      7  C   UNL     1       4.660   3.060  19.432  0.00  0.00    +0.000 C 
ATOM      8  C   UNL     1       3.377   2.743  20.181  0.00  0.00    +0.000 C 
ATOM      9  O   UNL     1       2.254   2.715  19.288  0.00  0.00    +0.000 OA
ATOM     10  C   UNL     1       2.070   3.744  18.421  0.00  0.00    +0.000 C 
ATOM     11  O   UNL     1       1.026   3.884  17.795  0.00  0.00    +0.000 OA
ENDROOT
BRANCH   1  13
ATOM     12  N   UNL     1       7.738   4.389  18.067  0.00  0.00    +0.000 N 
ATOM     13  C   UNL     1       6.932   5.040  18.964  0.00  0.00    +0.000 C 
ATOM     14  O   UNL     1       7.355   5.386  20.052  0.00  0.00    +0.000 OA
ATOM     15  H   UNL     1       8.708   4.264  18.327  0.00  0.00    +0.000 HD
ATOM     16  H   UNL     1       7.491   4.250  17.098  0.00  0.00    +0.000 HD
ENDBRANCH   1  13
TORSDOF 1
ENDMDL
MODEL 4
REMARK VINA RESULT:      -6.4      3.127      5.108
REMARK  Name = 
REMARK  1 active torsions:
REMARK  status: ('A' for Active; 'I' for Inactive)
REMARK    1  A    between atoms: C_2  and  C_4
REMARK                            x       y       z     vdW  Elec       q    Type
REMARK                         _______ _______ _______ _____ _____    ______ ____
ROOT
ATOM      1  C   UNL     1       2.228   4.730  20.341  0.00  0.00    +0.000 A 
ATOM      2  C   UNL     1       1.728   6.001  20.669  0.00  0.00    +0.000 A 
ATOM      3  C   UNL     1       2.056   7.117  19.905  0.00  0.00    +0.000 A 
ATOM      4  C   UNL     1       2.897   6.973  18.807  0.00  0.00    +0.000 A 
ATOM      5  C   UNL     1       3.398   5.709  18.460  0.00  0.00    +0.000 A 
ATOM      6  C   UNL     1       3.061   4.572  19.217  0.00  0.00    +0.000 A 
ATOM      7  C   UNL     1       3.629   3.253  18.769  0.00  0.00    +0.000 C 
ATOM      8  C   UNL     1       3.730   3.264  17.254  0.00  0.00    +0.000 C 
ATOM      9  O   UNL     1       4.542   4.358  16.801  0.00  0.00    +0.000 OA
ATOM     10  C   UNL     1       4.303   5.605  17.282  0.00  0.00    +0.000 C 
ATOM     11  O   UNL     1       4.808   6.601  16.779  0.00  0.00    +0.000 OA
ENDROOT
BRANCH   1  13
ATOM     12  N   UNL     1       0.716   2.899  20.864  0.00  0.00    +0.000 N 
ATOM     13  C   UNL     1       1.846   3.589  21.220  0.00  0.00    +0.000 C 
ATOM     14  O   UNL     1       2.493   3.269  22.200  0.00  0.00    +0.000 OA
ATOM     15  H   UNL     1       0.483   2.083  21.415  0.00  0.00    +0.000 HD
ATOM     16  H   UNL     1       0.257   3.009  19.971  0.00  0.00    +0.000 HD
ENDBRANCH   1  13
TORSDOF 1
ENDMDL
MODEL 5
REMARK VINA RESULT:      -6.3      2.494      3.601
REMARK  Name = 
REMARK  1 active torsions:
REMARK  status: ('A' for Active; 'I' for Inactive)
REMARK    1  A    between atoms: C_2  and  C_4
REMARK                            x       y       z     vdW  Elec       q    Type
REMARK                         _______ _______ _______ _____ _____    ______ ____
ROOT
ATOM      1  C   UNL     1       4.391   4.850  17.106  0.00  0.00    +0.000 A 
ATOM      2  C   UNL     1       4.240   6.232  17.305  0.00  0.00    +0.000 A 
ATOM      3  C   UNL     1       3.277   6.727  18.180  0.00  0.00    +0.000 A 
ATOM      4  C   UNL     1       2.449   5.842  18.860  0.00  0.00    +0.000 A 
ATOM      5  C   UNL     1       2.593   4.458  18.681  0.00  0.00    +0.000 A 
ATOM      6  C   UNL     1       3.571   3.946  17.810  0.00  0.00    +0.000 A 
ATOM      7  C   UNL     1       3.669   2.450  17.686  0.00  0.00    +0.000 C 
ATOM      8  C   UNL     1       3.323   1.834  19.030  0.00  0.00    +0.000 C 
ATOM      9  O   UNL     1       2.012   2.234  19.456  0.00  0.00    +0.000 OA
ATOM     10  C   UNL     1       1.676   3.549  19.423  0.00  0.00    +0.000 C 
ATOM     11  O   UNL     1       0.666   3.974  19.971  0.00  0.00    +0.000 OA
ENDROOT
BRANCH   1  13
ATOM     12  N   UNL     1       6.658   4.089  16.667  0.00  0.00    +0.000 N 
ATOM     13  C   UNL     1       5.431   4.401  16.139  0.00  0.00    +0.000 C 
ATOM     14  O   UNL     1       5.219   4.301  14.945  0.00  0.00    +0.000 OA
ATOM     15  H   UNL     1       7.352   3.721  16.029  0.00  0.00    +0.000 HD
ATOM     16  H   UNL     1       6.825   3.980  17.656  0.00  0.00    +0.000 HD
ENDBRANCH   1  13
TORSDOF 1
ENDMDL
MODEL 6
REMARK VINA RESULT:      -6.3      2.111      4.802
REMARK  Name = 
REMARK  1 active torsions:
REMARK  status: ('A' for Active; 'I' for Inactive)
REMARK    1  A    between atoms: C_2  and  C_4
REMARK                            x       y       z     vdW  Elec       q    Type
REMARK                         _______ _______ _______ _____ _____    ______ ____
ROOT
ATOM      1  C   UNL     1       3.675   4.438  17.510  0.00  0.00    +0.000 A 
ATOM      2  C   UNL     1       2.795   5.403  18.027  0.00  0.00    +0.000 A 
ATOM      3  C   UNL     1       3.161   6.744  18.089  0.00  0.00    +0.000 A 
ATOM      4  C   UNL     1       4.418   7.133  17.641  0.00  0.00    +0.000 A 
ATOM      5  C   UNL     1       5.306   6.184  17.112  0.00  0.00    +0.000 A 
ATOM      6  C   UNL     1       4.941   4.828  17.032  0.00  0.00    +0.000 A 
ATOM      7  C   UNL     1       5.946   3.878  16.440  0.00  0.00    +0.000 C 
ATOM      8  C   UNL     1       6.723   4.613  15.362  0.00  0.00    +0.000 C 
ATOM      9  O   UNL     1       7.366   5.779  15.898  0.00  0.00    +0.000 OA
ATOM     10  C   UNL     1       6.646   6.646  16.654  0.00  0.00    +0.000 C 
ATOM     11  O   UNL     1       7.073   7.755  16.953  0.00  0.00    +0.000 OA
ENDROOT
BRANCH   1  13
ATOM     12  N   UNL     1       3.950   2.136  18.243  0.00  0.00    +0.000 N 
ATOM     13  C   UNL     1       3.216   3.021  17.496  0.00  0.00    +0.000 C 
ATOM     14  O   UNL     1       2.239   2.654  16.869  0.00  0.00    +0.000 OA
ATOM     15  H   UNL     1       3.609   1.184  18.293  0.00  0.00    +0.000 HD
ATOM     16  H   UNL     1       4.646   2.421  18.916  0.00  0.00    +0.000 HD
ENDBRANCH   1  13
TORSDOF 1
ENDMDL
MODEL 7
REMARK VINA RESULT:      -6.2      2.698      4.331
REMARK  Name = 
REMARK  1 active torsions:
REMARK  status: ('A' for Active; 'I' for Inactive)
REMARK    1  A    between atoms: C_2  and  C_4
REMARK                            x       y       z     vdW  Elec       q    Type
REMARK                         _______ _______ _______ _____ _____    ______ ____
ROOT
ATOM      1  C   UNL     1       3.509   3.056  18.756  0.00  0.00    +0.000 A 
ATOM      2  C   UNL     1       2.115   2.963  18.617  0.00  0.00    +0.000 A 
ATOM      3  C   UNL     1       1.368   4.048  18.167  0.00  0.00    +0.000 A 
ATOM      4  C   UNL     1       2.011   5.241  17.857  0.00  0.00    +0.000 A 
ATOM      5  C   UNL     1       3.404   5.348  17.981  0.00  0.00    +0.000 A 
ATOM      6  C   UNL     1       4.170   4.254  18.422  0.00  0.00    +0.000 A 
ATOM      7  C   UNL     1       5.659   4.446  18.514  0.00  0.00    +0.000 C 
ATOM      8  C   UNL     1       6.089   5.391  17.405  0.00  0.00    +0.000 C 
ATOM      9  O   UNL     1       5.397   6.645  17.502  0.00  0.00    +0.000 OA
ATOM     10  C   UNL     1       4.047   6.649  17.648  0.00  0.00    +0.000 C 
ATOM     11  O   UNL     1       3.384   7.671  17.518  0.00  0.00    +0.000 OA
ENDROOT
BRANCH   1  13
ATOM     12  N   UNL     1       4.161   0.728  18.486  0.00  0.00    +0.000 N 
ATOM     13  C   UNL     1       4.234   1.856  19.263  0.00  0.00    +0.000 C 
ATOM     14  O   UNL     1       4.868   1.862  20.301  0.00  0.00    +0.000 OA
ATOM     15  H   UNL     1       4.702  -0.072  18.786  0.00  0.00    +0.000 HD
ATOM     16  H   UNL     1       3.807   0.728  17.540  0.00  0.00    +0.000 HD
ENDBRANCH   1  13
TORSDOF 1
ENDMDL
MODEL 8
REMARK VINA RESULT:      -6.2      2.588      3.634
REMARK  Name = 
REMARK  1 active torsions:
REMARK  status: ('A' for Active; 'I' for Inactive)
REMARK    1  A    between atoms: C_2  and  C_4
REMARK                            x       y       z     vdW  Elec       q    Type
REMARK                         _______ _______ _______ _____ _____    ______ ____
ROOT
ATOM      1  C   UNL     1       4.170   4.193  17.858  0.00  0.00    +0.000 A 
ATOM      2  C   UNL     1       5.142   4.381  16.861  0.00  0.00    +0.000 A 
ATOM      3  C   UNL     1       5.327   5.627  16.270  0.00  0.00    +0.000 A 
ATOM      4  C   UNL     1       4.533   6.698  16.664  0.00  0.00    +0.000 A 
ATOM      5  C   UNL     1       3.564   6.530  17.665  0.00  0.00    +0.000 A 
ATOM      6  C   UNL     1       3.378   5.278  18.279  0.00  0.00    +0.000 A 
ATOM      7  C   UNL     1       2.328   5.186  19.353  0.00  0.00    +0.000 C 
ATOM      8  C   UNL     1       2.283   6.511  20.094  0.00  0.00    +0.000 C 
ATOM      9  O   UNL     1       2.010   7.595  19.194  0.00  0.00    +0.000 OA
ATOM     10  C   UNL     1       2.730   7.703  18.048  0.00  0.00    +0.000 C 
ATOM     11  O   UNL     1       2.697   8.713  17.354  0.00  0.00    +0.000 OA
ENDROOT
BRANCH   1  13
ATOM     12  N   UNL     1       4.853   2.506  19.470  0.00  0.00    +0.000 N 
ATOM     13  C   UNL     1       4.021   2.824  18.428  0.00  0.00    +0.000 C 
ATOM     14  O   UNL     1       3.205   2.024  18.010  0.00  0.00    +0.000 OA
ATOM     15  H   UNL     1       4.717   1.604  19.908  0.00  0.00    +0.000 HD
ATOM     16  H   UNL     1       5.409   3.188  19.965  0.00  0.00    +0.000 HD
ENDBRANCH   1  13
TORSDOF 1
ENDMDL
MODEL 9
REMARK VINA RESULT:      -6.2      1.830      2.789
REMARK  Name = 
REMARK  1 active torsions:
REMARK  status: ('A' for Active; 'I' for Inactive)
REMARK    1  A    between atoms: C_2  and  C_4
REMARK                            x       y       z     vdW  Elec       q    Type
REMARK                         _______ _______ _______ _____ _____    ______ ____
ROOT
ATOM      1  C   UNL     1       5.543   5.141  17.454  0.00  0.00    +0.000 A 
ATOM      2  C   UNL     1       5.277   6.515  17.565  0.00  0.00    +0.000 A 
ATOM      3  C   UNL     1       3.972   6.983  17.690  0.00  0.00    +0.000 A 
ATOM      4  C   UNL     1       2.917   6.077  17.697  0.00  0.00    +0.000 A 
ATOM      5  C   UNL     1       3.166   4.700  17.597  0.00  0.00    +0.000 A 
ATOM      6  C   UNL     1       4.481   4.216  17.484  0.00  0.00    +0.000 A 
ATOM      7  C   UNL     1       4.662   2.725  17.396  0.00  0.00    +0.000 C 
ATOM      8  C   UNL     1       3.582   2.061  18.232  0.00  0.00    +0.000 C 
ATOM      9  O   UNL     1       2.275   2.452  17.787  0.00  0.00    +0.000 OA
ATOM     10  C   UNL     1       2.004   3.769  17.599  0.00  0.00    +0.000 C 
ATOM     11  O   UNL     1       0.861   4.178  17.434  0.00  0.00    +0.000 OA
ENDROOT
BRANCH   1  13
ATOM     12  N   UNL     1       7.455   4.677  16.024  0.00  0.00    +0.000 N 
ATOM     13  C   UNL     1       6.965   4.723  17.304  0.00  0.00    +0.000 C 
ATOM     14  O   UNL     1       7.671   4.442  18.255  0.00  0.00    +0.000 OA
ATOM     15  H   UNL     1       8.437   4.458  15.915  0.00  0.00    +0.000 HD
ATOM     16  H   UNL     1       6.971   5.072  15.231  0.00  0.00    +0.000 HD
ENDBRANCH   1  13
TORSDOF 1
ENDMDL
