MODEL 1
REMARK VINA RESULT:      -8.6      0.000      0.000
REMARK  Name = 
REMARK  2 active torsions:
REMARK  status: ('A' for Active; 'I' for Inactive)
REMARK    1  A    between atoms: C_5  and  C_6
REMARK    2  A    between atoms: C_6  and  C_8
REMARK                            x       y       z     vdW  Elec       q    Type
REMARK                         _______ _______ _______ _____ _____    ______ ____
ROOT
ATOM      1  N   UNL     1       8.547   5.206  20.567  0.00  0.00    +0.000 N 
ATOM      2  C   UNL     1       7.804   5.569  19.490  0.00  0.00    +0.000 A 
ATOM      3  N   UNL     1       6.825   4.796  19.110  0.00  0.00    +0.000 NA
ATOM      4  C   UNL     1       6.122   5.258  17.991  0.00  0.00    +0.000 A 
ATOM      5  C   UNL     1       4.968   4.704  17.395  0.00  0.00    +0.000 A 
ATOM      6  C   UNL     1       4.709   5.521  16.297  0.00  0.00    +0.000 A 
ATOM      7  N   UNL     1       5.615   6.555  16.280  0.00  0.00    +0.000 N 
ATOM      8  C   UNL     1       6.468   6.405  17.335  0.00  0.00    +0.000 A 
ATOM      9  C   UNL     1       7.534   7.244  17.760  0.00  0.00    +0.000 A 
ATOM     10  O   UNL     1       7.869   8.291  17.220  0.00  0.00    +0.000 OA
ATOM     11  N   UNL     1       8.153   6.752  18.886  0.00  0.00    +0.000 N 
ATOM     12  H   UNL     1       8.118   4.455  21.100  0.00  0.00    +0.000 HD
ATOM     13  H   UNL     1       8.942   5.938  21.141  0.00  0.00    +0.000 HD
ATOM     14  H   UNL     1       5.642   7.315  15.610  0.00  0.00    +0.000 HD
ATOM     15  H   UNL     1       8.936   7.285  19.224  0.00  0.00    +0.000 HD
ENDROOT
BRANCH   5  16
ATOM     16  C   UNL     1       4.146   3.553  17.770  0.00  0.00    +0.000 C 
ATOM     17  O   UNL     1       4.091   2.555  17.055  0.00  0.00    +0.000 OA
BRANCH  16  18
ATOM     18  C   UNL     1       3.256   3.643  18.964  0.00  0.00    +0.000 A 
ATOM     19  C   UNL     1       2.113   4.465  18.902  0.00  0.00    +0.000 A 
ATOM     20  C   UNL     1       1.234   4.559  19.980  0.00  0.00    +0.000 A 
ATOM     21  C   UNL     1       1.453   3.793  21.118  0.00  0.00    +0.000 A 
ATOM     22  C   UNL     1       2.561   2.947  21.182  0.00  0.00    +0.000 A 
ATOM     23  C   UNL     1       3.470   2.875  20.115  0.00  0.00    +0.000 A 
ATOM     24 CL   UNL     1       4.840   1.843  20.336  0.00  0.00    +0.000 Cl
ENDBRANCH  16  18
ENDBRANCH   5  16
TORSDOF 2
ENDMDL
MODEL 2
REMARK VINA RESULT:      -8.5      1.288      1.674
REMARK  Name = 
REMARK  2 active torsions:
REMARK  status: ('A' for Active; 'I' for Inactive)
REMARK    1  A    between atoms: C_5  and  C_6
REMARK    2  A    between atoms: C_6  and  C_8
REMARK                            x       y       z     vdW  Elec       q    Type
REMARK                         _______ _______ _______ _____ _____    ______ ____
ROOT
ATOM      1  N   UNL     1       8.228   5.325  20.577  0.00  0.00    +0.000 N 
ATOM      2  C   UNL     1       7.499   5.479  19.442  0.00  0.00    +0.000 A 
ATOM      3  N   UNL     1       6.591   4.589  19.152  0.00  0.00    +0.000 NA
ATOM      4  C   UNL     1       5.895   4.838  17.962  0.00  0.00    +0.000 A 
ATOM      5  C   UNL     1       4.805   4.122  17.422  0.00  0.00    +0.000 A 
ATOM      6  C   UNL     1       4.525   4.758  16.215  0.00  0.00    +0.000 A 
ATOM      7  N   UNL     1       5.356   5.845  16.075  0.00  0.00    +0.000 N 
ATOM      8  C   UNL     1       6.181   5.907  17.161  0.00  0.00    +0.000 A 
ATOM      9  C   UNL     1       7.169   6.874  17.489  0.00  0.00    +0.000 A 
ATOM     10  O   UNL     1       7.447   7.859  16.816  0.00  0.00    +0.000 OA
ATOM     11  N   UNL     1       7.783   6.590  18.687  0.00  0.00    +0.000 N 
ATOM     12  H   UNL     1       7.836   4.625  21.199  0.00  0.00    +0.000 HD
ATOM     13  H   UNL     1       8.550   6.157  21.052  0.00  0.00    +0.000 HD
ATOM     14  H   UNL     1       5.351   6.505  15.306  0.00  0.00    +0.000 HD
ATOM     15  H   UNL     1       8.513   7.222  18.966  0.00  0.00    +0.000 HD
ENDROOT
BRANCH   5  16
ATOM     16  C   UNL     1       4.055   2.975  17.935  0.00  0.00    +0.000 C 
ATOM     17  O   UNL     1       4.077   1.893  17.353  0.00  0.00    +0.000 OA
BRANCH  16  18
ATOM     18  C   UNL     1       3.143   3.155  19.101  0.00  0.00    +0.000 A 
ATOM     19  C   UNL     1       3.539   2.661  20.360  0.00  0.00    +0.000 A 
ATOM     20  C   UNL     1       2.735   2.833  21.486  0.00  0.00    +0.000 A 
ATOM     21  C   UNL     1       1.547   3.546  21.385  0.00  0.00    +0.000 A 
ATOM     22  C   UNL     1       1.158   4.073  20.153  0.00  0.00    +0.000 A 
ATOM     23  C   UNL     1       1.944   3.873  19.007  0.00  0.00    +0.000 A 
ATOM     24 CL   UNL     1       1.326   4.514  17.526  0.00  0.00    +0.000 Cl
ENDBRANCH  16  18
ENDBRANCH   5  16
TORSDOF 2
ENDMDL
MODEL 3
REMARK VINA RESULT:      -8.1      1.972      3.049
REMARK  Name = 
REMARK  2 active torsions:
REMARK  status: ('A' for Active; 'I' for Inactive)
REMARK    1  A    between atoms: C_5  and  C_6
REMARK    2  A    between atoms: C_6  and  C_8
REMARK                            x       y       z     vdW  Elec       q    Type
REMARK                         _______ _______ _______ _____ _____    ______ ____
ROOT
ATOM      1  N   UNL     1       6.619   3.767  13.663  0.00  0.00    +0.000 N 
ATOM      2  C   UNL     1       6.485   4.314  14.899  0.00  0.00    +0.000 A 
ATOM      3  N   UNL     1       5.656   3.765  15.743  0.00  0.00    +0.000 NA
ATOM      4  C   UNL     1       5.590   4.404  16.988  0.00  0.00    +0.000 A 
ATOM      5  C   UNL     1       4.865   4.010  18.134  0.00  0.00    +0.000 A 
ATOM      6  C   UNL     1       5.113   5.010  19.071  0.00  0.00    +0.000 A 
ATOM      7  N   UNL     1       5.999   5.917  18.540  0.00  0.00    +0.000 N 
ATOM      8  C   UNL     1       6.310   5.530  17.268  0.00  0.00    +0.000 A 
ATOM      9  C   UNL     1       7.215   6.116  16.342  0.00  0.00    +0.000 A 
ATOM     10  O   UNL     1       7.898   7.111  16.553  0.00  0.00    +0.000 OA
ATOM     11  N   UNL     1       7.261   5.416  15.159  0.00  0.00    +0.000 N 
ATOM     12  H   UNL     1       6.201   2.843  13.599  0.00  0.00    +0.000 HD
ATOM     13  H   UNL     1       7.518   3.838  13.206  0.00  0.00    +0.000 HD
ATOM     14  H   UNL     1       6.377   6.730  19.012  0.00  0.00    +0.000 HD
ATOM     15  H   UNL     1       7.863   5.795  14.449  0.00  0.00    +0.000 HD
ENDROOT
BRANCH   5  16
ATOM     16  C   UNL     1       4.031   2.836  18.392  0.00  0.00    +0.000 C 
ATOM     17  O   UNL     1       4.113   1.834  17.685  0.00  0.00    +0.000 OA
BRANCH  16  18
ATOM     18  C   UNL     1       2.971   2.903  19.439  0.00  0.00    +0.000 A 
ATOM     19  C   UNL     1       3.242   2.382  20.719  0.00  0.00    +0.000 A 
ATOM     20  C   UNL     1       2.294   2.450  21.740  0.00  0.00    +0.000 A 
ATOM     21  C   UNL     1       1.079   3.086  21.513  0.00  0.00    +0.000 A 
ATOM     22  C   UNL     1       0.809   3.639  20.261  0.00  0.00    +0.000 A 
ATOM     23  C   UNL     1       1.744   3.542  19.219  0.00  0.00    +0.000 A 
ATOM     24 CL   UNL     1       1.270   4.205  17.694  0.00  0.00    +0.000 Cl
ENDBRANCH  16  18
ENDBRANCH   5  16
TORSDOF 2
ENDMDL
MODEL 4
REMARK VINA RESULT:      -8.0      3.048      5.745
REMARK  Name = 
REMARK  2 active torsions:
REMARK  status: ('A' for Active; 'I' for Inactive)
REMARK    1  A    between atoms: C_5  and  C_6
REMARK    2  A    between atoms: C_6  and  C_8
REMARK                            x       y       z     vdW  Elec       q    Type
REMARK                         _______ _______ _______ _____ _____    ______ ____
ROOT
ATOM      1  N   UNL     1       2.187   7.153  20.430  0.00  0.00    +0.000 N 
ATOM      2  C   UNL     1       2.348   5.848  20.092  0.00  0.00    +0.000 A 
ATOM      3  N   UNL     1       3.142   5.548  19.101  0.00  0.00    +0.000 NA
ATOM      4  C   UNL     1       3.239   4.178  18.832  0.00  0.00    +0.000 A 
ATOM      5  C   UNL     1       4.073   3.530  17.894  0.00  0.00    +0.000 A 
ATOM      6  C   UNL     1       3.745   2.180  18.002  0.00  0.00    +0.000 A 
ATOM      7  N   UNL     1       2.818   2.020  19.004  0.00  0.00    +0.000 N 
ATOM      8  C   UNL     1       2.526   3.245  19.529  0.00  0.00    +0.000 A 
ATOM      9  C   UNL     1       1.668   3.582  20.611  0.00  0.00    +0.000 A 
ATOM     10  O   UNL     1       1.025   2.783  21.280  0.00  0.00    +0.000 OA
ATOM     11  N   UNL     1       1.652   4.937  20.847  0.00  0.00    +0.000 N 
ATOM     12  H   UNL     1       2.880   7.756  19.997  0.00  0.00    +0.000 HD
ATOM     13  H   UNL     1       2.005   7.375  21.399  0.00  0.00    +0.000 HD
ATOM     14  H   UNL     1       2.425   1.140  19.319  0.00  0.00    +0.000 HD
ATOM     15  H   UNL     1       1.041   5.247  21.583  0.00  0.00    +0.000 HD
ENDROOT
BRANCH   5  16
ATOM     16  C   UNL     1       5.091   4.054  16.983  0.00  0.00    +0.000 C 
ATOM     17  O   UNL     1       5.268   3.554  15.875  0.00  0.00    +0.000 OA
BRANCH  16  18
ATOM     18  C   UNL     1       6.021   5.121  17.457  0.00  0.00    +0.000 A 
ATOM     19  C   UNL     1       6.954   4.813  18.467  0.00  0.00    +0.000 A 
ATOM     20  C   UNL     1       7.864   5.768  18.920  0.00  0.00    +0.000 A 
ATOM     21  C   UNL     1       7.892   7.028  18.336  0.00  0.00    +0.000 A 
ATOM     22  C   UNL     1       6.998   7.337  17.311  0.00  0.00    +0.000 A 
ATOM     23  C   UNL     1       6.055   6.394  16.874  0.00  0.00    +0.000 A 
ATOM     24 CL   UNL     1       4.957   6.913  15.644  0.00  0.00    +0.000 Cl
ENDBRANCH  16  18
ENDBRANCH   5  16
TORSDOF 2
ENDMDL
MODEL 5
REMARK VINA RESULT:      -7.8      1.781      2.742
REMARK  Name = 
REMARK  2 active torsions:
REMARK  status: ('A' for Active; 'I' for Inactive)
REMARK    1  A    between atoms: C_5  and  C_6
REMARK    2  A    between atoms: C_6  and  C_8
REMARK                            x       y       z     vdW  Elec       q    Type
REMARK                         _______ _______ _______ _____ _____    ______ ____
ROOT
ATOM      1  N   UNL     1       6.446   3.555  13.558  0.00  0.00    +0.000 N 
ATOM      2  C   UNL     1       6.225   4.247  14.705  0.00  0.00    +0.000 A 
ATOM      3  N   UNL     1       5.172   3.961  15.419  0.00  0.00    +0.000 NA
ATOM      4  C   UNL     1       5.033   4.730  16.581  0.00  0.00    +0.000 A 
ATOM      5  C   UNL     1       4.063   4.607  17.599  0.00  0.00    +0.000 A 
ATOM      6  C   UNL     1       4.352   5.637  18.491  0.00  0.00    +0.000 A 
ATOM      7  N   UNL     1       5.481   6.296  18.069  0.00  0.00    +0.000 N 
ATOM      8  C   UNL     1       5.913   5.723  16.907  0.00  0.00    +0.000 A 
ATOM      9  C   UNL     1       7.060   6.023  16.124  0.00  0.00    +0.000 A 
ATOM     10  O   UNL     1       7.889   6.887  16.385  0.00  0.00    +0.000 OA
ATOM     11  N   UNL     1       7.156   5.204  15.023  0.00  0.00    +0.000 N 
ATOM     12  H   UNL     1       5.864   2.727  13.484  0.00  0.00    +0.000 HD
ATOM     13  H   UNL     1       7.403   3.406  13.270  0.00  0.00    +0.000 HD
ATOM     14  H   UNL     1       5.935   7.068  18.543  0.00  0.00    +0.000 HD
ATOM     15  H   UNL     1       7.933   5.383  14.410  0.00  0.00    +0.000 HD
ENDROOT
BRANCH   5  16
ATOM     16  C   UNL     1       2.974   3.647  17.783  0.00  0.00    +0.000 C 
ATOM     17  O   UNL     1       2.406   3.141  16.818  0.00  0.00    +0.000 OA
BRANCH  16  18
ATOM     18  C   UNL     1       2.452   3.381  19.156  0.00  0.00    +0.000 A 
ATOM     19  C   UNL     1       1.164   3.837  19.496  0.00  0.00    +0.000 A 
ATOM     20  C   UNL     1       0.620   3.586  20.756  0.00  0.00    +0.000 A 
ATOM     21  C   UNL     1       1.334   2.831  21.678  0.00  0.00    +0.000 A 
ATOM     22  C   UNL     1       2.597   2.342  21.344  0.00  0.00    +0.000 A 
ATOM     23  C   UNL     1       3.166   2.621  20.091  0.00  0.00    +0.000 A 
ATOM     24 CL   UNL     1       4.763   2.018  19.817  0.00  0.00    +0.000 Cl
ENDBRANCH  16  18
ENDBRANCH   5  16
TORSDOF 2
ENDMDL
MODEL 6
REMARK VINA RESULT:      -7.8      2.174      2.429
REMARK  Name = 
REMARK  2 active torsions:
REMARK  status: ('A' for Active; 'I' for Inactive)
REMARK    1  A    between atoms: C_5  and  C_6
REMARK    2  A    between atoms: C_6  and  C_8
REMARK                            x       y       z     vdW  Elec       q    Type
REMARK                         _______ _______ _______ _____ _____    ______ ____
ROOT
ATOM      1  N   UNL     1       8.100   5.230  20.393  0.00  0.00    +0.000 N 
ATOM      2  C   UNL     1       7.290   5.563  19.355  0.00  0.00    +0.000 A 
ATOM      3  N   UNL     1       6.002   5.619  19.554  0.00  0.00    +0.000 NA
ATOM      4  C   UNL     1       5.256   5.969  18.423  0.00  0.00    +0.000 A 
ATOM      5  C   UNL     1       3.865   6.199  18.331  0.00  0.00    +0.000 A 
ATOM      6  C   UNL     1       3.639   6.472  16.984  0.00  0.00    +0.000 A 
ATOM      7  N   UNL     1       4.841   6.479  16.317  0.00  0.00    +0.000 N 
ATOM      8  C   UNL     1       5.836   6.193  17.207  0.00  0.00    +0.000 A 
ATOM      9  C   UNL     1       7.241   6.135  17.002  0.00  0.00    +0.000 A 
ATOM     10  O   UNL     1       7.811   6.349  15.939  0.00  0.00    +0.000 OA
ATOM     11  N   UNL     1       7.914   5.827  18.161  0.00  0.00    +0.000 N 
ATOM     12  H   UNL     1       7.620   5.262  21.287  0.00  0.00    +0.000 HD
ATOM     13  H   UNL     1       9.029   5.626  20.417  0.00  0.00    +0.000 HD
ATOM     14  H   UNL     1       4.977   6.678  15.333  0.00  0.00    +0.000 HD
ATOM     15  H   UNL     1       8.913   5.743  18.079  0.00  0.00    +0.000 HD
ENDROOT
BRANCH   5  16
ATOM     16  C   UNL     1       2.817   6.196  19.352  0.00  0.00    +0.000 C 
ATOM     17  O   UNL     1       2.421   7.244  19.855  0.00  0.00    +0.000 OA
BRANCH  16  18
ATOM     18  C   UNL     1       2.320   4.896  19.890  0.00  0.00    +0.000 A 
ATOM     19  C   UNL     1       2.557   4.582  21.243  0.00  0.00    +0.000 A 
ATOM     20  C   UNL     1       2.085   3.394  21.799  0.00  0.00    +0.000 A 
ATOM     21  C   UNL     1       1.323   2.525  21.028  0.00  0.00    +0.000 A 
ATOM     22  C   UNL     1       1.049   2.838  19.697  0.00  0.00    +0.000 A 
ATOM     23  C   UNL     1       1.552   4.014  19.119  0.00  0.00    +0.000 A 
ATOM     24 CL   UNL     1       1.203   4.262  17.444  0.00  0.00    +0.000 Cl
ENDBRANCH  16  18
ENDBRANCH   5  16
TORSDOF 2
ENDMDL
MODEL 7
REMARK VINA RESULT:      -7.8      2.988      5.498
REMARK  Name = 
REMARK  2 active torsions:
REMARK  status: ('A' for Active; 'I' for Inactive)
REMARK    1  A    between atoms: C_5  and  C_6
REMARK    2  A    between atoms: C_6  and  C_8
REMARK                            x       y       z     vdW  Elec       q    Type
REMARK                         _______ _______ _______ _____ _____    ______ ____
ROOT
ATOM      1  N   UNL     1       5.065   1.353  19.865  0.00  0.00    +0.000 N 
ATOM      2  C   UNL     1       4.254   2.420  20.082  0.00  0.00    +0.000 A 
ATOM      3  N   UNL     1       4.454   3.513  19.397  0.00  0.00    +0.000 NA
ATOM      4  C   UNL     1       3.566   4.553  19.696  0.00  0.00    +0.000 A 
ATOM      5  C   UNL     1       3.462   5.817  19.074  0.00  0.00    +0.000 A 
ATOM      6  C   UNL     1       2.457   6.476  19.777  0.00  0.00    +0.000 A 
ATOM      7  N   UNL     1       1.934   5.626  20.722  0.00  0.00    +0.000 N 
ATOM      8  C   UNL     1       2.601   4.436  20.655  0.00  0.00    +0.000 A 
ATOM      9  C   UNL     1       2.389   3.240  21.392  0.00  0.00    +0.000 A 
ATOM     10  O   UNL     1       1.525   3.078  22.245  0.00  0.00    +0.000 OA
ATOM     11  N   UNL     1       3.266   2.248  21.020  0.00  0.00    +0.000 N 
ATOM     12  H   UNL     1       5.625   1.454  19.023  0.00  0.00    +0.000 HD
ATOM     13  H   UNL     1       4.677   0.428  19.986  0.00  0.00    +0.000 HD
ATOM     14  H   UNL     1       1.171   5.832  21.355  0.00  0.00    +0.000 HD
ATOM     15  H   UNL     1       3.188   1.382  21.524  0.00  0.00    +0.000 HD
ENDROOT
BRANCH   5  16
ATOM     16  C   UNL     1       4.180   6.395  17.938  0.00  0.00    +0.000 C 
ATOM     17  O   UNL     1       3.924   7.528  17.537  0.00  0.00    +0.000 OA
BRANCH  16  18
ATOM     18  C   UNL     1       5.140   5.551  17.168  0.00  0.00    +0.000 A 
ATOM     19  C   UNL     1       4.739   5.025  15.924  0.00  0.00    +0.000 A 
ATOM     20  C   UNL     1       5.611   4.256  15.153  0.00  0.00    +0.000 A 
ATOM     21  C   UNL     1       6.913   4.044  15.588  0.00  0.00    +0.000 A 
ATOM     22  C   UNL     1       7.336   4.587  16.801  0.00  0.00    +0.000 A 
ATOM     23  C   UNL     1       6.454   5.332  17.600  0.00  0.00    +0.000 A 
ATOM     24 CL   UNL     1       7.072   5.897  19.112  0.00  0.00    +0.000 Cl
ENDBRANCH  16  18
ENDBRANCH   5  16
TORSDOF 2
ENDMDL
MODEL 8
REMARK VINA RESULT:      -7.7      3.125      4.229
REMARK  Name = 
REMARK  2 active torsions:
REMARK  status: ('A' for Active; 'I' for Inactive)
REMARK    1  A    between atoms: C_5  and  C_6
REMARK    2  A    between atoms: C_6  and  C_8
REMARK                            x       y       z     vdW  Elec       q    Type
REMARK                         _______ _______ _______ _____ _____    ______ ____
ROOT
ATOM      1  N   UNL     1       6.406   5.439  14.076  0.00  0.00    +0.000 N 
ATOM      2  C   UNL     1       6.335   5.251  15.418  0.00  0.00    +0.000 A 
ATOM      3  N   UNL     1       5.229   5.555  16.039  0.00  0.00    +0.000 NA
ATOM      4  C   UNL     1       5.257   5.325  17.420  0.00  0.00    +0.000 A 
ATOM      5  C   UNL     1       4.204   5.466  18.351  0.00  0.00    +0.000 A 
ATOM      6  C   UNL     1       4.776   5.155  19.582  0.00  0.00    +0.000 A 
ATOM      7  N   UNL     1       6.083   4.775  19.390  0.00  0.00    +0.000 N 
ATOM      8  C   UNL     1       6.371   4.857  18.058  0.00  0.00    +0.000 A 
ATOM      9  C   UNL     1       7.569   4.523  17.371  0.00  0.00    +0.000 A 
ATOM     10  O   UNL     1       8.584   4.081  17.894  0.00  0.00    +0.000 OA
ATOM     11  N   UNL     1       7.457   4.735  16.017  0.00  0.00    +0.000 N 
ATOM     12  H   UNL     1       5.496   5.608  13.658  0.00  0.00    +0.000 HD
ATOM     13  H   UNL     1       6.990   4.814  13.538  0.00  0.00    +0.000 HD
ATOM     14  H   UNL     1       6.727   4.468  20.109  0.00  0.00    +0.000 HD
ATOM     15  H   UNL     1       8.282   4.544  15.474  0.00  0.00    +0.000 HD
ENDROOT
BRANCH   5  16
ATOM     16  C   UNL     1       2.799   5.830  18.170  0.00  0.00    +0.000 C 
ATOM     17  O   UNL     1       2.012   5.063  17.619  0.00  0.00    +0.000 OA
BRANCH  16  18
ATOM     18  C   UNL     1       2.343   7.203  18.533  0.00  0.00    +0.000 A 
ATOM     19  C   UNL     1       2.431   8.228  17.570  0.00  0.00    +0.000 A 
ATOM     20  C   UNL     1       1.989   9.521  17.852  0.00  0.00    +0.000 A 
ATOM     21  C   UNL     1       1.404   9.798  19.081  0.00  0.00    +0.000 A 
ATOM     22  C   UNL     1       1.277   8.785  20.033  0.00  0.00    +0.000 A 
ATOM     23  C   UNL     1       1.753   7.491  19.770  0.00  0.00    +0.000 A 
ATOM     24 CL   UNL     1       1.601   6.339  21.050  0.00  0.00    +0.000 Cl
ENDBRANCH  16  18
ENDBRANCH   5  16
TORSDOF 2
ENDMDL
MODEL 9
REMARK VINA RESULT:      -7.3      1.187      1.369
REMARK  Name = 
REMARK  2 active torsions:
REMARK  status: ('A' for Active; 'I' for Inactive)
REMARK    1  A    between atoms: C_5  and  C_6
REMARK    2  A    between atoms: C_6  and  C_8
REMARK                            x       y       z     vdW  Elec       q    Type
REMARK                         _______ _______ _______ _____ _____    ______ ____
ROOT
ATOM      1  N   UNL     1       8.665   5.176  20.391  0.00  0.00    +0.000 N 
ATOM      2  C   UNL     1       7.875   5.553  19.353  0.00  0.00    +0.000 A 
ATOM      3  N   UNL     1       6.934   4.744  18.953  0.00  0.00    +0.000 NA
ATOM      4  C   UNL     1       6.176   5.224  17.877  0.00  0.00    +0.000 A 
ATOM      5  C   UNL     1       5.042   4.635  17.277  0.00  0.00    +0.000 A 
ATOM      6  C   UNL     1       4.706   5.494  16.233  0.00  0.00    +0.000 A 
ATOM      7  N   UNL     1       5.550   6.579  16.254  0.00  0.00    +0.000 N 
ATOM      8  C   UNL     1       6.437   6.424  17.279  0.00  0.00    +0.000 A 
ATOM      9  C   UNL     1       7.463   7.300  17.727  0.00  0.00    +0.000 A 
ATOM     10  O   UNL     1       7.722   8.393  17.240  0.00  0.00    +0.000 OA
ATOM     11  N   UNL     1       8.138   6.786  18.809  0.00  0.00    +0.000 N 
ATOM     12  H   UNL     1       8.296   4.373  20.890  0.00  0.00    +0.000 HD
ATOM     13  H   UNL     1       9.031   5.897  20.996  0.00  0.00    +0.000 HD
ATOM     14  H   UNL     1       5.515   7.375  15.628  0.00  0.00    +0.000 HD
ATOM     15  H   UNL     1       8.897   7.345  19.159  0.00  0.00    +0.000 HD
ENDROOT
BRANCH   5  16
ATOM     16  C   UNL     1       4.299   3.418  17.605  0.00  0.00    +0.000 C 
ATOM     17  O   UNL     1       4.656   2.323  17.176  0.00  0.00    +0.000 OA
BRANCH  16  18
ATOM     18  C   UNL     1       3.013   3.521  18.355  0.00  0.00    +0.000 A 
ATOM     19  C   UNL     1       2.003   2.571  18.110  0.00  0.00    +0.000 A 
ATOM     20  C   UNL     1       0.796   2.607  18.809  0.00  0.00    +0.000 A 
ATOM     21  C   UNL     1       0.600   3.561  19.800  0.00  0.00    +0.000 A 
ATOM     22  C   UNL     1       1.605   4.487  20.079  0.00  0.00    +0.000 A 
ATOM     23  C   UNL     1       2.807   4.480  19.355  0.00  0.00    +0.000 A 
ATOM     24 CL   UNL     1       3.950   5.718  19.744  0.00  0.00    +0.000 Cl
ENDBRANCH  16  18
ENDBRANCH   5  16
TORSDOF 2
ENDMDL
