MODEL 1
REMARK VINA RESULT:      -9.1      0.000      0.000
REMARK  Name = 
REMARK  9 active torsions:
REMARK  status: ('A' for Active; 'I' for Inactive)
REMARK    1  A    between atoms: C_1  and  O_2
REMARK    2  A    between atoms: O_2  and  C_3
REMARK    3  A    between atoms: C_6  and  C_7
REMARK    4  A    between atoms: C_7  and  O_8
REMARK    5  A    between atoms: C_12  and  C_13
REMARK    6  A    between atoms: C_22  and  C_23
REMARK    7  A    between atoms: C_23  and  C_24
REMARK    8  A    between atoms: C_30  and  O_31
REMARK    9  A    between atoms: O_31  and  C_32
REMARK                            x       y       z     vdW  Elec       q    Type
REMARK                         _______ _______ _______ _____ _____    ______ ____
ROOT
ATOM      1  C   UNL     1       4.969   5.566  17.991  0.00  0.00    +0.000 C 
ATOM      2  O   UNL     1       6.145   6.345  17.954  0.00  0.00    +0.000 OA
ATOM      3  C   UNL     1       6.742   6.164  16.744  0.00  0.00    +0.000 C 
ATOM      4  O   UNL     1       7.794   6.692  16.431  0.00  0.00    +0.000 OA
ATOM      5  C   UNL     1       5.913   5.268  15.901  0.00  0.00    +0.000 C 
ATOM      6  C   UNL     1       4.867   4.891  16.660  0.00  0.00    +0.000 C 
ENDROOT
BRANCH   5   7
ATOM      7  C   UNL     1       6.182   4.989  14.498  0.00  0.00    +0.000 A 
ATOM      8  C   UNL     1       7.456   5.229  13.911  0.00  0.00    +0.000 A 
ATOM      9  C   UNL     1       7.832   4.614  12.718  0.00  0.00    +0.000 A 
ATOM     10  C   UNL     1       6.935   3.739  12.175  0.00  0.00    +0.000 A 
ATOM     11  C   UNL     1       5.655   3.600  12.665  0.00  0.00    +0.000 A 
ATOM     12  C   UNL     1       5.224   4.249  13.790  0.00  0.00    +0.000 A 
ATOM     13  O   UNL     1       4.965   2.609  12.039  0.00  0.00    +0.000 OA
ATOM     14  C   UNL     1       6.094   1.903  11.491  0.00  0.00    +0.000 C 
ATOM     15  O   UNL     1       7.202   2.791  11.228  0.00  0.00    +0.000 OA
ENDBRANCH   5   7
BRANCH   1  19
ATOM     16  C   UNL     1       1.782   8.300  19.166  0.00  0.00    +0.000 A 
ATOM     17  C   UNL     1       2.429   8.446  17.946  0.00  0.00    +0.000 A 
ATOM     18  C   UNL     1       3.422   7.545  17.561  0.00  0.00    +0.000 A 
ATOM     19  C   UNL     1       3.783   6.455  18.380  0.00  0.00    +0.000 A 
ATOM     20  C   UNL     1       3.025   6.241  19.552  0.00  0.00    +0.000 A 
ATOM     21  C   UNL     1       2.064   7.184  19.952  0.00  0.00    +0.000 A 
BRANCH  16  23
ATOM     22  C   UNL     1       0.858  10.409  18.585  0.00  0.00    +0.000 C 
ATOM     23  O   UNL     1       0.915   9.308  19.485  0.00  0.00    +0.000 OA
ENDBRANCH  16  23
BRANCH  20  24
ATOM     24  O   UNL     1       3.301   5.125  20.301  0.00  0.00    +0.000 OA
ATOM     25  C   UNL     1       2.275   4.709  21.205  0.00  0.00    +0.000 C 
ENDBRANCH  20  24
ENDBRANCH   1  19
BRANCH   1  26
ATOM     26  O   UNL     1       5.201   4.550  18.955  0.00  0.00    +0.000 OA
ATOM     27  H   UNL     1       6.052   4.802  19.354  0.00  0.00    +0.000 HD
ENDBRANCH   1  26
BRANCH   6  28
ATOM     28  C   UNL     1       3.719   4.018  16.270  0.00  0.00    +0.000 C 
BRANCH  28  29
ATOM     29  C   UNL     1       2.935   3.347  17.389  0.00  0.00    +0.000 A 
ATOM     30  C   UNL     1       1.603   3.681  17.668  0.00  0.00    +0.000 A 
ATOM     31  C   UNL     1       0.850   2.935  18.580  0.00  0.00    +0.000 A 
ATOM     32  C   UNL     1       1.415   1.836  19.226  0.00  0.00    +0.000 A 
ATOM     33  C   UNL     1       2.749   1.519  19.001  0.00  0.00    +0.000 A 
ATOM     34  C   UNL     1       3.508   2.273  18.097  0.00  0.00    +0.000 A 
ENDBRANCH  28  29
ENDBRANCH   6  28
TORSDOF 7
ENDMDL
MODEL 2
REMARK VINA RESULT:      -8.9      5.089     11.175
REMARK  Name = 
REMARK  9 active torsions:
REMARK  status: ('A' for Active; 'I' for Inactive)
REMARK    1  A    between atoms: C_1  and  O_2
REMARK    2  A    between atoms: O_2  and  C_3
REMARK    3  A    between atoms: C_6  and  C_7
REMARK    4  A    between atoms: C_7  and  O_8
REMARK    5  A    between atoms: C_12  and  C_13
REMARK    6  A    between atoms: C_22  and  C_23
REMARK    7  A    between atoms: C_23  and  C_24
REMARK    8  A    between atoms: C_30  and  O_31
REMARK    9  A    between atoms: O_31  and  C_32
REMARK                            x       y       z     vdW  Elec       q    Type
REMARK                         _______ _______ _______ _____ _____    ______ ____
ROOT
ATOM      1  C   UNL     1       0.667  10.835  19.323  0.00  0.00    +0.000 C 
ATOM      2  O   UNL     1       1.373  11.789  20.087  0.00  0.00    +0.000 OA
ATOM      3  C   UNL     1       0.481  12.469  20.858  0.00  0.00    +0.000 C 
ATOM      4  O   UNL     1       0.798  13.375  21.606  0.00  0.00    +0.000 OA
ATOM      5  C   UNL     1      -0.883  11.922  20.652  0.00  0.00    +0.000 C 
ATOM      6  C   UNL     1      -0.772  10.963  19.714  0.00  0.00    +0.000 C 
ENDROOT
BRANCH   5   7
ATOM      7  C   UNL     1      -2.046  12.317  21.434  0.00  0.00    +0.000 A 
ATOM      8  C   UNL     1      -2.235  11.886  22.776  0.00  0.00    +0.000 A 
ATOM      9  C   UNL     1      -3.103  12.554  23.638  0.00  0.00    +0.000 A 
ATOM     10  C   UNL     1      -3.719  13.667  23.138  0.00  0.00    +0.000 A 
ATOM     11  C   UNL     1      -3.641  14.015  21.807  0.00  0.00    +0.000 A 
ATOM     12  C   UNL     1      -2.860  13.333  20.914  0.00  0.00    +0.000 A 
ATOM     13  O   UNL     1      -4.246  15.204  21.546  0.00  0.00    +0.000 OA
ATOM     14  C   UNL     1      -4.259  15.714  22.892  0.00  0.00    +0.000 C 
ATOM     15  O   UNL     1      -4.327  14.650  23.866  0.00  0.00    +0.000 OA
ENDBRANCH   5   7
BRANCH   1  19
ATOM     16  C   UNL     1       2.235   6.791  19.758  0.00  0.00    +0.000 A 
ATOM     17  C   UNL     1       2.407   7.496  18.573  0.00  0.00    +0.000 A 
ATOM     18  C   UNL     1       1.934   8.803  18.455  0.00  0.00    +0.000 A 
ATOM     19  C   UNL     1       1.293   9.453  19.530  0.00  0.00    +0.000 A 
ATOM     20  C   UNL     1       1.247   8.774  20.768  0.00  0.00    +0.000 A 
ATOM     21  C   UNL     1       1.680   7.441  20.858  0.00  0.00    +0.000 A 
BRANCH  16  23
ATOM     22  C   UNL     1       2.280   4.672  20.828  0.00  0.00    +0.000 C 
ATOM     23  O   UNL     1       2.632   5.483  19.714  0.00  0.00    +0.000 OA
ENDBRANCH  16  23
BRANCH  20  24
ATOM     24  O   UNL     1       0.718   9.440  21.846  0.00  0.00    +0.000 OA
ATOM     25  C   UNL     1      -0.370   8.792  22.507  0.00  0.00    +0.000 C 
ENDBRANCH  20  24
ENDBRANCH   1  19
BRANCH   1  26
ATOM     26  O   UNL     1       0.769  11.261  17.972  0.00  0.00    +0.000 OA
ATOM     27  H   UNL     1       0.012  10.830  17.538  0.00  0.00    +0.000 HD
ENDBRANCH   1  26
BRANCH   6  28
ATOM     28  C   UNL     1      -1.849  10.081  19.173  0.00  0.00    +0.000 C 
BRANCH  28  29
ATOM     29  C   UNL     1      -2.493  10.486  17.855  0.00  0.00    +0.000 A 
ATOM     30  C   UNL     1      -2.086   9.941  16.629  0.00  0.00    +0.000 A 
ATOM     31  C   UNL     1      -2.804  10.195  15.456  0.00  0.00    +0.000 A 
ATOM     32  C   UNL     1      -3.947  10.994  15.488  0.00  0.00    +0.000 A 
ATOM     33  C   UNL     1      -4.337  11.585  16.684  0.00  0.00    +0.000 A 
ATOM     34  C   UNL     1      -3.612  11.342  17.857  0.00  0.00    +0.000 A 
ENDBRANCH  28  29
ENDBRANCH   6  28
TORSDOF 7
ENDMDL
MODEL 3
REMARK VINA RESULT:      -8.5      5.090     11.313
REMARK  Name = 
REMARK  9 active torsions:
REMARK  status: ('A' for Active; 'I' for Inactive)
REMARK    1  A    between atoms: C_1  and  O_2
REMARK    2  A    between atoms: O_2  and  C_3
REMARK    3  A    between atoms: C_6  and  C_7
REMARK    4  A    between atoms: C_7  and  O_8
REMARK    5  A    between atoms: C_12  and  C_13
REMARK    6  A    between atoms: C_22  and  C_23
REMARK    7  A    between atoms: C_23  and  C_24
REMARK    8  A    between atoms: C_30  and  O_31
REMARK    9  A    between atoms: O_31  and  C_32
REMARK                            x       y       z     vdW  Elec       q    Type
REMARK                         _______ _______ _______ _____ _____    ______ ____
ROOT
ATOM      1  C   UNL     1       0.362  11.278  19.379  0.00  0.00    +0.000 C 
ATOM      2  O   UNL     1       1.048  12.313  20.049  0.00  0.00    +0.000 OA
ATOM      3  C   UNL     1       0.139  13.059  20.735  0.00  0.00    +0.000 C 
ATOM      4  O   UNL     1       0.436  14.041  21.390  0.00  0.00    +0.000 OA
ATOM      5  C   UNL     1      -1.217  12.477  20.570  0.00  0.00    +0.000 C 
ATOM      6  C   UNL     1      -1.082  11.428  19.738  0.00  0.00    +0.000 C 
ENDROOT
BRANCH   5   7
ATOM      7  C   UNL     1      -2.394  12.936  21.293  0.00  0.00    +0.000 A 
ATOM      8  C   UNL     1      -3.651  13.115  20.652  0.00  0.00    +0.000 A 
ATOM      9  C   UNL     1      -4.837  13.165  21.382  0.00  0.00    +0.000 A 
ATOM     10  C   UNL     1      -4.729  12.983  22.732  0.00  0.00    +0.000 A 
ATOM     11  C   UNL     1      -3.509  12.938  23.372  0.00  0.00    +0.000 A 
ATOM     12  C   UNL     1      -2.322  12.967  22.693  0.00  0.00    +0.000 A 
ATOM     13  O   UNL     1      -3.630  12.655  24.696  0.00  0.00    +0.000 OA
ATOM     14  C   UNL     1      -4.954  12.091  24.655  0.00  0.00    +0.000 C 
ATOM     15  O   UNL     1      -5.743  12.660  23.588  0.00  0.00    +0.000 OA
ENDBRANCH   5   7
BRANCH   1  19
ATOM     16  C   UNL     1       1.954   7.318  20.270  0.00  0.00    +0.000 A 
ATOM     17  C   UNL     1       2.047   7.850  18.990  0.00  0.00    +0.000 A 
ATOM     18  C   UNL     1       1.568   9.132  18.722  0.00  0.00    +0.000 A 
ATOM     19  C   UNL     1       1.001   9.932  19.736  0.00  0.00    +0.000 A 
ATOM     20  C   UNL     1       1.037   9.432  21.056  0.00  0.00    +0.000 A 
ATOM     21  C   UNL     1       1.474   8.121  21.303  0.00  0.00    +0.000 A 
BRANCH  16  23
ATOM     22  C   UNL     1       3.377   5.578  19.504  0.00  0.00    +0.000 C 
ATOM     23  O   UNL     1       2.347   6.014  20.383  0.00  0.00    +0.000 OA
ENDBRANCH  16  23
BRANCH  20  24
ATOM     24  O   UNL     1       0.580  10.246  22.063  0.00  0.00    +0.000 OA
ATOM     25  C   UNL     1      -0.339   9.650  22.981  0.00  0.00    +0.000 C 
ENDBRANCH  20  24
ENDBRANCH   1  19
BRANCH   1  26
ATOM     26  O   UNL     1       0.478  11.563  17.993  0.00  0.00    +0.000 OA
ATOM     27  H   UNL     1       1.434  11.488  17.822  0.00  0.00    +0.000 HD
ENDBRANCH   1  26
BRANCH   6  28
ATOM     28  C   UNL     1      -2.143  10.482  19.277  0.00  0.00    +0.000 C 
BRANCH  28  29
ATOM     29  C   UNL     1      -2.630  10.617  17.842  0.00  0.00    +0.000 A 
ATOM     30  C   UNL     1      -2.075   9.868  16.794  0.00  0.00    +0.000 A 
ATOM     31  C   UNL     1      -2.651   9.878  15.520  0.00  0.00    +0.000 A 
ATOM     32  C   UNL     1      -3.797  10.633  15.271  0.00  0.00    +0.000 A 
ATOM     33  C   UNL     1      -4.332  11.422  16.282  0.00  0.00    +0.000 A 
ATOM     34  C   UNL     1      -3.749  11.422  17.556  0.00  0.00    +0.000 A 
ENDBRANCH  28  29
ENDBRANCH   6  28
TORSDOF 7
ENDMDL
MODEL 4
REMARK VINA RESULT:      -8.5      4.615     10.991
REMARK  Name = 
REMARK  9 active torsions:
REMARK  status: ('A' for Active; 'I' for Inactive)
REMARK    1  A    between atoms: C_1  and  O_2
REMARK    2  A    between atoms: O_2  and  C_3
REMARK    3  A    between atoms: C_6  and  C_7
REMARK    4  A    between atoms: C_7  and  O_8
REMARK    5  A    between atoms: C_12  and  C_13
REMARK    6  A    between atoms: C_22  and  C_23
REMARK    7  A    between atoms: C_23  and  C_24
REMARK    8  A    between atoms: C_30  and  O_31
REMARK    9  A    between atoms: O_31  and  C_32
REMARK                            x       y       z     vdW  Elec       q    Type
REMARK                         _______ _______ _______ _____ _____    ______ ____
ROOT
ATOM      1  C   UNL     1       0.680  10.662  19.129  0.00  0.00    +0.000 C 
ATOM      2  O   UNL     1       1.393  11.637  19.858  0.00  0.00    +0.000 OA
ATOM      3  C   UNL     1       0.525  12.265  20.698  0.00  0.00    +0.000 C 
ATOM      4  O   UNL     1       0.851  13.175  21.438  0.00  0.00    +0.000 OA
ATOM      5  C   UNL     1      -0.823  11.656  20.578  0.00  0.00    +0.000 C 
ATOM      6  C   UNL     1      -0.732  10.716  19.619  0.00  0.00    +0.000 C 
ENDROOT
BRANCH   5   7
ATOM      7  C   UNL     1      -1.946  11.986  21.443  0.00  0.00    +0.000 A 
ATOM      8  C   UNL     1      -1.969  11.626  22.819  0.00  0.00    +0.000 A 
ATOM      9  C   UNL     1      -2.822  12.261  23.721  0.00  0.00    +0.000 A 
ATOM     10  C   UNL     1      -3.591  13.273  23.221  0.00  0.00    +0.000 A 
ATOM     11  C   UNL     1      -3.668  13.541  21.871  0.00  0.00    +0.000 A 
ATOM     12  C   UNL     1      -2.903  12.882  20.947  0.00  0.00    +0.000 A 
ATOM     13  O   UNL     1      -4.412  14.646  21.604  0.00  0.00    +0.000 OA
ATOM     14  C   UNL     1      -4.359  15.239  22.915  0.00  0.00    +0.000 C 
ATOM     15  O   UNL     1      -4.230  14.238  23.948  0.00  0.00    +0.000 OA
ENDBRANCH   5   7
BRANCH   1  19
ATOM     16  C   UNL     1       2.484   6.699  19.353  0.00  0.00    +0.000 A 
ATOM     17  C   UNL     1       2.689   7.511  18.245  0.00  0.00    +0.000 A 
ATOM     18  C   UNL     1       2.138   8.792  18.197  0.00  0.00    +0.000 A 
ATOM     19  C   UNL     1       1.383   9.308  19.270  0.00  0.00    +0.000 A 
ATOM     20  C   UNL     1       1.297   8.525  20.442  0.00  0.00    +0.000 A 
ATOM     21  C   UNL     1       1.812   7.218  20.458  0.00  0.00    +0.000 A 
BRANCH  16  23
ATOM     22  C   UNL     1       4.377   5.266  19.372  0.00  0.00    +0.000 C 
ATOM     23  O   UNL     1       2.971   5.427  19.234  0.00  0.00    +0.000 OA
ENDBRANCH  16  23
BRANCH  20  24
ATOM     24  O   UNL     1       0.651   9.063  21.528  0.00  0.00    +0.000 OA
ATOM     25  C   UNL     1       1.465   9.322  22.674  0.00  0.00    +0.000 C 
ENDBRANCH  20  24
ENDBRANCH   1  19
BRANCH   1  26
ATOM     26  O   UNL     1       0.669  11.109  17.781  0.00  0.00    +0.000 OA
ATOM     27  H   UNL     1       0.678  10.283  17.265  0.00  0.00    +0.000 HD
ENDBRANCH   1  26
BRANCH   6  28
ATOM     28  C   UNL     1      -1.802   9.791  19.138  0.00  0.00    +0.000 C 
BRANCH  28  29
ATOM     29  C   UNL     1      -2.591  10.208  17.905  0.00  0.00    +0.000 A 
ATOM     30  C   UNL     1      -3.687  11.078  17.983  0.00  0.00    +0.000 A 
ATOM     31  C   UNL     1      -4.287  11.584  16.825  0.00  0.00    +0.000 A 
ATOM     32  C   UNL     1      -3.797  11.234  15.568  0.00  0.00    +0.000 A 
ATOM     33  C   UNL     1      -2.743  10.333  15.469  0.00  0.00    +0.000 A 
ATOM     34  C   UNL     1      -2.150   9.816  16.627  0.00  0.00    +0.000 A 
ENDBRANCH  28  29
ENDBRANCH   6  28
TORSDOF 7
ENDMDL
MODEL 5
REMARK VINA RESULT:      -8.5      5.993     12.034
REMARK  Name = 
REMARK  9 active torsions:
REMARK  status: ('A' for Active; 'I' for Inactive)
REMARK    1  A    between atoms: C_1  and  O_2
REMARK    2  A    between atoms: O_2  and  C_3
REMARK    3  A    between atoms: C_6  and  C_7
REMARK    4  A    between atoms: C_7  and  O_8
REMARK    5  A    between atoms: C_12  and  C_13
REMARK    6  A    between atoms: C_22  and  C_23
REMARK    7  A    between atoms: C_23  and  C_24
REMARK    8  A    between atoms: C_30  and  O_31
REMARK    9  A    between atoms: O_31  and  C_32
REMARK                            x       y       z     vdW  Elec       q    Type
REMARK                         _______ _______ _______ _____ _____    ______ ____
ROOT
ATOM      1  C   UNL     1      -0.715  12.293  21.987  0.00  0.00    +0.000 C 
ATOM      2  O   UNL     1      -1.242  12.191  23.292  0.00  0.00    +0.000 OA
ATOM      3  C   UNL     1      -2.519  12.662  23.277  0.00  0.00    +0.000 C 
ATOM      4  O   UNL     1      -3.221  12.723  24.270  0.00  0.00    +0.000 OA
ATOM      5  C   UNL     1      -2.898  13.051  21.896  0.00  0.00    +0.000 C 
ATOM      6  C   UNL     1      -1.807  12.854  21.133  0.00  0.00    +0.000 C 
ENDROOT
BRANCH   5   7
ATOM      7  C   UNL     1      -4.240  13.450  21.501  0.00  0.00    +0.000 A 
ATOM      8  C   UNL     1      -4.519  14.738  20.966  0.00  0.00    +0.000 A 
ATOM      9  C   UNL     1      -5.680  14.986  20.236  0.00  0.00    +0.000 A 
ATOM     10  C   UNL     1      -6.504  13.917  20.023  0.00  0.00    +0.000 A 
ATOM     11  C   UNL     1      -6.307  12.701  20.642  0.00  0.00    +0.000 A 
ATOM     12  C   UNL     1      -5.218  12.447  21.431  0.00  0.00    +0.000 A 
ATOM     13  O   UNL     1      -7.183  11.754  20.214  0.00  0.00    +0.000 OA
ATOM     14  C   UNL     1      -7.577  12.394  18.986  0.00  0.00    +0.000 C 
ATOM     15  O   UNL     1      -7.491  13.832  19.082  0.00  0.00    +0.000 OA
ENDBRANCH   5   7
BRANCH   1  19
ATOM     16  C   UNL     1       0.960   8.385  21.020  0.00  0.00    +0.000 A 
ATOM     17  C   UNL     1      -0.215   8.493  21.754  0.00  0.00    +0.000 A 
ATOM     18  C   UNL     1      -0.764   9.746  22.027  0.00  0.00    +0.000 A 
ATOM     19  C   UNL     1      -0.163  10.931  21.554  0.00  0.00    +0.000 A 
ATOM     20  C   UNL     1       0.952  10.799  20.698  0.00  0.00    +0.000 A 
ATOM     21  C   UNL     1       1.524   9.536  20.473  0.00  0.00    +0.000 A 
BRANCH  16  23
ATOM     22  C   UNL     1       2.308   6.854  19.806  0.00  0.00    +0.000 C 
ATOM     23  O   UNL     1       1.463   7.118  20.919  0.00  0.00    +0.000 OA
ENDBRANCH  16  23
BRANCH  20  24
ATOM     24  O   UNL     1       1.480  11.941  20.150  0.00  0.00    +0.000 OA
ATOM     25  C   UNL     1       1.862  11.857  18.775  0.00  0.00    +0.000 C 
ENDBRANCH  20  24
ENDBRANCH   1  19
BRANCH   1  26
ATOM     26  O   UNL     1       0.308  13.276  22.052  0.00  0.00    +0.000 OA
ATOM     27  H   UNL     1       1.006  12.847  22.578  0.00  0.00    +0.000 HD
ENDBRANCH   1  26
BRANCH   6  28
ATOM     28  C   UNL     1      -1.670  13.060  19.659  0.00  0.00    +0.000 C 
BRANCH  28  29
ATOM     29  C   UNL     1      -2.208  11.969  18.744  0.00  0.00    +0.000 A 
ATOM     30  C   UNL     1      -1.381  10.969  18.213  0.00  0.00    +0.000 A 
ATOM     31  C   UNL     1      -1.923   9.882  17.519  0.00  0.00    +0.000 A 
ATOM     32  C   UNL     1      -3.303   9.772  17.349  0.00  0.00    +0.000 A 
ATOM     33  C   UNL     1      -4.135  10.779  17.824  0.00  0.00    +0.000 A 
ATOM     34  C   UNL     1      -3.593  11.874  18.508  0.00  0.00    +0.000 A 
ENDBRANCH  28  29
ENDBRANCH   6  28
TORSDOF 7
ENDMDL
MODEL 6
REMARK VINA RESULT:      -8.3      5.053     10.540
REMARK  Name = 
REMARK  9 active torsions:
REMARK  status: ('A' for Active; 'I' for Inactive)
REMARK    1  A    between atoms: C_1  and  O_2
REMARK    2  A    between atoms: O_2  and  C_3
REMARK    3  A    between atoms: C_6  and  C_7
REMARK    4  A    between atoms: C_7  and  O_8
REMARK    5  A    between atoms: C_12  and  C_13
REMARK    6  A    between atoms: C_22  and  C_23
REMARK    7  A    between atoms: C_23  and  C_24
REMARK    8  A    between atoms: C_30  and  O_31
REMARK    9  A    between atoms: O_31  and  C_32
REMARK                            x       y       z     vdW  Elec       q    Type
REMARK                         _______ _______ _______ _____ _____    ______ ____
ROOT
ATOM      1  C   UNL     1       1.209  10.346  18.817  0.00  0.00    +0.000 C 
ATOM      2  O   UNL     1       2.184  11.278  19.234  0.00  0.00    +0.000 OA
ATOM      3  C   UNL     1       1.558  12.289  19.896  0.00  0.00    +0.000 C 
ATOM      4  O   UNL     1       2.143  13.255  20.350  0.00  0.00    +0.000 OA
ATOM      5  C   UNL     1       0.103  12.010  19.981  0.00  0.00    +0.000 C 
ATOM      6  C   UNL     1      -0.105  10.861  19.312  0.00  0.00    +0.000 C 
ENDROOT
BRANCH   5   7
ATOM      7  C   UNL     1      -0.836  12.810  20.755  0.00  0.00    +0.000 A 
ATOM      8  C   UNL     1      -1.579  13.875  20.173  0.00  0.00    +0.000 A 
ATOM      9  C   UNL     1      -2.733  14.369  20.778  0.00  0.00    +0.000 A 
ATOM     10  C   UNL     1      -3.134  13.745  21.925  0.00  0.00    +0.000 A 
ATOM     11  C   UNL     1      -2.354  12.803  22.560  0.00  0.00    +0.000 A 
ATOM     12  C   UNL     1      -1.175  12.350  22.036  0.00  0.00    +0.000 A 
ATOM     13  O   UNL     1      -2.985  12.243  23.627  0.00  0.00    +0.000 OA
ATOM     14  C   UNL     1      -4.332  12.599  23.265  0.00  0.00    +0.000 C 
ATOM     15  O   UNL     1      -4.373  13.820  22.496  0.00  0.00    +0.000 OA
ENDBRANCH   5   7
BRANCH   1  19
ATOM     16  C   UNL     1       2.101   6.263  20.057  0.00  0.00    +0.000 A 
ATOM     17  C   UNL     1       2.402   6.697  18.772  0.00  0.00    +0.000 A 
ATOM     18  C   UNL     1       2.147   8.015  18.395  0.00  0.00    +0.000 A 
ATOM     19  C   UNL     1       1.602   8.948  19.303  0.00  0.00    +0.000 A 
ATOM     20  C   UNL     1       1.429   8.530  20.640  0.00  0.00    +0.000 A 
ATOM     21  C   UNL     1       1.641   7.187  20.993  0.00  0.00    +0.000 A 
BRANCH  16  23
ATOM     22  C   UNL     1       1.113   4.119  20.310  0.00  0.00    +0.000 C 
ATOM     23  O   UNL     1       2.284   4.925  20.272  0.00  0.00    +0.000 OA
ENDBRANCH  16  23
BRANCH  20  24
ATOM     24  O   UNL     1       0.997   9.460  21.553  0.00  0.00    +0.000 OA
ATOM     25  C   UNL     1       0.051   8.996  22.518  0.00  0.00    +0.000 C 
ENDBRANCH  20  24
ENDBRANCH   1  19
BRANCH   1  26
ATOM     26  O   UNL     1       1.177  10.420  17.399  0.00  0.00    +0.000 OA
ATOM     27  H   UNL     1       0.229  10.352  17.188  0.00  0.00    +0.000 HD
ENDBRANCH   1  26
BRANCH   6  28
ATOM     28  C   UNL     1      -1.393  10.126  19.131  0.00  0.00    +0.000 C 
BRANCH  28  29
ATOM     29  C   UNL     1      -2.254  10.502  17.933  0.00  0.00    +0.000 A 
ATOM     30  C   UNL     1      -2.078   9.908  16.675  0.00  0.00    +0.000 A 
ATOM     31  C   UNL     1      -2.987  10.139  15.638  0.00  0.00    +0.000 A 
ATOM     32  C   UNL     1      -4.094  10.963  15.842  0.00  0.00    +0.000 A 
ATOM     33  C   UNL     1      -4.258  11.601  17.065  0.00  0.00    +0.000 A 
ATOM     34  C   UNL     1      -3.341  11.381  18.101  0.00  0.00    +0.000 A 
ENDBRANCH  28  29
ENDBRANCH   6  28
TORSDOF 7
ENDMDL
MODEL 7
REMARK VINA RESULT:      -8.1      4.929     10.647
REMARK  Name = 
REMARK  9 active torsions:
REMARK  status: ('A' for Active; 'I' for Inactive)
REMARK    1  A    between atoms: C_1  and  O_2
REMARK    2  A    between atoms: O_2  and  C_3
REMARK    3  A    between atoms: C_6  and  C_7
REMARK    4  A    between atoms: C_7  and  O_8
REMARK    5  A    between atoms: C_12  and  C_13
REMARK    6  A    between atoms: C_22  and  C_23
REMARK    7  A    between atoms: C_23  and  C_24
REMARK    8  A    between atoms: C_30  and  O_31
REMARK    9  A    between atoms: O_31  and  C_32
REMARK                            x       y       z     vdW  Elec       q    Type
REMARK                         _______ _______ _______ _____ _____    ______ ____
ROOT
ATOM      1  C   UNL     1       0.984  10.402  18.892  0.00  0.00    +0.000 C 
ATOM      2  O   UNL     1       1.879  11.406  19.319  0.00  0.00    +0.000 OA
ATOM      3  C   UNL     1       1.167  12.370  19.964  0.00  0.00    +0.000 C 
ATOM      4  O   UNL     1       1.671  13.379  20.423  0.00  0.00    +0.000 OA
ATOM      5  C   UNL     1      -0.264  11.983  20.027  0.00  0.00    +0.000 C 
ATOM      6  C   UNL     1      -0.373  10.819  19.362  0.00  0.00    +0.000 C 
ENDROOT
BRANCH   5   7
ATOM      7  C   UNL     1      -1.273  12.714  20.780  0.00  0.00    +0.000 A 
ATOM      8  C   UNL     1      -2.315  13.439  20.139  0.00  0.00    +0.000 A 
ATOM      9  C   UNL     1      -3.477  13.795  20.821  0.00  0.00    +0.000 A 
ATOM     10  C   UNL     1      -3.578  13.369  22.115  0.00  0.00    +0.000 A 
ATOM     11  C   UNL     1      -2.524  12.780  22.779  0.00  0.00    +0.000 A 
ATOM     12  C   UNL     1      -1.338  12.487  22.162  0.00  0.00    +0.000 A 
ATOM     13  O   UNL     1      -2.871  12.349  24.021  0.00  0.00    +0.000 OA
ATOM     14  C   UNL     1      -4.297  12.318  23.825  0.00  0.00    +0.000 C 
ATOM     15  O   UNL     1      -4.723  13.301  22.857  0.00  0.00    +0.000 OA
ENDBRANCH   5   7
BRANCH   1  19
ATOM     16  C   UNL     1       2.160   6.403  20.170  0.00  0.00    +0.000 A 
ATOM     17  C   UNL     1       2.453   6.854  18.889  0.00  0.00    +0.000 A 
ATOM     18  C   UNL     1       2.106   8.148  18.501  0.00  0.00    +0.000 A 
ATOM     19  C   UNL     1       1.473   9.039  19.392  0.00  0.00    +0.000 A 
ATOM     20  C   UNL     1       1.305   8.614  20.728  0.00  0.00    +0.000 A 
ATOM     21  C   UNL     1       1.612   7.292  21.092  0.00  0.00    +0.000 A 
BRANCH  16  23
ATOM     22  C   UNL     1       3.483   4.510  19.618  0.00  0.00    +0.000 C 
ATOM     23  O   UNL     1       2.440   5.084  20.396  0.00  0.00    +0.000 OA
ENDBRANCH  16  23
BRANCH  20  24
ATOM     24  O   UNL     1       0.785   9.511  21.627  0.00  0.00    +0.000 OA
ATOM     25  C   UNL     1      -0.222   9.004  22.506  0.00  0.00    +0.000 C 
ENDBRANCH  20  24
ENDBRANCH   1  19
BRANCH   1  26
ATOM     26  O   UNL     1       0.971  10.466  17.473  0.00  0.00    +0.000 OA
ATOM     27  H   UNL     1       0.679   9.576  17.206  0.00  0.00    +0.000 HD
ENDBRANCH   1  26
BRANCH   6  28
ATOM     28  C   UNL     1      -1.599   9.988  19.163  0.00  0.00    +0.000 C 
BRANCH  28  29
ATOM     29  C   UNL     1      -2.467  10.295  17.951  0.00  0.00    +0.000 A 
ATOM     30  C   UNL     1      -3.606  11.109  18.039  0.00  0.00    +0.000 A 
ATOM     31  C   UNL     1      -4.287  11.518  16.888  0.00  0.00    +0.000 A 
ATOM     32  C   UNL     1      -3.838  11.127  15.627  0.00  0.00    +0.000 A 
ATOM     33  C   UNL     1      -2.742  10.279  15.522  0.00  0.00    +0.000 A 
ATOM     34  C   UNL     1      -2.066   9.858  16.674  0.00  0.00    +0.000 A 
ENDBRANCH  28  29
ENDBRANCH   6  28
TORSDOF 7
ENDMDL
MODEL 8
REMARK VINA RESULT:      -8.1      6.216     11.249
REMARK  Name = 
REMARK  9 active torsions:
REMARK  status: ('A' for Active; 'I' for Inactive)
REMARK    1  A    between atoms: C_1  and  O_2
REMARK    2  A    between atoms: O_2  and  C_3
REMARK    3  A    between atoms: C_6  and  C_7
REMARK    4  A    between atoms: C_7  and  O_8
REMARK    5  A    between atoms: C_12  and  C_13
REMARK    6  A    between atoms: C_22  and  C_23
REMARK    7  A    between atoms: C_23  and  C_24
REMARK    8  A    between atoms: C_30  and  O_31
REMARK    9  A    between atoms: O_31  and  C_32
REMARK                            x       y       z     vdW  Elec       q    Type
REMARK                         _______ _______ _______ _____ _____    ______ ____
ROOT
ATOM      1  C   UNL     1      -2.409  12.517  23.056  0.00  0.00    +0.000 C 
ATOM      2  O   UNL     1      -1.403  11.711  23.630  0.00  0.00    +0.000 OA
ATOM      3  C   UNL     1      -0.619  11.224  22.630  0.00  0.00    +0.000 C 
ATOM      4  O   UNL     1       0.320  10.472  22.821  0.00  0.00    +0.000 OA
ATOM      5  C   UNL     1      -1.074  11.763  21.324  0.00  0.00    +0.000 C 
ATOM      6  C   UNL     1      -2.160  12.514  21.581  0.00  0.00    +0.000 C 
ENDROOT
BRANCH   5   7
ATOM      7  C   UNL     1      -0.364  11.566  20.069  0.00  0.00    +0.000 A 
ATOM      8  C   UNL     1       0.616  12.487  19.604  0.00  0.00    +0.000 A 
ATOM      9  C   UNL     1       1.557  12.121  18.643  0.00  0.00    +0.000 A 
ATOM     10  C   UNL     1       1.516  10.825  18.214  0.00  0.00    +0.000 A 
ATOM     11  C   UNL     1       0.496   9.967  18.562  0.00  0.00    +0.000 A 
ATOM     12  C   UNL     1      -0.491  10.318  19.443  0.00  0.00    +0.000 A 
ATOM     13  O   UNL     1       0.703   8.703  18.105  0.00  0.00    +0.000 OA
ATOM     14  C   UNL     1       2.121   8.808  17.880  0.00  0.00    +0.000 C 
ATOM     15  O   UNL     1       2.511  10.160  17.555  0.00  0.00    +0.000 OA
ENDBRANCH   5   7
BRANCH   1  19
ATOM     16  C   UNL     1      -2.289  16.306  25.209  0.00  0.00    +0.000 A 
ATOM     17  C   UNL     1      -1.129  15.750  24.686  0.00  0.00    +0.000 A 
ATOM     18  C   UNL     1      -1.181  14.556  23.966  0.00  0.00    +0.000 A 
ATOM     19  C   UNL     1      -2.403  13.893  23.730  0.00  0.00    +0.000 A 
ATOM     20  C   UNL     1      -3.587  14.539  24.150  0.00  0.00    +0.000 A 
ATOM     21  C   UNL     1      -3.516  15.713  24.917  0.00  0.00    +0.000 A 
BRANCH  16  23
ATOM     22  C   UNL     1      -0.900  17.447  26.761  0.00  0.00    +0.000 C 
ATOM     23  O   UNL     1      -2.097  17.410  25.993  0.00  0.00    +0.000 OA
ENDBRANCH  16  23
BRANCH  20  24
ATOM     24  O   UNL     1      -4.786  13.951  23.833  0.00  0.00    +0.000 OA
ATOM     25  C   UNL     1      -5.867  14.845  23.558  0.00  0.00    +0.000 C 
ENDBRANCH  20  24
ENDBRANCH   1  19
BRANCH   1  26
ATOM     26  O   UNL     1      -3.633  11.832  23.272  0.00  0.00    +0.000 OA
ATOM     27  H   UNL     1      -3.373  11.059  23.804  0.00  0.00    +0.000 HD
ENDBRANCH   1  26
BRANCH   6  28
ATOM     28  C   UNL     1      -2.976  13.307  20.612  0.00  0.00    +0.000 C 
BRANCH  28  29
ATOM     29  C   UNL     1      -4.068  12.573  19.846  0.00  0.00    +0.000 A 
ATOM     30  C   UNL     1      -3.796  11.843  18.680  0.00  0.00    +0.000 A 
ATOM     31  C   UNL     1      -4.776  11.037  18.093  0.00  0.00    +0.000 A 
ATOM     32  C   UNL     1      -6.045  10.941  18.664  0.00  0.00    +0.000 A 
ATOM     33  C   UNL     1      -6.349  11.696  19.790  0.00  0.00    +0.000 A 
ATOM     34  C   UNL     1      -5.372  12.513  20.373  0.00  0.00    +0.000 A 
ENDBRANCH  28  29
ENDBRANCH   6  28
TORSDOF 7
ENDMDL
MODEL 9
REMARK VINA RESULT:      -8.0      6.514     12.844
REMARK  Name = 
REMARK  9 active torsions:
REMARK  status: ('A' for Active; 'I' for Inactive)
REMARK    1  A    between atoms: C_1  and  O_2
REMARK    2  A    between atoms: O_2  and  C_3
REMARK    3  A    between atoms: C_6  and  C_7
REMARK    4  A    between atoms: C_7  and  O_8
REMARK    5  A    between atoms: C_12  and  C_13
REMARK    6  A    between atoms: C_22  and  C_23
REMARK    7  A    between atoms: C_23  and  C_24
REMARK    8  A    between atoms: C_30  and  O_31
REMARK    9  A    between atoms: O_31  and  C_32
REMARK                            x       y       z     vdW  Elec       q    Type
REMARK                         _______ _______ _______ _____ _____    ______ ____
ROOT
ATOM      1  C   UNL     1      -0.069  11.715  20.505  0.00  0.00    +0.000 C 
ATOM      2  O   UNL     1      -0.071  10.682  21.467  0.00  0.00    +0.000 OA
ATOM      3  C   UNL     1      -0.653  11.154  22.604  0.00  0.00    +0.000 C 
ATOM      4  O   UNL     1      -0.772  10.493  23.619  0.00  0.00    +0.000 OA
ATOM      5  C   UNL     1      -1.115  12.548  22.392  0.00  0.00    +0.000 C 
ATOM      6  C   UNL     1      -0.741  12.888  21.145  0.00  0.00    +0.000 C 
ENDROOT
BRANCH   5   7
ATOM      7  C   UNL     1      -1.914  13.297  23.351  0.00  0.00    +0.000 A 
ATOM      8  C   UNL     1      -1.390  14.411  24.064  0.00  0.00    +0.000 A 
ATOM      9  C   UNL     1      -2.229  15.349  24.663  0.00  0.00    +0.000 A 
ATOM     10  C   UNL     1      -3.571  15.166  24.485  0.00  0.00    +0.000 A 
ATOM     11  C   UNL     1      -4.087  14.026  23.908  0.00  0.00    +0.000 A 
ATOM     12  C   UNL     1      -3.293  13.045  23.381  0.00  0.00    +0.000 A 
ATOM     13  O   UNL     1      -5.435  14.094  23.743  0.00  0.00    +0.000 OA
ATOM     14  C   UNL     1      -5.570  15.524  23.838  0.00  0.00    +0.000 C 
ATOM     15  O   UNL     1      -4.547  16.103  24.676  0.00  0.00    +0.000 OA
ENDBRANCH   5   7
BRANCH   1  19
ATOM     16  C   UNL     1      -2.086  10.126  16.982  0.00  0.00    +0.000 A 
ATOM     17  C   UNL     1      -2.619  11.202  17.680  0.00  0.00    +0.000 A 
ATOM     18  C   UNL     1      -1.948  11.727  18.785  0.00  0.00    +0.000 A 
ATOM     19  C   UNL     1      -0.710  11.204  19.211  0.00  0.00    +0.000 A 
ATOM     20  C   UNL     1      -0.117  10.203  18.412  0.00  0.00    +0.000 A 
ATOM     21  C   UNL     1      -0.825   9.647  17.334  0.00  0.00    +0.000 A 
BRANCH  16  23
ATOM     22  C   UNL     1      -3.417  10.560  15.064  0.00  0.00    +0.000 C 
ATOM     23  O   UNL     1      -2.889   9.624  15.995  0.00  0.00    +0.000 OA
ENDBRANCH  16  23
BRANCH  20  24
ATOM     24  O   UNL     1       1.135   9.760  18.761  0.00  0.00    +0.000 OA
ATOM     25  C   UNL     1       1.828   8.998  17.770  0.00  0.00    +0.000 C 
ENDBRANCH  20  24
ENDBRANCH   1  19
BRANCH   1  26
ATOM     26  O   UNL     1       1.292  12.069  20.312  0.00  0.00    +0.000 OA
ATOM     27  H   UNL     1       1.315  12.406  19.400  0.00  0.00    +0.000 HD
ENDBRANCH   1  26
BRANCH   6  28
ATOM     28  C   UNL     1      -0.996  14.175  20.430  0.00  0.00    +0.000 C 
BRANCH  28  29
ATOM     29  C   UNL     1       0.183  15.118  20.236  0.00  0.00    +0.000 A 
ATOM     30  C   UNL     1       0.971  15.554  21.310  0.00  0.00    +0.000 A 
ATOM     31  C   UNL     1       2.148  16.276  21.091  0.00  0.00    +0.000 A 
ATOM     32  C   UNL     1       2.563  16.571  19.792  0.00  0.00    +0.000 A 
ATOM     33  C   UNL     1       1.769  16.191  18.716  0.00  0.00    +0.000 A 
ATOM     34  C   UNL     1       0.583  15.479  18.935  0.00  0.00    +0.000 A 
ENDBRANCH  28  29
ENDBRANCH   6  28
TORSDOF 7
ENDMDL
