MODEL 1
REMARK VINA RESULT:      -8.2      0.000      0.000
REMARK  Name = 
REMARK  6 active torsions:
REMARK  status: ('A' for Active; 'I' for Inactive)
REMARK    1  A    between atoms: C_1  and  C_2
REMARK    2  A    between atoms: C_4  and  C_5
REMARK    3  A    between atoms: C_7  and  C_8
REMARK    4  A    between atoms: C_8  and  N_9
REMARK    5  A    between atoms: C_13  and  C_14
REMARK    6  A    between atoms: C_17  and  C_18
REMARK                            x       y       z     vdW  Elec       q    Type
REMARK                         _______ _______ _______ _____ _____    ______ ____
ROOT
ATOM      1  N   UNL     1       5.092   4.867  16.812  0.00  0.00    +0.000 NA
ATOM      2  C   UNL     1       4.903   5.086  15.374  0.00  0.00    +0.000 C 
ATOM      3  C   UNL     1       5.981   4.279  14.678  0.00  0.00    +0.000 C 
ATOM      4  C   UNL     1       7.146   4.288  15.646  0.00  0.00    +0.000 C 
ATOM      5  C   UNL     1       6.539   4.607  17.018  0.00  0.00    +0.000 C 
ENDROOT
BRANCH   5   6
ATOM      6  C   UNL     1       7.179   5.822  17.627  0.00  0.00    +0.000 A 
ATOM      7  N   UNL     1       7.888   5.781  18.766  0.00  0.00    +0.000 NA
ATOM      8  O   UNL     1       8.319   7.098  18.924  0.00  0.00    +0.000 OA
ATOM      9  C   UNL     1       7.833   7.796  17.858  0.00  0.00    +0.000 A 
ATOM     10  C   UNL     1       8.152   9.229  17.781  0.00  0.00    +0.000 C 
ATOM     11  N   UNL     1       7.135   7.060  17.026  0.00  0.00    +0.000 NA
ENDBRANCH   5   6
BRANCH   1  12
ATOM     12  C   UNL     1       4.261   3.793  17.364  0.00  0.00    +0.000 C 
BRANCH  12  19
ATOM     13  C   UNL     1       2.054   7.519  19.943  0.00  0.00    +0.000 C 
ATOM     14  C   UNL     1       2.296   6.051  19.753  0.00  0.00    +0.000 A 
ATOM     15  C   UNL     1       1.811   5.115  20.674  0.00  0.00    +0.000 A 
ATOM     16  C   UNL     1       2.073   3.750  20.511  0.00  0.00    +0.000 A 
ATOM     17  C   UNL     1       1.523   2.742  21.478  0.00  0.00    +0.000 C 
ATOM     18  C   UNL     1       2.857   3.325  19.428  0.00  0.00    +0.000 A 
ATOM     19  C   UNL     1       3.355   4.245  18.493  0.00  0.00    +0.000 A 
ATOM     20  C   UNL     1       3.053   5.606  18.660  0.00  0.00    +0.000 A 
ENDBRANCH  12  19
ENDBRANCH   1  12
TORSDOF 3
ENDMDL
MODEL 2
REMARK VINA RESULT:      -8.1      0.233      1.940
REMARK  Name = 
REMARK  6 active torsions:
REMARK  status: ('A' for Active; 'I' for Inactive)
REMARK    1  A    between atoms: C_1  and  C_2
REMARK    2  A    between atoms: C_4  and  C_5
REMARK    3  A    between atoms: C_7  and  C_8
REMARK    4  A    between atoms: C_8  and  N_9
REMARK    5  A    between atoms: C_13  and  C_14
REMARK    6  A    between atoms: C_17  and  C_18
REMARK                            x       y       z     vdW  Elec       q    Type
REMARK                         _______ _______ _______ _____ _____    ______ ____
ROOT
ATOM      1  N   UNL     1       5.033   5.019  16.569  0.00  0.00    +0.000 NA
ATOM      2  C   UNL     1       5.044   5.170  15.110  0.00  0.00    +0.000 C 
ATOM      3  C   UNL     1       6.108   4.223  14.594  0.00  0.00    +0.000 C 
ATOM      4  C   UNL     1       7.142   4.176  15.701  0.00  0.00    +0.000 C 
ATOM      5  C   UNL     1       6.410   4.634  16.968  0.00  0.00    +0.000 C 
ENDROOT
BRANCH   5   6
ATOM      6  C   UNL     1       7.093   5.815  17.595  0.00  0.00    +0.000 A 
ATOM      7  N   UNL     1       7.837   5.723  18.709  0.00  0.00    +0.000 NA
ATOM      8  O   UNL     1       8.299   7.026  18.896  0.00  0.00    +0.000 OA
ATOM      9  C   UNL     1       7.793   7.767  17.870  0.00  0.00    +0.000 A 
ATOM     10  C   UNL     1       8.139   9.196  17.829  0.00  0.00    +0.000 C 
ATOM     11  N   UNL     1       7.055   7.073  17.037  0.00  0.00    +0.000 NA
ENDBRANCH   5   6
BRANCH   1  12
ATOM     12  C   UNL     1       4.035   4.065  17.061  0.00  0.00    +0.000 C 
BRANCH  12  19
ATOM     13  C   UNL     1       1.870   2.883  21.457  0.00  0.00    +0.000 C 
ATOM     14  C   UNL     1       2.296   3.931  20.471  0.00  0.00    +0.000 A 
ATOM     15  C   UNL     1       1.960   5.276  20.658  0.00  0.00    +0.000 A 
ATOM     16  C   UNL     1       2.328   6.243  19.714  0.00  0.00    +0.000 A 
ATOM     17  C   UNL     1       1.999   7.691  19.931  0.00  0.00    +0.000 C 
ATOM     18  C   UNL     1       3.012   5.845  18.556  0.00  0.00    +0.000 A 
ATOM     19  C   UNL     1       3.359   4.502  18.347  0.00  0.00    +0.000 A 
ATOM     20  C   UNL     1       3.006   3.556  19.322  0.00  0.00    +0.000 A 
ENDBRANCH  12  19
ENDBRANCH   1  12
TORSDOF 3
ENDMDL
MODEL 3
REMARK VINA RESULT:      -7.9      0.983      1.199
REMARK  Name = 
REMARK  6 active torsions:
REMARK  status: ('A' for Active; 'I' for Inactive)
REMARK    1  A    between atoms: C_1  and  C_2
REMARK    2  A    between atoms: C_4  and  C_5
REMARK    3  A    between atoms: C_7  and  C_8
REMARK    4  A    between atoms: C_8  and  N_9
REMARK    5  A    between atoms: C_13  and  C_14
REMARK    6  A    between atoms: C_17  and  C_18
REMARK                            x       y       z     vdW  Elec       q    Type
REMARK                         _______ _______ _______ _____ _____    ______ ____
ROOT
ATOM      1  N   UNL     1       5.465   4.923  17.578  0.00  0.00    +0.000 NA
ATOM      2  C   UNL     1       4.964   4.619  16.233  0.00  0.00    +0.000 C 
ATOM      3  C   UNL     1       6.075   3.868  15.526  0.00  0.00    +0.000 C 
ATOM      4  C   UNL     1       7.350   4.429  16.122  0.00  0.00    +0.000 C 
ATOM      5  C   UNL     1       6.940   5.045  17.465  0.00  0.00    +0.000 C 
ENDROOT
BRANCH   5   6
ATOM      6  C   UNL     1       7.324   6.495  17.538  0.00  0.00    +0.000 A 
ATOM      7  N   UNL     1       6.850   7.420  16.688  0.00  0.00    +0.000 NA
ATOM      8  O   UNL     1       7.426   8.605  17.147  0.00  0.00    +0.000 OA
ATOM      9  C   UNL     1       8.181   8.273  18.233  0.00  0.00    +0.000 A 
ATOM     10  C   UNL     1       8.901   9.358  18.917  0.00  0.00    +0.000 C 
ATOM     11  N   UNL     1       8.146   6.994  18.523  0.00  0.00    +0.000 NA
ENDBRANCH   5   6
BRANCH   1  12
ATOM     12  C   UNL     1       5.075   3.940  18.593  0.00  0.00    +0.000 C 
BRANCH  12  19
ATOM     13  C   UNL     1       1.857   7.480  20.181  0.00  0.00    +0.000 C 
ATOM     14  C   UNL     1       2.269   6.038  20.139  0.00  0.00    +0.000 A 
ATOM     15  C   UNL     1       1.595   5.074  20.898  0.00  0.00    +0.000 A 
ATOM     16  C   UNL     1       2.009   3.736  20.884  0.00  0.00    +0.000 A 
ATOM     17  C   UNL     1       1.266   2.696  21.670  0.00  0.00    +0.000 C 
ATOM     18  C   UNL     1       3.131   3.372  20.125  0.00  0.00    +0.000 A 
ATOM     19  C   UNL     1       3.822   4.322  19.357  0.00  0.00    +0.000 A 
ATOM     20  C   UNL     1       3.369   5.651  19.362  0.00  0.00    +0.000 A 
ENDBRANCH  12  19
ENDBRANCH   1  12
TORSDOF 3
ENDMDL
MODEL 4
REMARK VINA RESULT:      -7.8      2.551      5.958
REMARK  Name = 
REMARK  6 active torsions:
REMARK  status: ('A' for Active; 'I' for Inactive)
REMARK    1  A    between atoms: C_1  and  C_2
REMARK    2  A    between atoms: C_4  and  C_5
REMARK    3  A    between atoms: C_7  and  C_8
REMARK    4  A    between atoms: C_8  and  N_9
REMARK    5  A    between atoms: C_13  and  C_14
REMARK    6  A    between atoms: C_17  and  C_18
REMARK                            x       y       z     vdW  Elec       q    Type
REMARK                         _______ _______ _______ _____ _____    ______ ____
ROOT
ATOM      1  N   UNL     1       3.300   3.848  19.908  0.00  0.00    +0.000 NA
ATOM      2  C   UNL     1       2.909   3.069  21.088  0.00  0.00    +0.000 C 
ATOM      3  C   UNL     1       1.490   2.599  20.835  0.00  0.00    +0.000 C 
ATOM      4  C   UNL     1       0.874   3.694  19.988  0.00  0.00    +0.000 C 
ATOM      5  C   UNL     1       2.056   4.441  19.357  0.00  0.00    +0.000 C 
ENDROOT
BRANCH   5   6
ATOM      6  C   UNL     1       2.015   5.904  19.690  0.00  0.00    +0.000 A 
ATOM      7  N   UNL     1       2.470   6.856  18.859  0.00  0.00    +0.000 NA
ATOM      8  O   UNL     1       2.197   8.039  19.545  0.00  0.00    +0.000 OA
ATOM      9  C   UNL     1       1.596   7.680  20.715  0.00  0.00    +0.000 A 
ATOM     10  C   UNL     1       1.197   8.757  21.633  0.00  0.00    +0.000 C 
ATOM     11  N   UNL     1       1.451   6.383  20.851  0.00  0.00    +0.000 NA
ENDBRANCH   5   6
BRANCH   1  12
ATOM     12  C   UNL     1       4.028   3.072  18.899  0.00  0.00    +0.000 C 
BRANCH  12  19
ATOM     13  C   UNL     1       5.864   4.244  14.353  0.00  0.00    +0.000 C 
ATOM     14  C   UNL     1       5.852   4.472  15.836  0.00  0.00    +0.000 A 
ATOM     15  C   UNL     1       6.767   5.342  16.439  0.00  0.00    +0.000 A 
ATOM     16  C   UNL     1       6.776   5.520  17.828  0.00  0.00    +0.000 A 
ATOM     17  C   UNL     1       7.733   6.480  18.472  0.00  0.00    +0.000 C 
ATOM     18  C   UNL     1       5.876   4.791  18.619  0.00  0.00    +0.000 A 
ATOM     19  C   UNL     1       4.951   3.912  18.037  0.00  0.00    +0.000 A 
ATOM     20  C   UNL     1       4.940   3.774  16.640  0.00  0.00    +0.000 A 
ENDBRANCH  12  19
ENDBRANCH   1  12
TORSDOF 3
ENDMDL
MODEL 5
REMARK VINA RESULT:      -7.7      2.557      5.932
REMARK  Name = 
REMARK  6 active torsions:
REMARK  status: ('A' for Active; 'I' for Inactive)
REMARK    1  A    between atoms: C_1  and  C_2
REMARK    2  A    between atoms: C_4  and  C_5
REMARK    3  A    between atoms: C_7  and  C_8
REMARK    4  A    between atoms: C_8  and  N_9
REMARK    5  A    between atoms: C_13  and  C_14
REMARK    6  A    between atoms: C_17  and  C_18
REMARK                            x       y       z     vdW  Elec       q    Type
REMARK                         _______ _______ _______ _____ _____    ______ ____
ROOT
ATOM      1  N   UNL     1       3.260   3.848  19.571  0.00  0.00    +0.000 NA
ATOM      2  C   UNL     1       3.073   3.027  20.772  0.00  0.00    +0.000 C 
ATOM      3  C   UNL     1       1.633   2.555  20.742  0.00  0.00    +0.000 C 
ATOM      4  C   UNL     1       0.882   3.673  20.048  0.00  0.00    +0.000 C 
ATOM      5  C   UNL     1       1.940   4.450  19.256  0.00  0.00    +0.000 C 
ENDROOT
BRANCH   5   6
ATOM      6  C   UNL     1       1.952   5.901  19.642  0.00  0.00    +0.000 A 
ATOM      7  N   UNL     1       2.436   6.866  18.844  0.00  0.00    +0.000 NA
ATOM      8  O   UNL     1       2.208   8.032  19.574  0.00  0.00    +0.000 OA
ATOM      9  C   UNL     1       1.601   7.651  20.733  0.00  0.00    +0.000 A 
ATOM     10  C   UNL     1       1.244   8.707  21.692  0.00  0.00    +0.000 C 
ATOM     11  N   UNL     1       1.411   6.357  20.823  0.00  0.00    +0.000 NA
ENDBRANCH   5   6
BRANCH   1  12
ATOM     12  C   UNL     1       3.811   3.113  18.428  0.00  0.00    +0.000 C 
BRANCH  12  19
ATOM     13  C   UNL     1       7.755   6.243  18.681  0.00  0.00    +0.000 C 
ATOM     14  C   UNL     1       6.864   5.357  17.862  0.00  0.00    +0.000 A 
ATOM     15  C   UNL     1       6.996   5.290  16.470  0.00  0.00    +0.000 A 
ATOM     16  C   UNL     1       6.135   4.490  15.708  0.00  0.00    +0.000 A 
ATOM     17  C   UNL     1       6.299   4.389  14.220  0.00  0.00    +0.000 C 
ATOM     18  C   UNL     1       5.112   3.776  16.351  0.00  0.00    +0.000 A 
ATOM     19  C   UNL     1       4.961   3.829  17.744  0.00  0.00    +0.000 A 
ATOM     20  C   UNL     1       5.855   4.613  18.490  0.00  0.00    +0.000 A 
ENDBRANCH  12  19
ENDBRANCH   1  12
TORSDOF 3
ENDMDL
MODEL 6
REMARK VINA RESULT:      -7.7      2.478      5.748
REMARK  Name = 
REMARK  6 active torsions:
REMARK  status: ('A' for Active; 'I' for Inactive)
REMARK    1  A    between atoms: C_1  and  C_2
REMARK    2  A    between atoms: C_4  and  C_5
REMARK    3  A    between atoms: C_7  and  C_8
REMARK    4  A    between atoms: C_8  and  N_9
REMARK    5  A    between atoms: C_13  and  C_14
REMARK    6  A    between atoms: C_17  and  C_18
REMARK                            x       y       z     vdW  Elec       q    Type
REMARK                         _______ _______ _______ _____ _____    ______ ____
ROOT
ATOM      1  N   UNL     1       3.376   4.115  19.451  0.00  0.00    +0.000 NA
ATOM      2  C   UNL     1       2.346   3.128  19.792  0.00  0.00    +0.000 C 
ATOM      3  C   UNL     1       1.532   2.913  18.533  0.00  0.00    +0.000 C 
ATOM      4  C   UNL     1       1.578   4.249  17.820  0.00  0.00    +0.000 C 
ATOM      5  C   UNL     1       2.806   4.975  18.384  0.00  0.00    +0.000 C 
ENDROOT
BRANCH   5   6
ATOM      6  C   UNL     1       2.431   6.306  18.967  0.00  0.00    +0.000 A 
ATOM      7  N   UNL     1       2.461   7.449  18.262  0.00  0.00    +0.000 NA
ATOM      8  O   UNL     1       2.002   8.401  19.172  0.00  0.00    +0.000 OA
ATOM      9  C   UNL     1       1.733   7.733  20.329  0.00  0.00    +0.000 A 
ATOM     10  C   UNL     1       1.223   8.518  21.464  0.00  0.00    +0.000 C 
ATOM     11  N   UNL     1       1.968   6.445  20.257  0.00  0.00    +0.000 NA
ENDBRANCH   5   6
BRANCH   1  12
ATOM     12  C   UNL     1       4.657   3.525  19.050  0.00  0.00    +0.000 C 
BRANCH  12  19
ATOM     13  C   UNL     1       6.097   3.998  14.243  0.00  0.00    +0.000 C 
ATOM     14  C   UNL     1       6.087   4.535  15.644  0.00  0.00    +0.000 A 
ATOM     15  C   UNL     1       6.837   5.665  15.988  0.00  0.00    +0.000 A 
ATOM     16  C   UNL     1       6.854   6.138  17.306  0.00  0.00    +0.000 A 
ATOM     17  C   UNL     1       7.629   7.370  17.669  0.00  0.00    +0.000 C 
ATOM     18  C   UNL     1       6.134   5.447  18.292  0.00  0.00    +0.000 A 
ATOM     19  C   UNL     1       5.376   4.311  17.971  0.00  0.00    +0.000 A 
ATOM     20  C   UNL     1       5.350   3.874  16.637  0.00  0.00    +0.000 A 
ENDBRANCH  12  19
ENDBRANCH   1  12
TORSDOF 3
ENDMDL
MODEL 7
REMARK VINA RESULT:      -7.7      2.519      5.614
REMARK  Name = 
REMARK  6 active torsions:
REMARK  status: ('A' for Active; 'I' for Inactive)
REMARK    1  A    between atoms: C_1  and  C_2
REMARK    2  A    between atoms: C_4  and  C_5
REMARK    3  A    between atoms: C_7  and  C_8
REMARK    4  A    between atoms: C_8  and  N_9
REMARK    5  A    between atoms: C_13  and  C_14
REMARK    6  A    between atoms: C_17  and  C_18
REMARK                            x       y       z     vdW  Elec       q    Type
REMARK                         _______ _______ _______ _____ _____    ______ ____
ROOT
ATOM      1  N   UNL     1       3.310   4.379  19.422  0.00  0.00    +0.000 NA
ATOM      2  C   UNL     1       2.274   3.432  19.851  0.00  0.00    +0.000 C 
ATOM      3  C   UNL     1       1.488   3.072  18.605  0.00  0.00    +0.000 C 
ATOM      4  C   UNL     1       1.549   4.318  17.746  0.00  0.00    +0.000 C 
ATOM      5  C   UNL     1       2.763   5.108  18.251  0.00  0.00    +0.000 C 
ENDROOT
BRANCH   5   6
ATOM      6  C   UNL     1       2.372   6.496  18.670  0.00  0.00    +0.000 A 
ATOM      7  N   UNL     1       2.169   6.843  19.951  0.00  0.00    +0.000 NA
ATOM      8  O   UNL     1       1.875   8.204  19.873  0.00  0.00    +0.000 OA
ATOM      9  C   UNL     1       1.942   8.540  18.554  0.00  0.00    +0.000 A 
ATOM     10  C   UNL     1       1.675   9.941  18.195  0.00  0.00    +0.000 C 
ATOM     11  N   UNL     1       2.253   7.534  17.772  0.00  0.00    +0.000 NA
ENDBRANCH   5   6
BRANCH   1  12
ATOM     12  C   UNL     1       4.600   3.751  19.120  0.00  0.00    +0.000 C 
BRANCH  12  19
ATOM     13  C   UNL     1       6.247   3.932  14.359  0.00  0.00    +0.000 C 
ATOM     14  C   UNL     1       6.191   4.544  15.728  0.00  0.00    +0.000 A 
ATOM     15  C   UNL     1       6.952   5.676  16.042  0.00  0.00    +0.000 A 
ATOM     16  C   UNL     1       6.925   6.220  17.332  0.00  0.00    +0.000 A 
ATOM     17  C   UNL     1       7.713   7.454  17.661  0.00  0.00    +0.000 C 
ATOM     18  C   UNL     1       6.150   5.598  18.323  0.00  0.00    +0.000 A 
ATOM     19  C   UNL     1       5.381   4.463  18.031  0.00  0.00    +0.000 A 
ATOM     20  C   UNL     1       5.399   3.954  16.723  0.00  0.00    +0.000 A 
ENDBRANCH  12  19
ENDBRANCH   1  12
TORSDOF 3
ENDMDL
MODEL 8
REMARK VINA RESULT:      -7.6      2.472      5.401
REMARK  Name = 
REMARK  6 active torsions:
REMARK  status: ('A' for Active; 'I' for Inactive)
REMARK    1  A    between atoms: C_1  and  C_2
REMARK    2  A    between atoms: C_4  and  C_5
REMARK    3  A    between atoms: C_7  and  C_8
REMARK    4  A    between atoms: C_8  and  N_9
REMARK    5  A    between atoms: C_13  and  C_14
REMARK    6  A    between atoms: C_17  and  C_18
REMARK                            x       y       z     vdW  Elec       q    Type
REMARK                         _______ _______ _______ _____ _____    ______ ____
ROOT
ATOM      1  N   UNL     1       3.430   4.288  19.533  0.00  0.00    +0.000 NA
ATOM      2  C   UNL     1       2.418   3.392  20.105  0.00  0.00    +0.000 C 
ATOM      3  C   UNL     1       1.555   2.935  18.946  0.00  0.00    +0.000 C 
ATOM      4  C   UNL     1       1.568   4.102  17.980  0.00  0.00    +0.000 C 
ATOM      5  C   UNL     1       2.814   4.920  18.340  0.00  0.00    +0.000 C 
ENDROOT
BRANCH   5   6
ATOM      6  C   UNL     1       2.457   6.343  18.662  0.00  0.00    +0.000 A 
ATOM      7  N   UNL     1       2.198   6.767  19.909  0.00  0.00    +0.000 NA
ATOM      8  O   UNL     1       1.964   8.132  19.742  0.00  0.00    +0.000 OA
ATOM      9  C   UNL     1       2.115   8.392  18.413  0.00  0.00    +0.000 A 
ATOM     10  C   UNL     1       1.924   9.780  17.965  0.00  0.00    +0.000 C 
ATOM     11  N   UNL     1       2.427   7.333  17.705  0.00  0.00    +0.000 NA
ENDBRANCH   5   6
BRANCH   1  12
ATOM     12  C   UNL     1       4.696   3.625  19.207  0.00  0.00    +0.000 C 
BRANCH  12  19
ATOM     13  C   UNL     1       7.648   7.434  17.731  0.00  0.00    +0.000 C 
ATOM     14  C   UNL     1       6.903   6.177  17.394  0.00  0.00    +0.000 A 
ATOM     15  C   UNL     1       6.816   5.722  16.074  0.00  0.00    +0.000 A 
ATOM     16  C   UNL     1       6.086   4.568  15.762  0.00  0.00    +0.000 A 
ATOM     17  C   UNL     1       6.022   4.059  14.351  0.00  0.00    +0.000 C 
ATOM     18  C   UNL     1       5.411   3.885  16.784  0.00  0.00    +0.000 A 
ATOM     19  C   UNL     1       5.483   4.323  18.115  0.00  0.00    +0.000 A 
ATOM     20  C   UNL     1       6.247   5.464  18.408  0.00  0.00    +0.000 A 
ENDBRANCH  12  19
ENDBRANCH   1  12
TORSDOF 3
ENDMDL
MODEL 9
REMARK VINA RESULT:      -7.6      2.489      5.561
REMARK  Name = 
REMARK  6 active torsions:
REMARK  status: ('A' for Active; 'I' for Inactive)
REMARK    1  A    between atoms: C_1  and  C_2
REMARK    2  A    between atoms: C_4  and  C_5
REMARK    3  A    between atoms: C_7  and  C_8
REMARK    4  A    between atoms: C_8  and  N_9
REMARK    5  A    between atoms: C_13  and  C_14
REMARK    6  A    between atoms: C_17  and  C_18
REMARK                            x       y       z     vdW  Elec       q    Type
REMARK                         _______ _______ _______ _____ _____    ______ ____
ROOT
ATOM      1  N   UNL     1       3.278   4.030  19.577  0.00  0.00    +0.000 NA
ATOM      2  C   UNL     1       2.210   3.083  19.912  0.00  0.00    +0.000 C 
ATOM      3  C   UNL     1       1.425   2.860  18.635  0.00  0.00    +0.000 C 
ATOM      4  C   UNL     1       1.533   4.175  17.890  0.00  0.00    +0.000 C 
ATOM      5  C   UNL     1       2.766   4.878  18.472  0.00  0.00    +0.000 C 
ENDROOT
BRANCH   5   6
ATOM      6  C   UNL     1       2.414   6.235  19.011  0.00  0.00    +0.000 A 
ATOM      7  N   UNL     1       2.471   7.353  18.270  0.00  0.00    +0.000 NA
ATOM      8  O   UNL     1       2.027   8.343  19.146  0.00  0.00    +0.000 OA
ATOM      9  C   UNL     1       1.739   7.719  20.323  0.00  0.00    +0.000 A 
ATOM     10  C   UNL     1       1.239   8.549  21.429  0.00  0.00    +0.000 C 
ATOM     11  N   UNL     1       1.948   6.424  20.293  0.00  0.00    +0.000 NA
ENDBRANCH   5   6
BRANCH   1  12
ATOM     12  C   UNL     1       4.551   3.392  19.230  0.00  0.00    +0.000 C 
BRANCH  12  19
ATOM     13  C   UNL     1       7.727   7.126  18.054  0.00  0.00    +0.000 C 
ATOM     14  C   UNL     1       6.875   5.972  17.613  0.00  0.00    +0.000 A 
ATOM     15  C   UNL     1       6.704   5.679  16.256  0.00  0.00    +0.000 A 
ATOM     16  C   UNL     1       5.877   4.624  15.851  0.00  0.00    +0.000 A 
ATOM     17  C   UNL     1       5.721   4.287  14.397  0.00  0.00    +0.000 C 
ATOM     18  C   UNL     1       5.192   3.878  16.821  0.00  0.00    +0.000 A 
ATOM     19  C   UNL     1       5.348   4.154  18.187  0.00  0.00    +0.000 A 
ATOM     20  C   UNL     1       6.206   5.196  18.570  0.00  0.00    +0.000 A 
ENDBRANCH  12  19
ENDBRANCH   1  12
TORSDOF 3
ENDMDL
