MODEL 1
REMARK VINA RESULT:      -7.8      0.000      0.000
REMARK  Name = 
REMARK  5 active torsions:
REMARK  status: ('A' for Active; 'I' for Inactive)
REMARK    1  A    between atoms: C_2  and  C_11
REMARK    2  A    between atoms: N_3  and  C_4
REMARK    3  A    between atoms: C_4  and  C_5
REMARK    4  A    between atoms: C_14  and  C_15
REMARK    5  A    between atoms: C_18  and  C_19
REMARK                            x       y       z     vdW  Elec       q    Type
REMARK                         _______ _______ _______ _____ _____    ______ ____
ROOT
ATOM      1  C   UNL     1       0.791   9.340  19.782  0.00  0.00    +0.000 A 
ATOM      2  C   UNL     1       1.150   9.602  18.458  0.00  0.00    +0.000 A 
ATOM      3  C   UNL     1       2.051   8.755  17.806  0.00  0.00    +0.000 A 
ATOM      4  C   UNL     1       2.602   7.628  18.448  0.00  0.00    +0.000 A 
ATOM      5  C   UNL     1       2.236   7.397  19.785  0.00  0.00    +0.000 A 
ATOM      6  C   UNL     1       1.339   8.242  20.446  0.00  0.00    +0.000 A 
ENDROOT
BRANCH   4   7
ATOM      7  C   UNL     1       3.521   6.713  17.747  0.00  0.00    +0.000 A 
ATOM      8  C   UNL     1       3.340   5.332  17.753  0.00  0.00    +0.000 A 
ATOM      9  C   UNL     1       4.246   4.520  17.079  0.00  0.00    +0.000 A 
ATOM     10  C   UNL     1       5.326   5.097  16.411  0.00  0.00    +0.000 A 
ATOM     11  C   UNL     1       5.440   6.477  16.456  0.00  0.00    +0.000 A 
ATOM     12  N   UNL     1       4.563   7.288  17.095  0.00  0.00    +0.000 NA
BRANCH  10  13
ATOM     13  C   UNL     1       6.330   4.279  15.664  0.00  0.00    +0.000 C 
ATOM     14  F   UNL     1       6.568   4.741  14.405  0.00  0.00    +0.000 F 
ATOM     15  F   UNL     1       7.541   4.249  16.284  0.00  0.00    +0.000 F 
ATOM     16  F   UNL     1       5.950   2.981  15.519  0.00  0.00    +0.000 F 
ENDBRANCH  10  13
ENDBRANCH   4   7
BRANCH   1  18
ATOM     17  O   UNL     1      -0.435  10.067  21.648  0.00  0.00    +0.000 OA
ATOM     18  C   UNL     1      -0.209  10.203  20.457  0.00  0.00    +0.000 C 
ATOM     19  N   UNL     1      -0.834  11.133  19.643  0.00  0.00    +0.000 N 
ATOM     20  H   UNL     1      -0.816  10.969  18.645  0.00  0.00    +0.000 HD
BRANCH  19  21
ATOM     21  C   UNL     1      -1.869  11.994  20.180  0.00  0.00    +0.000 C 
BRANCH  21  22
ATOM     22  C   UNL     1      -2.989  12.276  19.171  0.00  0.00    +0.000 C 
ATOM     23  C   UNL     1      -4.359  12.375  19.859  0.00  0.00    +0.000 C 
ATOM     24  C   UNL     1      -5.483  12.484  18.837  0.00  0.00    +0.000 C 
ATOM     25  O   UNL     1      -5.442  11.395  17.917  0.00  0.00    +0.000 OA
ATOM     26  C   UNL     1      -4.226  11.367  17.172  0.00  0.00    +0.000 C 
ATOM     27  C   UNL     1      -3.031  11.178  18.098  0.00  0.00    +0.000 C 
ENDBRANCH  21  22
ENDBRANCH  19  21
ENDBRANCH   1  18
TORSDOF 5
ENDMDL
MODEL 2
REMARK VINA RESULT:      -7.7      6.140     10.100
REMARK  Name = 
REMARK  5 active torsions:
REMARK  status: ('A' for Active; 'I' for Inactive)
REMARK    1  A    between atoms: C_2  and  C_11
REMARK    2  A    between atoms: N_3  and  C_4
REMARK    3  A    between atoms: C_4  and  C_5
REMARK    4  A    between atoms: C_14  and  C_15
REMARK    5  A    between atoms: C_18  and  C_19
REMARK                            x       y       z     vdW  Elec       q    Type
REMARK                         _______ _______ _______ _____ _____    ______ ____
ROOT
ATOM      1  C   UNL     1       2.379   6.677  19.341  0.00  0.00    +0.000 A 
ATOM      2  C   UNL     1       2.240   7.906  18.691  0.00  0.00    +0.000 A 
ATOM      3  C   UNL     1       1.542   8.943  19.315  0.00  0.00    +0.000 A 
ATOM      4  C   UNL     1       0.981   8.788  20.599  0.00  0.00    +0.000 A 
ATOM      5  C   UNL     1       1.122   7.537  21.223  0.00  0.00    +0.000 A 
ATOM      6  C   UNL     1       1.814   6.492  20.603  0.00  0.00    +0.000 A 
ENDROOT
BRANCH   4   7
ATOM      7  C   UNL     1       0.279   9.894  21.273  0.00  0.00    +0.000 A 
ATOM      8  C   UNL     1      -0.343   9.734  22.509  0.00  0.00    +0.000 A 
ATOM      9  C   UNL     1      -0.996  10.815  23.092  0.00  0.00    +0.000 A 
ATOM     10  C   UNL     1      -1.025  12.042  22.431  0.00  0.00    +0.000 A 
ATOM     11  C   UNL     1      -0.389  12.120  21.203  0.00  0.00    +0.000 A 
ATOM     12  N   UNL     1       0.264  11.086  20.622  0.00  0.00    +0.000 NA
BRANCH  10  13
ATOM     13  C   UNL     1      -1.705  13.242  23.008  0.00  0.00    +0.000 C 
ATOM     14  F   UNL     1      -1.988  14.198  22.080  0.00  0.00    +0.000 F 
ATOM     15  F   UNL     1      -2.894  12.934  23.597  0.00  0.00    +0.000 F 
ATOM     16  F   UNL     1      -0.962  13.860  23.965  0.00  0.00    +0.000 F 
ENDBRANCH  10  13
ENDBRANCH   4   7
BRANCH   1  18
ATOM     17  O   UNL     1       2.822   5.127  17.633  0.00  0.00    +0.000 OA
ATOM     18  C   UNL     1       3.169   5.594  18.705  0.00  0.00    +0.000 C 
ATOM     19  N   UNL     1       4.285   5.182  19.414  0.00  0.00    +0.000 N 
ATOM     20  H   UNL     1       4.318   5.396  20.402  0.00  0.00    +0.000 HD
BRANCH  19  21
ATOM     21  C   UNL     1       5.103   4.094  18.919  0.00  0.00    +0.000 C 
BRANCH  21  22
ATOM     22  C   UNL     1       6.288   4.577  18.075  0.00  0.00    +0.000 C 
ATOM     23  C   UNL     1       6.526   6.086  18.242  0.00  0.00    +0.000 C 
ATOM     24  C   UNL     1       7.590   6.587  17.274  0.00  0.00    +0.000 C 
ATOM     25  O   UNL     1       7.247   6.263  15.928  0.00  0.00    +0.000 OA
ATOM     26  C   UNL     1       7.153   4.855  15.723  0.00  0.00    +0.000 C 
ATOM     27  C   UNL     1       6.053   4.257  16.590  0.00  0.00    +0.000 C 
ENDBRANCH  21  22
ENDBRANCH  19  21
ENDBRANCH   1  18
TORSDOF 5
ENDMDL
MODEL 3
REMARK VINA RESULT:      -7.7      6.089     10.028
REMARK  Name = 
REMARK  5 active torsions:
REMARK  status: ('A' for Active; 'I' for Inactive)
REMARK    1  A    between atoms: C_2  and  C_11
REMARK    2  A    between atoms: N_3  and  C_4
REMARK    3  A    between atoms: C_4  and  C_5
REMARK    4  A    between atoms: C_14  and  C_15
REMARK    5  A    between atoms: C_18  and  C_19
REMARK                            x       y       z     vdW  Elec       q    Type
REMARK                         _______ _______ _______ _____ _____    ______ ____
ROOT
ATOM      1  C   UNL     1       2.440   5.924  19.530  0.00  0.00    +0.000 A 
ATOM      2  C   UNL     1       1.713   5.751  20.711  0.00  0.00    +0.000 A 
ATOM      3  C   UNL     1       1.073   6.848  21.294  0.00  0.00    +0.000 A 
ATOM      4  C   UNL     1       1.129   8.131  20.714  0.00  0.00    +0.000 A 
ATOM      5  C   UNL     1       1.880   8.279  19.536  0.00  0.00    +0.000 A 
ATOM      6  C   UNL     1       2.528   7.189  18.947  0.00  0.00    +0.000 A 
ENDROOT
BRANCH   4   7
ATOM      7  C   UNL     1       0.421   9.279  21.309  0.00  0.00    +0.000 A 
ATOM      8  C   UNL     1      -0.118   9.233  22.593  0.00  0.00    +0.000 A 
ATOM      9  C   UNL     1      -0.781  10.347  23.096  0.00  0.00    +0.000 A 
ATOM     10  C   UNL     1      -0.903  11.492  22.309  0.00  0.00    +0.000 A 
ATOM     11  C   UNL     1      -0.345  11.457  21.042  0.00  0.00    +0.000 A 
ATOM     12  N   UNL     1       0.316  10.390  20.535  0.00  0.00    +0.000 NA
BRANCH  10  13
ATOM     13  C   UNL     1      -1.599  12.723  22.796  0.00  0.00    +0.000 C 
ATOM     14  F   UNL     1      -0.795  13.537  23.535  0.00  0.00    +0.000 F 
ATOM     15  F   UNL     1      -2.069  13.492  21.777  0.00  0.00    +0.000 F 
ATOM     16  F   UNL     1      -2.672  12.445  23.584  0.00  0.00    +0.000 F 
ENDBRANCH  10  13
ENDBRANCH   4   7
BRANCH   1  18
ATOM     17  O   UNL     1       3.378   3.771  19.535  0.00  0.00    +0.000 OA
ATOM     18  C   UNL     1       3.071   4.751  18.877  0.00  0.00    +0.000 C 
ATOM     19  N   UNL     1       3.270   4.870  17.512  0.00  0.00    +0.000 N 
ATOM     20  H   UNL     1       3.275   5.802  17.118  0.00  0.00    +0.000 HD
BRANCH  19  21
ATOM     21  C   UNL     1       3.928   3.810  16.775  0.00  0.00    +0.000 C 
BRANCH  21  22
ATOM     22  C   UNL     1       5.409   4.103  16.506  0.00  0.00    +0.000 C 
ATOM     23  C   UNL     1       5.882   5.361  17.252  0.00  0.00    +0.000 C 
ATOM     24  C   UNL     1       7.300   5.742  16.847  0.00  0.00    +0.000 C 
ATOM     25  O   UNL     1       7.398   5.909  15.434  0.00  0.00    +0.000 OA
ATOM     26  C   UNL     1       7.090   4.709  14.728  0.00  0.00    +0.000 C 
ATOM     27  C   UNL     1       5.655   4.278  15.000  0.00  0.00    +0.000 C 
ENDBRANCH  21  22
ENDBRANCH  19  21
ENDBRANCH   1  18
TORSDOF 5
ENDMDL
MODEL 4
REMARK VINA RESULT:      -7.7      5.907     10.120
REMARK  Name = 
REMARK  5 active torsions:
REMARK  status: ('A' for Active; 'I' for Inactive)
REMARK    1  A    between atoms: C_2  and  C_11
REMARK    2  A    between atoms: N_3  and  C_4
REMARK    3  A    between atoms: C_4  and  C_5
REMARK    4  A    between atoms: C_14  and  C_15
REMARK    5  A    between atoms: C_18  and  C_19
REMARK                            x       y       z     vdW  Elec       q    Type
REMARK                         _______ _______ _______ _____ _____    ______ ____
ROOT
ATOM      1  C   UNL     1       3.695   6.080  18.001  0.00  0.00    +0.000 A 
ATOM      2  C   UNL     1       3.362   7.337  17.489  0.00  0.00    +0.000 A 
ATOM      3  C   UNL     1       2.538   8.189  18.229  0.00  0.00    +0.000 A 
ATOM      4  C   UNL     1       2.039   7.819  19.494  0.00  0.00    +0.000 A 
ATOM      5  C   UNL     1       2.376   6.543  19.978  0.00  0.00    +0.000 A 
ATOM      6  C   UNL     1       3.196   5.682  19.243  0.00  0.00    +0.000 A 
ENDROOT
BRANCH   4   7
ATOM      7  C   UNL     1       1.202   8.733  20.292  0.00  0.00    +0.000 A 
ATOM      8  C   UNL     1       0.893   8.480  21.627  0.00  0.00    +0.000 A 
ATOM      9  C   UNL     1       0.092   9.378  22.324  0.00  0.00    +0.000 A 
ATOM     10  C   UNL     1      -0.396  10.514  21.679  0.00  0.00    +0.000 A 
ATOM     11  C   UNL     1      -0.048  10.692  20.350  0.00  0.00    +0.000 A 
ATOM     12  N   UNL     1       0.740   9.839  19.654  0.00  0.00    +0.000 NA
BRANCH  10  13
ATOM     13  C   UNL     1      -1.256  11.519  22.377  0.00  0.00    +0.000 C 
ATOM     14  F   UNL     1      -2.248  12.017  21.587  0.00  0.00    +0.000 F 
ATOM     15  F   UNL     1      -1.879  11.000  23.471  0.00  0.00    +0.000 F 
ATOM     16  F   UNL     1      -0.555  12.597  22.820  0.00  0.00    +0.000 F 
ENDBRANCH  10  13
ENDBRANCH   4   7
BRANCH   1  18
ATOM     17  O   UNL     1       4.383   4.005  17.144  0.00  0.00    +0.000 OA
ATOM     18  C   UNL     1       4.616   5.198  17.245  0.00  0.00    +0.000 C 
ATOM     19  N   UNL     1       5.718   5.829  16.690  0.00  0.00    +0.000 N 
ATOM     20  H   UNL     1       5.987   6.725  17.075  0.00  0.00    +0.000 HD
BRANCH  19  21
ATOM     21  C   UNL     1       6.716   5.060  15.975  0.00  0.00    +0.000 C 
BRANCH  21  22
ATOM     22  C   UNL     1       6.450   4.997  14.467  0.00  0.00    +0.000 C 
ATOM     23  C   UNL     1       5.895   3.628  14.046  0.00  0.00    +0.000 C 
ATOM     24  C   UNL     1       5.796   3.515  12.530  0.00  0.00    +0.000 C 
ATOM     25  O   UNL     1       7.057   3.774  11.917  0.00  0.00    +0.000 OA
ATOM     26  C   UNL     1       7.526   5.092  12.188  0.00  0.00    +0.000 C 
ATOM     27  C   UNL     1       7.740   5.290  13.684  0.00  0.00    +0.000 C 
ENDBRANCH  21  22
ENDBRANCH  19  21
ENDBRANCH   1  18
TORSDOF 5
ENDMDL
MODEL 5
REMARK VINA RESULT:      -7.6      0.473      1.318
REMARK  Name = 
REMARK  5 active torsions:
REMARK  status: ('A' for Active; 'I' for Inactive)
REMARK    1  A    between atoms: C_2  and  C_11
REMARK    2  A    between atoms: N_3  and  C_4
REMARK    3  A    between atoms: C_4  and  C_5
REMARK    4  A    between atoms: C_14  and  C_15
REMARK    5  A    between atoms: C_18  and  C_19
REMARK                            x       y       z     vdW  Elec       q    Type
REMARK                         _______ _______ _______ _____ _____    ______ ____
ROOT
ATOM      1  C   UNL     1       0.685   9.475  19.565  0.00  0.00    +0.000 A 
ATOM      2  C   UNL     1       1.089   9.676  18.243  0.00  0.00    +0.000 A 
ATOM      3  C   UNL     1       2.031   8.817  17.671  0.00  0.00    +0.000 A 
ATOM      4  C   UNL     1       2.581   7.737  18.391  0.00  0.00    +0.000 A 
ATOM      5  C   UNL     1       2.169   7.569  19.724  0.00  0.00    +0.000 A 
ATOM      6  C   UNL     1       1.230   8.426  20.306  0.00  0.00    +0.000 A 
ENDROOT
BRANCH   4   7
ATOM      7  C   UNL     1       3.545   6.809  17.775  0.00  0.00    +0.000 A 
ATOM      8  C   UNL     1       3.376   5.426  17.820  0.00  0.00    +0.000 A 
ATOM      9  C   UNL     1       4.325   4.602  17.226  0.00  0.00    +0.000 A 
ATOM     10  C   UNL     1       5.435   5.166  16.599  0.00  0.00    +0.000 A 
ATOM     11  C   UNL     1       5.535   6.548  16.602  0.00  0.00    +0.000 A 
ATOM     12  N   UNL     1       4.618   7.372  17.162  0.00  0.00    +0.000 NA
BRANCH  10  13
ATOM     13  C   UNL     1       6.486   4.333  15.938  0.00  0.00    +0.000 C 
ATOM     14  F   UNL     1       7.562   4.091  16.738  0.00  0.00    +0.000 F 
ATOM     15  F   UNL     1       6.021   3.110  15.563  0.00  0.00    +0.000 F 
ATOM     16  F   UNL     1       6.982   4.908  14.810  0.00  0.00    +0.000 F 
ENDBRANCH  10  13
ENDBRANCH   4   7
BRANCH   1  18
ATOM     17  O   UNL     1      -0.526  10.378  21.363  0.00  0.00    +0.000 OA
ATOM     18  C   UNL     1      -0.358  10.349  20.155  0.00  0.00    +0.000 C 
ATOM     19  N   UNL     1      -1.091  11.094  19.246  0.00  0.00    +0.000 N 
ATOM     20  H   UNL     1      -1.097  10.783  18.283  0.00  0.00    +0.000 HD
BRANCH  19  21
ATOM     21  C   UNL     1      -2.173  11.942  19.701  0.00  0.00    +0.000 C 
BRANCH  21  22
ATOM     22  C   UNL     1      -3.512  11.609  19.031  0.00  0.00    +0.000 C 
ATOM     23  C   UNL     1      -3.381  11.546  17.502  0.00  0.00    +0.000 C 
ATOM     24  C   UNL     1      -4.742  11.384  16.837  0.00  0.00    +0.000 C 
ATOM     25  O   UNL     1      -5.630  12.425  17.239  0.00  0.00    +0.000 OA
ATOM     26  C   UNL     1      -5.869  12.415  18.644  0.00  0.00    +0.000 C 
ATOM     27  C   UNL     1      -4.575  12.651  19.412  0.00  0.00    +0.000 C 
ENDBRANCH  21  22
ENDBRANCH  19  21
ENDBRANCH   1  18
TORSDOF 5
ENDMDL
MODEL 6
REMARK VINA RESULT:      -7.6      1.854      2.462
REMARK  Name = 
REMARK  5 active torsions:
REMARK  status: ('A' for Active; 'I' for Inactive)
REMARK    1  A    between atoms: C_2  and  C_11
REMARK    2  A    between atoms: N_3  and  C_4
REMARK    3  A    between atoms: C_4  and  C_5
REMARK    4  A    between atoms: C_14  and  C_15
REMARK    5  A    between atoms: C_18  and  C_19
REMARK                            x       y       z     vdW  Elec       q    Type
REMARK                         _______ _______ _______ _____ _____    ______ ____
ROOT
ATOM      1  C   UNL     1       1.037   8.185  20.573  0.00  0.00    +0.000 A 
ATOM      2  C   UNL     1       1.348   8.879  19.402  0.00  0.00    +0.000 A 
ATOM      3  C   UNL     1       2.205   8.300  18.462  0.00  0.00    +0.000 A 
ATOM      4  C   UNL     1       2.759   7.019  18.658  0.00  0.00    +0.000 A 
ATOM      5  C   UNL     1       2.442   6.350  19.853  0.00  0.00    +0.000 A 
ATOM      6  C   UNL     1       1.589   6.924  20.801  0.00  0.00    +0.000 A 
ENDROOT
BRANCH   4   7
ATOM      7  C   UNL     1       3.631   6.392  17.650  0.00  0.00    +0.000 A 
ATOM      8  C   UNL     1       4.490   7.138  16.846  0.00  0.00    +0.000 A 
ATOM      9  C   UNL     1       5.284   6.489  15.906  0.00  0.00    +0.000 A 
ATOM     10  C   UNL     1       5.207   5.103  15.776  0.00  0.00    +0.000 A 
ATOM     11  C   UNL     1       4.325   4.433  16.608  0.00  0.00    +0.000 A 
ATOM     12  N   UNL     1       3.552   5.041  17.538  0.00  0.00    +0.000 NA
BRANCH  10  13
ATOM     13  C   UNL     1       6.039   4.348  14.789  0.00  0.00    +0.000 C 
ATOM     14  F   UNL     1       6.593   3.216  15.309  0.00  0.00    +0.000 F 
ATOM     15  F   UNL     1       5.322   3.945  13.705  0.00  0.00    +0.000 F 
ATOM     16  F   UNL     1       7.076   5.081  14.303  0.00  0.00    +0.000 F 
ENDBRANCH  10  13
ENDBRANCH   4   7
BRANCH   1  18
ATOM     17  O   UNL     1      -0.863   8.116  21.952  0.00  0.00    +0.000 OA
ATOM     18  C   UNL     1       0.081   8.772  21.544  0.00  0.00    +0.000 C 
ATOM     19  N   UNL     1       0.350  10.077  21.924  0.00  0.00    +0.000 N 
ATOM     20  H   UNL     1       0.947  10.627  21.320  0.00  0.00    +0.000 HD
BRANCH  19  21
ATOM     21  C   UNL     1      -0.545  10.773  22.826  0.00  0.00    +0.000 C 
BRANCH  21  22
ATOM     22  C   UNL     1      -1.220  11.986  22.174  0.00  0.00    +0.000 C 
ATOM     23  C   UNL     1      -2.609  12.253  22.775  0.00  0.00    +0.000 C 
ATOM     24  C   UNL     1      -3.341  13.347  22.009  0.00  0.00    +0.000 C 
ATOM     25  O   UNL     1      -3.429  13.025  20.623  0.00  0.00    +0.000 OA
ATOM     26  C   UNL     1      -2.145  12.905  20.016  0.00  0.00    +0.000 C 
ATOM     27  C   UNL     1      -1.350  11.775  20.657  0.00  0.00    +0.000 C 
ENDBRANCH  21  22
ENDBRANCH  19  21
ENDBRANCH   1  18
TORSDOF 5
ENDMDL
MODEL 7
REMARK VINA RESULT:      -7.5      5.718      9.770
REMARK  Name = 
REMARK  5 active torsions:
REMARK  status: ('A' for Active; 'I' for Inactive)
REMARK    1  A    between atoms: C_2  and  C_11
REMARK    2  A    between atoms: N_3  and  C_4
REMARK    3  A    between atoms: C_4  and  C_5
REMARK    4  A    between atoms: C_14  and  C_15
REMARK    5  A    between atoms: C_18  and  C_19
REMARK                            x       y       z     vdW  Elec       q    Type
REMARK                         _______ _______ _______ _____ _____    ______ ____
ROOT
ATOM      1  C   UNL     1       2.266   7.213  19.035  0.00  0.00    +0.000 A 
ATOM      2  C   UNL     1       2.303   7.986  17.873  0.00  0.00    +0.000 A 
ATOM      3  C   UNL     1       1.815   9.295  17.898  0.00  0.00    +0.000 A 
ATOM      4  C   UNL     1       1.293   9.867  19.076  0.00  0.00    +0.000 A 
ATOM      5  C   UNL     1       1.253   9.061  20.226  0.00  0.00    +0.000 A 
ATOM      6  C   UNL     1       1.736   7.749  20.210  0.00  0.00    +0.000 A 
ENDROOT
BRANCH   4   7
ATOM      7  C   UNL     1       0.814  11.260  19.111  0.00  0.00    +0.000 A 
ATOM      8  C   UNL     1      -0.541  11.579  19.057  0.00  0.00    +0.000 A 
ATOM      9  C   UNL     1      -0.930  12.914  19.087  0.00  0.00    +0.000 A 
ATOM     10  C   UNL     1       0.038  13.914  19.165  0.00  0.00    +0.000 A 
ATOM     11  C   UNL     1       1.364  13.517  19.210  0.00  0.00    +0.000 A 
ATOM     12  N   UNL     1       1.767  12.224  19.195  0.00  0.00    +0.000 NA
BRANCH  10  13
ATOM     13  C   UNL     1      -0.318  15.366  19.207  0.00  0.00    +0.000 C 
ATOM     14  F   UNL     1       0.623  16.132  19.827  0.00  0.00    +0.000 F 
ATOM     15  F   UNL     1      -0.471  15.901  17.964  0.00  0.00    +0.000 F 
ATOM     16  F   UNL     1      -1.484  15.604  19.864  0.00  0.00    +0.000 F 
ENDBRANCH  10  13
ENDBRANCH   4   7
BRANCH   1  18
ATOM     17  O   UNL     1       3.038   5.253  20.075  0.00  0.00    +0.000 OA
ATOM     18  C   UNL     1       2.838   5.844  19.027  0.00  0.00    +0.000 C 
ATOM     19  N   UNL     1       3.112   5.325  17.772  0.00  0.00    +0.000 N 
ATOM     20  H   UNL     1       3.206   5.977  17.005  0.00  0.00    +0.000 HD
BRANCH  19  21
ATOM     21  C   UNL     1       3.723   4.018  17.641  0.00  0.00    +0.000 C 
BRANCH  21  22
ATOM     22  C   UNL     1       5.170   4.086  17.137  0.00  0.00    +0.000 C 
ATOM     23  C   UNL     1       6.131   4.564  18.237  0.00  0.00    +0.000 C 
ATOM     24  C   UNL     1       7.532   4.793  17.684  0.00  0.00    +0.000 C 
ATOM     25  O   UNL     1       7.503   5.704  16.587  0.00  0.00    +0.000 OA
ATOM     26  C   UNL     1       6.722   5.213  15.501  0.00  0.00    +0.000 C 
ATOM     27  C   UNL     1       5.271   5.024  15.924  0.00  0.00    +0.000 C 
ENDBRANCH  21  22
ENDBRANCH  19  21
ENDBRANCH   1  18
TORSDOF 5
ENDMDL
MODEL 8
REMARK VINA RESULT:      -7.5      5.875     10.168
REMARK  Name = 
REMARK  5 active torsions:
REMARK  status: ('A' for Active; 'I' for Inactive)
REMARK    1  A    between atoms: C_2  and  C_11
REMARK    2  A    between atoms: N_3  and  C_4
REMARK    3  A    between atoms: C_4  and  C_5
REMARK    4  A    between atoms: C_14  and  C_15
REMARK    5  A    between atoms: C_18  and  C_19
REMARK                            x       y       z     vdW  Elec       q    Type
REMARK                         _______ _______ _______ _____ _____    ______ ____
ROOT
ATOM      1  C   UNL     1       3.397   5.924  18.193  0.00  0.00    +0.000 A 
ATOM      2  C   UNL     1       2.943   5.574  19.467  0.00  0.00    +0.000 A 
ATOM      3  C   UNL     1       2.208   6.497  20.216  0.00  0.00    +0.000 A 
ATOM      4  C   UNL     1       1.898   7.777  19.714  0.00  0.00    +0.000 A 
ATOM      5  C   UNL     1       2.381   8.108  18.437  0.00  0.00    +0.000 A 
ATOM      6  C   UNL     1       3.120   7.193  17.682  0.00  0.00    +0.000 A 
ENDROOT
BRANCH   4   7
ATOM      7  C   UNL     1       1.090   8.735  20.489  0.00  0.00    +0.000 A 
ATOM      8  C   UNL     1       1.068   8.730  21.883  0.00  0.00    +0.000 A 
ATOM      9  C   UNL     1       0.279   9.656  22.557  0.00  0.00    +0.000 A 
ATOM     10  C   UNL     1      -0.482  10.572  21.833  0.00  0.00    +0.000 A 
ATOM     11  C   UNL     1      -0.411  10.510  20.451  0.00  0.00    +0.000 A 
ATOM     12  N   UNL     1       0.359   9.627  19.773  0.00  0.00    +0.000 NA
BRANCH  10  13
ATOM     13  C   UNL     1      -1.345  11.595  22.501  0.00  0.00    +0.000 C 
ATOM     14  F   UNL     1      -0.639  12.644  23.009  0.00  0.00    +0.000 F 
ATOM     15  F   UNL     1      -2.258  12.140  21.652  0.00  0.00    +0.000 F 
ATOM     16  F   UNL     1      -2.056  11.086  23.542  0.00  0.00    +0.000 F 
ENDBRANCH  10  13
ENDBRANCH   4   7
BRANCH   1  18
ATOM     17  O   UNL     1       3.623   3.841  17.133  0.00  0.00    +0.000 OA
ATOM     18  C   UNL     1       4.125   4.927  17.372  0.00  0.00    +0.000 C 
ATOM     19  N   UNL     1       5.374   5.327  16.925  0.00  0.00    +0.000 N 
ATOM     20  H   UNL     1       5.825   6.089  17.414  0.00  0.00    +0.000 HD
BRANCH  19  21
ATOM     21  C   UNL     1       6.202   4.416  16.160  0.00  0.00    +0.000 C 
BRANCH  21  22
ATOM     22  C   UNL     1       6.142   4.683  14.652  0.00  0.00    +0.000 C 
ATOM     23  C   UNL     1       5.553   3.486  13.888  0.00  0.00    +0.000 C 
ATOM     24  C   UNL     1       5.656   3.689  12.381  0.00  0.00    +0.000 C 
ATOM     25  O   UNL     1       7.004   3.940  11.992  0.00  0.00    +0.000 OA
ATOM     26  C   UNL     1       7.525   5.125  12.590  0.00  0.00    +0.000 C 
ATOM     27  C   UNL     1       7.544   4.998  14.108  0.00  0.00    +0.000 C 
ENDBRANCH  21  22
ENDBRANCH  19  21
ENDBRANCH   1  18
TORSDOF 5
ENDMDL
MODEL 9
REMARK VINA RESULT:      -7.5      6.073      9.945
REMARK  Name = 
REMARK  5 active torsions:
REMARK  status: ('A' for Active; 'I' for Inactive)
REMARK    1  A    between atoms: C_2  and  C_11
REMARK    2  A    between atoms: N_3  and  C_4
REMARK    3  A    between atoms: C_4  and  C_5
REMARK    4  A    between atoms: C_14  and  C_15
REMARK    5  A    between atoms: C_18  and  C_19
REMARK                            x       y       z     vdW  Elec       q    Type
REMARK                         _______ _______ _______ _____ _____    ______ ____
ROOT
ATOM      1  C   UNL     1       2.426   5.821  19.476  0.00  0.00    +0.000 A 
ATOM      2  C   UNL     1       2.544   7.059  18.841  0.00  0.00    +0.000 A 
ATOM      3  C   UNL     1       1.905   8.178  19.383  0.00  0.00    +0.000 A 
ATOM      4  C   UNL     1       1.148   8.094  20.569  0.00  0.00    +0.000 A 
ATOM      5  C   UNL     1       1.033   6.832  21.178  0.00  0.00    +0.000 A 
ATOM      6  C   UNL     1       1.665   5.707  20.641  0.00  0.00    +0.000 A 
ENDROOT
BRANCH   4   7
ATOM      7  C   UNL     1       0.507   9.281  21.161  0.00  0.00    +0.000 A 
ATOM      8  C   UNL     1      -0.033   9.269  22.446  0.00  0.00    +0.000 A 
ATOM      9  C   UNL     1      -0.632  10.420  22.947  0.00  0.00    +0.000 A 
ATOM     10  C   UNL     1      -0.691  11.567  22.157  0.00  0.00    +0.000 A 
ATOM     11  C   UNL     1      -0.138  11.498  20.889  0.00  0.00    +0.000 A 
ATOM     12  N   UNL     1       0.462  10.393  20.384  0.00  0.00    +0.000 NA
BRANCH  10  13
ATOM     13  C   UNL     1      -1.317  12.836  22.641  0.00  0.00    +0.000 C 
ATOM     14  F   UNL     1      -1.846  13.591  21.638  0.00  0.00    +0.000 F 
ATOM     15  F   UNL     1      -2.337  12.613  23.514  0.00  0.00    +0.000 F 
ATOM     16  F   UNL     1      -0.436  13.644  23.290  0.00  0.00    +0.000 F 
ENDBRANCH  10  13
ENDBRANCH   4   7
BRANCH   1  18
ATOM     17  O   UNL     1       3.534   3.761  19.684  0.00  0.00    +0.000 OA
ATOM     18  C   UNL     1       3.151   4.645  18.936  0.00  0.00    +0.000 C 
ATOM     19  N   UNL     1       3.346   4.648  17.565  0.00  0.00    +0.000 N 
ATOM     20  H   UNL     1       3.277   5.536  17.083  0.00  0.00    +0.000 HD
BRANCH  19  21
ATOM     21  C   UNL     1       4.090   3.579  16.930  0.00  0.00    +0.000 C 
BRANCH  21  22
ATOM     22  C   UNL     1       5.530   3.978  16.588  0.00  0.00    +0.000 C 
ATOM     23  C   UNL     1       5.992   5.191  17.409  0.00  0.00    +0.000 C 
ATOM     24  C   UNL     1       7.355   5.686  16.943  0.00  0.00    +0.000 C 
ATOM     25  O   UNL     1       7.340   5.981  15.548  0.00  0.00    +0.000 OA
ATOM     26  C   UNL     1       7.042   4.831  14.759  0.00  0.00    +0.000 C 
ATOM     27  C   UNL     1       5.655   4.296  15.089  0.00  0.00    +0.000 C 
ENDBRANCH  21  22
ENDBRANCH  19  21
ENDBRANCH   1  18
TORSDOF 5
ENDMDL
