MODEL 1
REMARK VINA RESULT:      -8.1      0.000      0.000
REMARK  Name = 
REMARK  10 active torsions:
REMARK  status: ('A' for Active; 'I' for Inactive)
REMARK    1  A    between atoms: C_1  and  O_2
REMARK    2  A    between atoms: O_2  and  C_3
REMARK    3  A    between atoms: C_6  and  O_7
REMARK    4  A    between atoms: O_7  and  C_8
REMARK    5  A    between atoms: C_9  and  C_10
REMARK    6  A    between atoms: C_12  and  C_13
REMARK    7  A    between atoms: C_16  and  C_17
REMARK    8  A    between atoms: N_19  and  C_20
REMARK    9  A    between atoms: N_19  and  C_21
REMARK   10  A    between atoms: C_21  and  C_22
REMARK                            x       y       z     vdW  Elec       q    Type
REMARK                         _______ _______ _______ _____ _____    ______ ____
ROOT
ATOM      1  C   UNL     1       0.741   9.498  20.470  0.00  0.00    +0.000 A 
ATOM      2  C   UNL     1       0.208   8.911  21.596  0.00  0.00    +0.000 A 
ATOM      3  C   UNL     1      -0.435   9.848  22.451  0.00  0.00    +0.000 A 
ATOM      4  C   UNL     1      -0.466  11.125  21.923  0.00  0.00    +0.000 A 
ATOM      5  S   UNL     1       0.427  11.181  20.446  0.00  0.00    +0.000 S 
ENDROOT
BRANCH   1   8
ATOM      6  C   UNL     1       2.676   7.391  18.204  0.00  0.00    +0.000 A 
ATOM      7  C   UNL     1       2.195   7.654  19.509  0.00  0.00    +0.000 A 
ATOM      8  C   UNL     1       1.476   8.830  19.428  0.00  0.00    +0.000 A 
ATOM      9  O   UNL     1       1.558   9.268  18.137  0.00  0.00    +0.000 OA
ATOM     10  N   UNL     1       2.288   8.379  17.378  0.00  0.00    +0.000 NA
BRANCH   6  15
ATOM     11  C   UNL     1       5.483   5.606  16.440  0.00  0.00    +0.000 A 
ATOM     12  C   UNL     1       5.220   4.276  16.746  0.00  0.00    +0.000 A 
ATOM     13  C   UNL     1       4.112   3.933  17.522  0.00  0.00    +0.000 A 
ATOM     14  C   UNL     1       3.233   4.917  17.993  0.00  0.00    +0.000 A 
ATOM     15  C   UNL     1       3.508   6.276  17.723  0.00  0.00    +0.000 A 
ATOM     16  C   UNL     1       4.641   6.595  16.940  0.00  0.00    +0.000 A 
BRANCH  11  18
ATOM     17  C   UNL     1       6.865   4.799  14.687  0.00  0.00    +0.000 C 
ATOM     18  O   UNL     1       6.582   5.806  15.652  0.00  0.00    +0.000 OA
ENDBRANCH  11  18
BRANCH  14  19
ATOM     19  O   UNL     1       2.122   4.603  18.740  0.00  0.00    +0.000 OA
ATOM     20  C   UNL     1       1.307   3.546  18.233  0.00  0.00    +0.000 C 
ENDBRANCH  14  19
ENDBRANCH   6  15
ENDBRANCH   1   8
BRANCH   4  21
ATOM     21  C   UNL     1      -1.028  12.368  22.452  0.00  0.00    +0.000 C 
ATOM     22  O   UNL     1      -0.453  12.987  23.349  0.00  0.00    +0.000 OA
ATOM     23  N   UNL     1      -2.235  12.871  21.924  0.00  0.00    +0.000 N 
ATOM     24  C   UNL     1      -2.903  12.388  20.723  0.00  0.00    +0.000 C 
BRANCH  23  25
ATOM     25  C   UNL     1      -2.736  14.138  22.464  0.00  0.00    +0.000 C 
BRANCH  25  26
ATOM     26  C   UNL     1      -4.108  13.961  23.079  0.00  0.00    +0.000 A 
ATOM     27  C   UNL     1      -4.330  12.934  24.011  0.00  0.00    +0.000 A 
ATOM     28  C   UNL     1      -5.613  12.687  24.498  0.00  0.00    +0.000 A 
ATOM     29  C   UNL     1      -6.677  13.462  24.050  0.00  0.00    +0.000 A 
ATOM     30  F   UNL     1      -7.916  13.195  24.480  0.00  0.00    +0.000 F 
ATOM     31  C   UNL     1      -6.475  14.503  23.153  0.00  0.00    +0.000 A 
ATOM     32  C   UNL     1      -5.189  14.761  22.675  0.00  0.00    +0.000 A 
ENDBRANCH  25  26
ENDBRANCH  23  25
ENDBRANCH   4  21
TORSDOF 7
ENDMDL
MODEL 2
REMARK VINA RESULT:      -7.8      0.978      2.225
REMARK  Name = 
REMARK  10 active torsions:
REMARK  status: ('A' for Active; 'I' for Inactive)
REMARK    1  A    between atoms: C_1  and  O_2
REMARK    2  A    between atoms: O_2  and  C_3
REMARK    3  A    between atoms: C_6  and  O_7
REMARK    4  A    between atoms: O_7  and  C_8
REMARK    5  A    between atoms: C_9  and  C_10
REMARK    6  A    between atoms: C_12  and  C_13
REMARK    7  A    between atoms: C_16  and  C_17
REMARK    8  A    between atoms: N_19  and  C_20
REMARK    9  A    between atoms: N_19  and  C_21
REMARK   10  A    between atoms: C_21  and  C_22
REMARK                            x       y       z     vdW  Elec       q    Type
REMARK                         _______ _______ _______ _____ _____    ______ ____
ROOT
ATOM      1  C   UNL     1       0.739   9.529  20.693  0.00  0.00    +0.000 A 
ATOM      2  C   UNL     1       0.233   9.001  21.860  0.00  0.00    +0.000 A 
ATOM      3  C   UNL     1      -0.398   9.979  22.677  0.00  0.00    +0.000 A 
ATOM      4  C   UNL     1      -0.448  11.225  22.082  0.00  0.00    +0.000 A 
ATOM      5  S   UNL     1       0.414  11.207  20.586  0.00  0.00    +0.000 S 
ENDROOT
BRANCH   1   8
ATOM      6  C   UNL     1       2.557   7.275  18.471  0.00  0.00    +0.000 A 
ATOM      7  C   UNL     1       2.029   7.556  19.755  0.00  0.00    +0.000 A 
ATOM      8  C   UNL     1       1.456   8.810  19.673  0.00  0.00    +0.000 A 
ATOM      9  O   UNL     1       1.667   9.271  18.406  0.00  0.00    +0.000 OA
ATOM     10  N   UNL     1       2.336   8.325  17.660  0.00  0.00    +0.000 NA
BRANCH   6  15
ATOM     11  C   UNL     1       3.219   3.666  17.629  0.00  0.00    +0.000 A 
ATOM     12  C   UNL     1       4.511   3.718  17.119  0.00  0.00    +0.000 A 
ATOM     13  C   UNL     1       5.198   4.931  17.053  0.00  0.00    +0.000 A 
ATOM     14  C   UNL     1       4.609   6.116  17.515  0.00  0.00    +0.000 A 
ATOM     15  C   UNL     1       3.284   6.085  18.000  0.00  0.00    +0.000 A 
ATOM     16  C   UNL     1       2.609   4.844  18.050  0.00  0.00    +0.000 A 
BRANCH  11  18
ATOM     17  C   UNL     1       3.365   1.431  18.418  0.00  0.00    +0.000 C 
ATOM     18  O   UNL     1       2.667   2.416  17.663  0.00  0.00    +0.000 OA
ENDBRANCH  11  18
BRANCH  14  19
ATOM     19  O   UNL     1       5.274   7.319  17.482  0.00  0.00    +0.000 OA
ATOM     20  C   UNL     1       6.678   7.250  17.230  0.00  0.00    +0.000 C 
ENDBRANCH  14  19
ENDBRANCH   6  15
ENDBRANCH   1   8
BRANCH   4  21
ATOM     21  C   UNL     1      -1.006  12.492  22.556  0.00  0.00    +0.000 C 
ATOM     22  O   UNL     1      -0.432  13.145  23.429  0.00  0.00    +0.000 OA
ATOM     23  N   UNL     1      -2.207  12.979  22.001  0.00  0.00    +0.000 N 
ATOM     24  C   UNL     1      -2.871  12.450  20.817  0.00  0.00    +0.000 C 
BRANCH  23  25
ATOM     25  C   UNL     1      -2.704  14.270  22.485  0.00  0.00    +0.000 C 
BRANCH  25  26
ATOM     26  C   UNL     1      -4.070  14.122  23.120  0.00  0.00    +0.000 A 
ATOM     27  C   UNL     1      -4.425  12.916  23.746  0.00  0.00    +0.000 A 
ATOM     28  C   UNL     1      -5.718  12.726  24.233  0.00  0.00    +0.000 A 
ATOM     29  C   UNL     1      -6.659  13.737  24.089  0.00  0.00    +0.000 A 
ATOM     30  F   UNL     1      -7.914  13.538  24.513  0.00  0.00    +0.000 F 
ATOM     31  C   UNL     1      -6.322  14.950  23.502  0.00  0.00    +0.000 A 
ATOM     32  C   UNL     1      -5.024  15.148  23.026  0.00  0.00    +0.000 A 
ENDBRANCH  25  26
ENDBRANCH  23  25
ENDBRANCH   4  21
TORSDOF 7
ENDMDL
MODEL 3
REMARK VINA RESULT:      -7.8      1.430      1.600
REMARK  Name = 
REMARK  10 active torsions:
REMARK  status: ('A' for Active; 'I' for Inactive)
REMARK    1  A    between atoms: C_1  and  O_2
REMARK    2  A    between atoms: O_2  and  C_3
REMARK    3  A    between atoms: C_6  and  O_7
REMARK    4  A    between atoms: O_7  and  C_8
REMARK    5  A    between atoms: C_9  and  C_10
REMARK    6  A    between atoms: C_12  and  C_13
REMARK    7  A    between atoms: C_16  and  C_17
REMARK    8  A    between atoms: N_19  and  C_20
REMARK    9  A    between atoms: N_19  and  C_21
REMARK   10  A    between atoms: C_21  and  C_22
REMARK                            x       y       z     vdW  Elec       q    Type
REMARK                         _______ _______ _______ _____ _____    ______ ____
ROOT
ATOM      1  C   UNL     1       1.075   9.817  19.842  0.00  0.00    +0.000 A 
ATOM      2  C   UNL     1       0.971  10.772  18.855  0.00  0.00    +0.000 A 
ATOM      3  C   UNL     1       0.396  11.985  19.323  0.00  0.00    +0.000 A 
ATOM      4  C   UNL     1       0.153  11.974  20.683  0.00  0.00    +0.000 A 
ATOM      5  S   UNL     1       0.501  10.416  21.340  0.00  0.00    +0.000 S 
ENDROOT
BRANCH   1   8
ATOM      6  C   UNL     1       2.593   6.617  18.960  0.00  0.00    +0.000 A 
ATOM      7  C   UNL     1       2.246   7.941  18.598  0.00  0.00    +0.000 A 
ATOM      8  C   UNL     1       1.585   8.481  19.684  0.00  0.00    +0.000 A 
ATOM      9  O   UNL     1       1.509   7.506  20.638  0.00  0.00    +0.000 OA
ATOM     10  N   UNL     1       2.137   6.361  20.199  0.00  0.00    +0.000 NA
BRANCH   6  15
ATOM     11  C   UNL     1       5.397   4.904  17.123  0.00  0.00    +0.000 A 
ATOM     12  C   UNL     1       4.795   3.720  16.711  0.00  0.00    +0.000 A 
ATOM     13  C   UNL     1       3.457   3.464  17.012  0.00  0.00    +0.000 A 
ATOM     14  C   UNL     1       2.688   4.399  17.718  0.00  0.00    +0.000 A 
ATOM     15  C   UNL     1       3.296   5.588  18.176  0.00  0.00    +0.000 A 
ATOM     16  C   UNL     1       4.654   5.819  17.863  0.00  0.00    +0.000 A 
BRANCH  11  18
ATOM     17  C   UNL     1       7.688   4.609  17.672  0.00  0.00    +0.000 C 
ATOM     18  O   UNL     1       6.703   5.045  16.742  0.00  0.00    +0.000 OA
ENDBRANCH  11  18
BRANCH  14  19
ATOM     19  O   UNL     1       1.362   4.179  18.007  0.00  0.00    +0.000 OA
ATOM     20  C   UNL     1       1.055   2.928  18.621  0.00  0.00    +0.000 C 
ENDBRANCH  14  19
ENDBRANCH   6  15
ENDBRANCH   1   8
BRANCH   4  21
ATOM     21  C   UNL     1      -0.411  12.998  21.565  0.00  0.00    +0.000 C 
ATOM     22  O   UNL     1       0.298  13.580  22.387  0.00  0.00    +0.000 OA
ATOM     23  N   UNL     1      -1.777  13.331  21.466  0.00  0.00    +0.000 N 
ATOM     24  C   UNL     1      -2.680  12.907  20.404  0.00  0.00    +0.000 C 
BRANCH  23  25
ATOM     25  C   UNL     1      -2.284  14.387  22.347  0.00  0.00    +0.000 C 
BRANCH  25  26
ATOM     26  C   UNL     1      -3.583  13.971  23.002  0.00  0.00    +0.000 A 
ATOM     27  C   UNL     1      -3.598  12.899  23.910  0.00  0.00    +0.000 A 
ATOM     28  C   UNL     1      -4.804  12.431  24.431  0.00  0.00    +0.000 A 
ATOM     29  C   UNL     1      -5.997  13.030  24.043  0.00  0.00    +0.000 A 
ATOM     30  F   UNL     1      -7.158  12.551  24.506  0.00  0.00    +0.000 F 
ATOM     31  C   UNL     1      -6.003  14.112  23.171  0.00  0.00    +0.000 A 
ATOM     32  C   UNL     1      -4.796  14.590  22.659  0.00  0.00    +0.000 A 
ENDBRANCH  25  26
ENDBRANCH  23  25
ENDBRANCH   4  21
TORSDOF 7
ENDMDL
MODEL 4
REMARK VINA RESULT:      -7.7      2.045      3.277
REMARK  Name = 
REMARK  10 active torsions:
REMARK  status: ('A' for Active; 'I' for Inactive)
REMARK    1  A    between atoms: C_1  and  O_2
REMARK    2  A    between atoms: O_2  and  C_3
REMARK    3  A    between atoms: C_6  and  O_7
REMARK    4  A    between atoms: O_7  and  C_8
REMARK    5  A    between atoms: C_9  and  C_10
REMARK    6  A    between atoms: C_12  and  C_13
REMARK    7  A    between atoms: C_16  and  C_17
REMARK    8  A    between atoms: N_19  and  C_20
REMARK    9  A    between atoms: N_19  and  C_21
REMARK   10  A    between atoms: C_21  and  C_22
REMARK                            x       y       z     vdW  Elec       q    Type
REMARK                         _______ _______ _______ _____ _____    ______ ____
ROOT
ATOM      1  C   UNL     1       1.881   7.732  19.603  0.00  0.00    +0.000 A 
ATOM      2  C   UNL     1       1.363   7.601  20.873  0.00  0.00    +0.000 A 
ATOM      3  C   UNL     1       0.637   8.750  21.290  0.00  0.00    +0.000 A 
ATOM      4  C   UNL     1       0.530   9.707  20.300  0.00  0.00    +0.000 A 
ATOM      5  S   UNL     1       1.451   9.240  18.916  0.00  0.00    +0.000 S 
ENDROOT
BRANCH   1   8
ATOM      6  C   UNL     1       4.176   5.715  17.607  0.00  0.00    +0.000 A 
ATOM      7  C   UNL     1       3.620   6.980  17.916  0.00  0.00    +0.000 A 
ATOM      8  C   UNL     1       2.685   6.762  18.908  0.00  0.00    +0.000 A 
ATOM      9  O   UNL     1       2.658   5.418  19.152  0.00  0.00    +0.000 OA
ATOM     10  N   UNL     1       3.582   4.772  18.360  0.00  0.00    +0.000 NA
BRANCH   6  15
ATOM     11  C   UNL     1       5.692   4.309  14.461  0.00  0.00    +0.000 A 
ATOM     12  C   UNL     1       7.033   4.644  14.609  0.00  0.00    +0.000 A 
ATOM     13  C   UNL     1       7.473   5.323  15.746  0.00  0.00    +0.000 A 
ATOM     14  C   UNL     1       6.578   5.665  16.769  0.00  0.00    +0.000 A 
ATOM     15  C   UNL     1       5.206   5.365  16.616  0.00  0.00    +0.000 A 
ATOM     16  C   UNL     1       4.788   4.682  15.451  0.00  0.00    +0.000 A 
BRANCH  11  18
ATOM     17  C   UNL     1       6.413   3.575  12.321  0.00  0.00    +0.000 C 
ATOM     18  O   UNL     1       5.397   3.623  13.316  0.00  0.00    +0.000 OA
ENDBRANCH  11  18
BRANCH  14  19
ATOM     19  O   UNL     1       6.990   6.313  17.909  0.00  0.00    +0.000 OA
ATOM     20  C   UNL     1       7.790   5.547  18.809  0.00  0.00    +0.000 C 
ENDBRANCH  14  19
ENDBRANCH   6  15
ENDBRANCH   1   8
BRANCH   4  21
ATOM     21  C   UNL     1      -0.129  11.014  20.296  0.00  0.00    +0.000 C 
ATOM     22  O   UNL     1       0.317  11.946  20.968  0.00  0.00    +0.000 OA
ATOM     23  N   UNL     1      -1.280  11.215  19.508  0.00  0.00    +0.000 N 
ATOM     24  C   UNL     1      -1.787  10.299  18.495  0.00  0.00    +0.000 C 
BRANCH  23  25
ATOM     25  C   UNL     1      -1.881  12.552  19.512  0.00  0.00    +0.000 C 
BRANCH  25  26
ATOM     26  C   UNL     1      -3.159  12.571  20.322  0.00  0.00    +0.000 A 
ATOM     27  C   UNL     1      -4.402  12.504  19.672  0.00  0.00    +0.000 A 
ATOM     28  C   UNL     1      -5.587  12.637  20.395  0.00  0.00    +0.000 A 
ATOM     29  C   UNL     1      -5.531  12.843  21.769  0.00  0.00    +0.000 A 
ATOM     30  F   UNL     1      -6.666  13.019  22.457  0.00  0.00    +0.000 F 
ATOM     31  C   UNL     1      -4.314  12.881  22.437  0.00  0.00    +0.000 A 
ATOM     32  C   UNL     1      -3.128  12.734  21.717  0.00  0.00    +0.000 A 
ENDBRANCH  25  26
ENDBRANCH  23  25
ENDBRANCH   4  21
TORSDOF 7
ENDMDL
MODEL 5
REMARK VINA RESULT:      -7.5      1.326      1.566
REMARK  Name = 
REMARK  10 active torsions:
REMARK  status: ('A' for Active; 'I' for Inactive)
REMARK    1  A    between atoms: C_1  and  O_2
REMARK    2  A    between atoms: O_2  and  C_3
REMARK    3  A    between atoms: C_6  and  O_7
REMARK    4  A    between atoms: O_7  and  C_8
REMARK    5  A    between atoms: C_9  and  C_10
REMARK    6  A    between atoms: C_12  and  C_13
REMARK    7  A    between atoms: C_16  and  C_17
REMARK    8  A    between atoms: N_19  and  C_20
REMARK    9  A    between atoms: N_19  and  C_21
REMARK   10  A    between atoms: C_21  and  C_22
REMARK                            x       y       z     vdW  Elec       q    Type
REMARK                         _______ _______ _______ _____ _____    ______ ____
ROOT
ATOM      1  C   UNL     1       0.537   9.989  19.433  0.00  0.00    +0.000 A 
ATOM      2  C   UNL     1      -0.600  10.565  18.912  0.00  0.00    +0.000 A 
ATOM      3  C   UNL     1      -1.342  11.290  19.885  0.00  0.00    +0.000 A 
ATOM      4  C   UNL     1      -0.715  11.337  21.115  0.00  0.00    +0.000 A 
ATOM      5  S   UNL     1       0.711  10.362  21.095  0.00  0.00    +0.000 S 
ENDROOT
BRANCH   1   8
ATOM      6  C   UNL     1       2.857   7.543  18.033  0.00  0.00    +0.000 A 
ATOM      7  C   UNL     1       2.048   7.977  19.112  0.00  0.00    +0.000 A 
ATOM      8  C   UNL     1       1.481   9.172  18.717  0.00  0.00    +0.000 A 
ATOM      9  O   UNL     1       1.962   9.457  17.471  0.00  0.00    +0.000 OA
ATOM     10  N   UNL     1       2.802   8.452  17.043  0.00  0.00    +0.000 NA
BRANCH   6  15
ATOM     11  C   UNL     1       5.971   5.435  17.862  0.00  0.00    +0.000 A 
ATOM     12  C   UNL     1       5.449   4.152  17.748  0.00  0.00    +0.000 A 
ATOM     13  C   UNL     1       4.068   3.950  17.709  0.00  0.00    +0.000 A 
ATOM     14  C   UNL     1       3.182   5.035  17.767  0.00  0.00    +0.000 A 
ATOM     15  C   UNL     1       3.698   6.340  17.921  0.00  0.00    +0.000 A 
ATOM     16  C   UNL     1       5.099   6.515  17.964  0.00  0.00    +0.000 A 
BRANCH  11  18
ATOM     17  C   UNL     1       7.966   5.702  19.123  0.00  0.00    +0.000 C 
ATOM     18  O   UNL     1       7.337   5.499  17.862  0.00  0.00    +0.000 OA
ENDBRANCH  11  18
BRANCH  14  19
ATOM     19  O   UNL     1       1.819   4.864  17.707  0.00  0.00    +0.000 OA
ATOM     20  C   UNL     1       1.321   3.634  18.234  0.00  0.00    +0.000 C 
ENDBRANCH  14  19
ENDBRANCH   6  15
ENDBRANCH   1   8
BRANCH   4  21
ATOM     21  C   UNL     1      -1.113  11.973  22.371  0.00  0.00    +0.000 C 
ATOM     22  O   UNL     1      -1.045  11.358  23.437  0.00  0.00    +0.000 OA
ATOM     23  N   UNL     1      -1.568  13.307  22.367  0.00  0.00    +0.000 N 
ATOM     24  C   UNL     1      -1.486  14.229  21.242  0.00  0.00    +0.000 C 
BRANCH  23  25
ATOM     25  C   UNL     1      -1.921  13.909  23.656  0.00  0.00    +0.000 C 
BRANCH  25  26
ATOM     26  C   UNL     1      -3.422  13.995  23.823  0.00  0.00    +0.000 A 
ATOM     27  C   UNL     1      -4.179  12.821  23.973  0.00  0.00    +0.000 A 
ATOM     28  C   UNL     1      -5.572  12.878  24.011  0.00  0.00    +0.000 A 
ATOM     29  C   UNL     1      -6.211  14.106  23.893  0.00  0.00    +0.000 A 
ATOM     30  F   UNL     1      -7.549  14.157  23.882  0.00  0.00    +0.000 F 
ATOM     31  C   UNL     1      -5.482  15.283  23.776  0.00  0.00    +0.000 A 
ATOM     32  C   UNL     1      -4.087  15.229  23.751  0.00  0.00    +0.000 A 
ENDBRANCH  25  26
ENDBRANCH  23  25
ENDBRANCH   4  21
TORSDOF 7
ENDMDL
MODEL 6
REMARK VINA RESULT:      -7.5      1.968      2.987
REMARK  Name = 
REMARK  10 active torsions:
REMARK  status: ('A' for Active; 'I' for Inactive)
REMARK    1  A    between atoms: C_1  and  O_2
REMARK    2  A    between atoms: O_2  and  C_3
REMARK    3  A    between atoms: C_6  and  O_7
REMARK    4  A    between atoms: O_7  and  C_8
REMARK    5  A    between atoms: C_9  and  C_10
REMARK    6  A    between atoms: C_12  and  C_13
REMARK    7  A    between atoms: C_16  and  C_17
REMARK    8  A    between atoms: N_19  and  C_20
REMARK    9  A    between atoms: N_19  and  C_21
REMARK   10  A    between atoms: C_21  and  C_22
REMARK                            x       y       z     vdW  Elec       q    Type
REMARK                         _______ _______ _______ _____ _____    ______ ____
ROOT
ATOM      1  C   UNL     1       1.830   7.833  19.576  0.00  0.00    +0.000 A 
ATOM      2  C   UNL     1       1.407   7.751  20.884  0.00  0.00    +0.000 A 
ATOM      3  C   UNL     1       0.750   8.933  21.324  0.00  0.00    +0.000 A 
ATOM      4  C   UNL     1       0.596   9.868  20.319  0.00  0.00    +0.000 A 
ATOM      5  S   UNL     1       1.395   9.337  18.883  0.00  0.00    +0.000 S 
ENDROOT
BRANCH   1   8
ATOM      6  C   UNL     1       4.067   5.646  17.696  0.00  0.00    +0.000 A 
ATOM      7  C   UNL     1       3.764   6.934  18.202  0.00  0.00    +0.000 A 
ATOM      8  C   UNL     1       2.549   6.821  18.849  0.00  0.00    +0.000 A 
ATOM      9  O   UNL     1       2.128   5.530  18.701  0.00  0.00    +0.000 OA
ATOM     10  N   UNL     1       3.065   4.802  18.000  0.00  0.00    +0.000 NA
BRANCH   6  15
ATOM     11  C   UNL     1       6.159   4.778  14.689  0.00  0.00    +0.000 A 
ATOM     12  C   UNL     1       7.365   4.405  15.272  0.00  0.00    +0.000 A 
ATOM     13  C   UNL     1       7.515   4.415  16.659  0.00  0.00    +0.000 A 
ATOM     14  C   UNL     1       6.451   4.783  17.494  0.00  0.00    +0.000 A 
ATOM     15  C   UNL     1       5.232   5.200  16.915  0.00  0.00    +0.000 A 
ATOM     16  C   UNL     1       5.110   5.187  15.508  0.00  0.00    +0.000 A 
BRANCH  11  18
ATOM     17  C   UNL     1       5.971   3.402  12.764  0.00  0.00    +0.000 C 
ATOM     18  O   UNL     1       6.134   4.699  13.325  0.00  0.00    +0.000 OA
ENDBRANCH  11  18
BRANCH  14  19
ATOM     19  O   UNL     1       6.567   4.778  18.864  0.00  0.00    +0.000 OA
ATOM     20  C   UNL     1       7.508   5.700  19.414  0.00  0.00    +0.000 C 
ENDBRANCH  14  19
ENDBRANCH   6  15
ENDBRANCH   1   8
BRANCH   4  21
ATOM     21  C   UNL     1      -0.022  11.194  20.329  0.00  0.00    +0.000 C 
ATOM     22  O   UNL     1       0.483  12.119  20.968  0.00  0.00    +0.000 OA
ATOM     23  N   UNL     1      -1.202  11.423  19.592  0.00  0.00    +0.000 N 
ATOM     24  C   UNL     1      -1.783  10.511  18.615  0.00  0.00    +0.000 C 
BRANCH  23  25
ATOM     25  C   UNL     1      -1.761  12.777  19.608  0.00  0.00    +0.000 C 
BRANCH  25  26
ATOM     26  C   UNL     1      -2.941  12.868  20.550  0.00  0.00    +0.000 A 
ATOM     27  C   UNL     1      -2.726  13.023  21.930  0.00  0.00    +0.000 A 
ATOM     28  C   UNL     1      -3.799  12.992  22.821  0.00  0.00    +0.000 A 
ATOM     29  C   UNL     1      -5.086  12.799  22.335  0.00  0.00    +0.000 A 
ATOM     30  F   UNL     1      -6.111  12.720  23.194  0.00  0.00    +0.000 F 
ATOM     31  C   UNL     1      -5.326  12.674  20.972  0.00  0.00    +0.000 A 
ATOM     32  C   UNL     1      -4.255  12.719  20.078  0.00  0.00    +0.000 A 
ENDBRANCH  25  26
ENDBRANCH  23  25
ENDBRANCH   4  21
TORSDOF 7
ENDMDL
MODEL 7
REMARK VINA RESULT:      -7.5      4.154     11.965
REMARK  Name = 
REMARK  10 active torsions:
REMARK  status: ('A' for Active; 'I' for Inactive)
REMARK    1  A    between atoms: C_1  and  O_2
REMARK    2  A    between atoms: O_2  and  C_3
REMARK    3  A    between atoms: C_6  and  O_7
REMARK    4  A    between atoms: O_7  and  C_8
REMARK    5  A    between atoms: C_9  and  C_10
REMARK    6  A    between atoms: C_12  and  C_13
REMARK    7  A    between atoms: C_16  and  C_17
REMARK    8  A    between atoms: N_19  and  C_20
REMARK    9  A    between atoms: N_19  and  C_21
REMARK   10  A    between atoms: C_21  and  C_22
REMARK                            x       y       z     vdW  Elec       q    Type
REMARK                         _______ _______ _______ _____ _____    ______ ____
ROOT
ATOM      1  C   UNL     1       1.379   8.654  20.437  0.00  0.00    +0.000 A 
ATOM      2  C   UNL     1       1.453   8.938  19.091  0.00  0.00    +0.000 A 
ATOM      3  C   UNL     1       2.241   7.996  18.374  0.00  0.00    +0.000 A 
ATOM      4  C   UNL     1       2.682   6.952  19.164  0.00  0.00    +0.000 A 
ATOM      5  S   UNL     1       2.242   7.223  20.812  0.00  0.00    +0.000 S 
ENDROOT
BRANCH   1   8
ATOM      6  C   UNL     1      -0.611  10.886  22.529  0.00  0.00    +0.000 A 
ATOM      7  C   UNL     1      -0.120  10.533  21.249  0.00  0.00    +0.000 A 
ATOM      8  C   UNL     1       0.686   9.427  21.433  0.00  0.00    +0.000 A 
ATOM      9  O   UNL     1       0.704   9.156  22.772  0.00  0.00    +0.000 OA
ATOM     10  N   UNL     1      -0.102  10.047  23.448  0.00  0.00    +0.000 NA
BRANCH   6  15
ATOM     11  C   UNL     1      -3.694  12.643  23.787  0.00  0.00    +0.000 A 
ATOM     12  C   UNL     1      -3.316  13.979  23.720  0.00  0.00    +0.000 A 
ATOM     13  C   UNL     1      -2.051  14.335  23.249  0.00  0.00    +0.000 A 
ATOM     14  C   UNL     1      -1.145  13.357  22.817  0.00  0.00    +0.000 A 
ATOM     15  C   UNL     1      -1.501  11.994  22.915  0.00  0.00    +0.000 A 
ATOM     16  C   UNL     1      -2.785  11.662  23.402  0.00  0.00    +0.000 A 
BRANCH  11  18
ATOM     17  C   UNL     1      -6.012  13.097  23.543  0.00  0.00    +0.000 C 
ATOM     18  O   UNL     1      -4.966  12.431  24.242  0.00  0.00    +0.000 OA
ENDBRANCH  11  18
BRANCH  14  19
ATOM     19  O   UNL     1       0.098  13.683  22.328  0.00  0.00    +0.000 OA
ATOM     20  C   UNL     1       0.430  15.071  22.342  0.00  0.00    +0.000 C 
ENDBRANCH  14  19
ENDBRANCH   6  15
ENDBRANCH   1   8
BRANCH   4  21
ATOM     21  C   UNL     1       3.495   5.780  18.839  0.00  0.00    +0.000 C 
ATOM     22  O   UNL     1       4.643   5.669  19.275  0.00  0.00    +0.000 OA
ATOM     23  N   UNL     1       2.960   4.760  18.026  0.00  0.00    +0.000 N 
ATOM     24  C   UNL     1       1.564   4.634  17.631  0.00  0.00    +0.000 C 
BRANCH  23  25
ATOM     25  C   UNL     1       3.803   3.592  17.759  0.00  0.00    +0.000 C 
BRANCH  25  26
ATOM     26  C   UNL     1       4.873   3.915  16.738  0.00  0.00    +0.000 A 
ATOM     27  C   UNL     1       6.207   4.080  17.149  0.00  0.00    +0.000 A 
ATOM     28  C   UNL     1       7.181   4.491  16.240  0.00  0.00    +0.000 A 
ATOM     29  C   UNL     1       6.823   4.745  14.921  0.00  0.00    +0.000 A 
ATOM     30  F   UNL     1       7.748   5.186  14.059  0.00  0.00    +0.000 F 
ATOM     31  C   UNL     1       5.517   4.558  14.486  0.00  0.00    +0.000 A 
ATOM     32  C   UNL     1       4.544   4.133  15.391  0.00  0.00    +0.000 A 
ENDBRANCH  25  26
ENDBRANCH  23  25
ENDBRANCH   4  21
TORSDOF 7
ENDMDL
MODEL 8
REMARK VINA RESULT:      -7.5      0.859      1.020
REMARK  Name = 
REMARK  10 active torsions:
REMARK  status: ('A' for Active; 'I' for Inactive)
REMARK    1  A    between atoms: C_1  and  O_2
REMARK    2  A    between atoms: O_2  and  C_3
REMARK    3  A    between atoms: C_6  and  O_7
REMARK    4  A    between atoms: O_7  and  C_8
REMARK    5  A    between atoms: C_9  and  C_10
REMARK    6  A    between atoms: C_12  and  C_13
REMARK    7  A    between atoms: C_16  and  C_17
REMARK    8  A    between atoms: N_19  and  C_20
REMARK    9  A    between atoms: N_19  and  C_21
REMARK   10  A    between atoms: C_21  and  C_22
REMARK                            x       y       z     vdW  Elec       q    Type
REMARK                         _______ _______ _______ _____ _____    ______ ____
ROOT
ATOM      1  C   UNL     1       0.980   9.086  20.367  0.00  0.00    +0.000 A 
ATOM      2  C   UNL     1       0.563   8.518  21.550  0.00  0.00    +0.000 A 
ATOM      3  C   UNL     1      -0.201   9.413  22.349  0.00  0.00    +0.000 A 
ATOM      4  C   UNL     1      -0.436  10.623  21.725  0.00  0.00    +0.000 A 
ATOM      5  S   UNL     1       0.412  10.695  20.223  0.00  0.00    +0.000 S 
ENDROOT
BRANCH   1   8
ATOM      6  C   UNL     1       2.974   7.017  18.116  0.00  0.00    +0.000 A 
ATOM      7  C   UNL     1       2.302   7.172  19.353  0.00  0.00    +0.000 A 
ATOM      8  C   UNL     1       1.790   8.455  19.359  0.00  0.00    +0.000 A 
ATOM      9  O   UNL     1       2.174   9.050  18.191  0.00  0.00    +0.000 OA
ATOM     10  N   UNL     1       2.894   8.164  17.419  0.00  0.00    +0.000 NA
BRANCH   6  15
ATOM     11  C   UNL     1       5.781   5.034  16.579  0.00  0.00    +0.000 A 
ATOM     12  C   UNL     1       5.263   3.745  16.582  0.00  0.00    +0.000 A 
ATOM     13  C   UNL     1       3.980   3.498  17.072  0.00  0.00    +0.000 A 
ATOM     14  C   UNL     1       3.181   4.544  17.554  0.00  0.00    +0.000 A 
ATOM     15  C   UNL     1       3.709   5.854  17.593  0.00  0.00    +0.000 A 
ATOM     16  C   UNL     1       5.014   6.074  17.096  0.00  0.00    +0.000 A 
BRANCH  11  18
ATOM     17  C   UNL     1       7.159   4.924  14.649  0.00  0.00    +0.000 C 
ATOM     18  O   UNL     1       7.037   5.145  16.049  0.00  0.00    +0.000 OA
ENDBRANCH  11  18
BRANCH  14  19
ATOM     19  O   UNL     1       1.906   4.330  18.021  0.00  0.00    +0.000 OA
ATOM     20  C   UNL     1       1.791   3.458  19.144  0.00  0.00    +0.000 C 
ENDBRANCH  14  19
ENDBRANCH   6  15
ENDBRANCH   1   8
BRANCH   4  21
ATOM     21  C   UNL     1      -1.172  11.806  22.173  0.00  0.00    +0.000 C 
ATOM     22  O   UNL     1      -0.976  12.282  23.293  0.00  0.00    +0.000 OA
ATOM     23  N   UNL     1      -2.107  12.416  21.313  0.00  0.00    +0.000 N 
ATOM     24  C   UNL     1      -2.279  12.118  19.897  0.00  0.00    +0.000 C 
BRANCH  23  25
ATOM     25  C   UNL     1      -2.791  13.619  21.796  0.00  0.00    +0.000 C 
BRANCH  25  26
ATOM     26  C   UNL     1      -4.132  13.273  22.407  0.00  0.00    +0.000 A 
ATOM     27  C   UNL     1      -5.169  12.790  21.591  0.00  0.00    +0.000 A 
ATOM     28  C   UNL     1      -6.443  12.578  22.119  0.00  0.00    +0.000 A 
ATOM     29  C   UNL     1      -6.683  12.854  23.460  0.00  0.00    +0.000 A 
ATOM     30  F   UNL     1      -7.917  12.696  23.956  0.00  0.00    +0.000 F 
ATOM     31  C   UNL     1      -5.664  13.302  24.292  0.00  0.00    +0.000 A 
ATOM     32  C   UNL     1      -4.386  13.502  23.769  0.00  0.00    +0.000 A 
ENDBRANCH  25  26
ENDBRANCH  23  25
ENDBRANCH   4  21
TORSDOF 7
ENDMDL
MODEL 9
REMARK VINA RESULT:      -7.4      1.468      1.838
REMARK  Name = 
REMARK  10 active torsions:
REMARK  status: ('A' for Active; 'I' for Inactive)
REMARK    1  A    between atoms: C_1  and  O_2
REMARK    2  A    between atoms: O_2  and  C_3
REMARK    3  A    between atoms: C_6  and  O_7
REMARK    4  A    between atoms: O_7  and  C_8
REMARK    5  A    between atoms: C_9  and  C_10
REMARK    6  A    between atoms: C_12  and  C_13
REMARK    7  A    between atoms: C_16  and  C_17
REMARK    8  A    between atoms: N_19  and  C_20
REMARK    9  A    between atoms: N_19  and  C_21
REMARK   10  A    between atoms: C_21  and  C_22
REMARK                            x       y       z     vdW  Elec       q    Type
REMARK                         _______ _______ _______ _____ _____    ______ ____
ROOT
ATOM      1  C   UNL     1       1.138  10.008  19.575  0.00  0.00    +0.000 A 
ATOM      2  C   UNL     1       1.278  10.973  18.602  0.00  0.00    +0.000 A 
ATOM      3  C   UNL     1       0.642  12.197  18.949  0.00  0.00    +0.000 A 
ATOM      4  C   UNL     1       0.104  12.182  20.221  0.00  0.00    +0.000 A 
ATOM      5  S   UNL     1       0.262  10.610  20.917  0.00  0.00    +0.000 S 
ENDROOT
BRANCH   1   8
ATOM      6  C   UNL     1       2.604   6.731  18.915  0.00  0.00    +0.000 A 
ATOM      7  C   UNL     1       2.234   8.016  18.449  0.00  0.00    +0.000 A 
ATOM      8  C   UNL     1       1.639   8.660  19.515  0.00  0.00    +0.000 A 
ATOM      9  O   UNL     1       1.621   7.782  20.561  0.00  0.00    +0.000 OA
ATOM     10  N   UNL     1       2.223   6.597  20.198  0.00  0.00    +0.000 NA
BRANCH   6  15
ATOM     11  C   UNL     1       5.330   4.789  17.191  0.00  0.00    +0.000 A 
ATOM     12  C   UNL     1       4.674   3.614  16.841  0.00  0.00    +0.000 A 
ATOM     13  C   UNL     1       3.324   3.438  17.148  0.00  0.00    +0.000 A 
ATOM     14  C   UNL     1       2.598   4.446  17.797  0.00  0.00    +0.000 A 
ATOM     15  C   UNL     1       3.260   5.629  18.192  0.00  0.00    +0.000 A 
ATOM     16  C   UNL     1       4.629   5.778  17.875  0.00  0.00    +0.000 A 
BRANCH  11  18
ATOM     17  C   UNL     1       6.895   5.105  15.434  0.00  0.00    +0.000 C 
ATOM     18  O   UNL     1       6.642   4.847  16.811  0.00  0.00    +0.000 OA
ENDBRANCH  11  18
BRANCH  14  19
ATOM     19  O   UNL     1       1.262   4.306  18.090  0.00  0.00    +0.000 OA
ATOM     20  C   UNL     1       0.908   3.155  18.857  0.00  0.00    +0.000 C 
ENDBRANCH  14  19
ENDBRANCH   6  15
ENDBRANCH   1   8
BRANCH   4  21
ATOM     21  C   UNL     1      -0.616  13.213  20.970  0.00  0.00    +0.000 C 
ATOM     22  O   UNL     1      -0.012  13.990  21.712  0.00  0.00    +0.000 OA
ATOM     23  N   UNL     1      -2.015  13.328  20.834  0.00  0.00    +0.000 N 
ATOM     24  C   UNL     1      -2.830  12.649  19.836  0.00  0.00    +0.000 C 
BRANCH  23  25
ATOM     25  C   UNL     1      -2.683  14.399  21.578  0.00  0.00    +0.000 C 
BRANCH  25  26
ATOM     26  C   UNL     1      -3.895  13.873  22.317  0.00  0.00    +0.000 A 
ATOM     27  C   UNL     1      -5.185  14.223  21.885  0.00  0.00    +0.000 A 
ATOM     28  C   UNL     1      -6.305  13.842  22.623  0.00  0.00    +0.000 A 
ATOM     29  C   UNL     1      -6.138  13.115  23.796  0.00  0.00    +0.000 A 
ATOM     30  F   UNL     1      -7.209  12.790  24.531  0.00  0.00    +0.000 F 
ATOM     31  C   UNL     1      -4.873  12.731  24.225  0.00  0.00    +0.000 A 
ATOM     32  C   UNL     1      -3.752  13.100  23.481  0.00  0.00    +0.000 A 
ENDBRANCH  25  26
ENDBRANCH  23  25
ENDBRANCH   4  21
TORSDOF 7
ENDMDL
