MODEL 1
REMARK VINA RESULT:      -6.5      0.000      0.000
REMARK  Name = 
REMARK  11 active torsions:
REMARK  status: ('A' for Active; 'I' for Inactive)
REMARK    1  A    between atoms: C_1  and  C_2
REMARK    2  A    between atoms: C_2  and  C_3
REMARK    3  A    between atoms: C_3  and  S_4
REMARK    4  A    between atoms: S_4  and  C_5
REMARK    5  A    between atoms: C_9  and  C_10
REMARK    6  A    between atoms: C_10  and  C_11
REMARK    7  A    between atoms: C_10  and  C_12
REMARK    8  A    between atoms: C_13  and  O_14
REMARK    9  A    between atoms: N_15  and  C_16
REMARK   10  A    between atoms: C_21  and  O_22
REMARK   11  A    between atoms: O_22  and  C_23
REMARK                            x       y       z     vdW  Elec       q    Type
REMARK                         _______ _______ _______ _____ _____    ______ ____
ROOT
ATOM      1  C   UNL     1       3.481   6.324  18.626  0.00  0.00    +0.000 A 
ATOM      2  N   UNL     1       2.449   6.471  19.390  0.00  0.00    +0.000 NA
ATOM      3  C   UNL     1       1.984   5.432  20.139  0.00  0.00    +0.000 A 
ATOM      4  O   UNL     1       1.089   5.587  20.962  0.00  0.00    +0.000 OA
ATOM      5  C   UNL     1       2.548   4.065  19.892  0.00  0.00    +0.000 A 
ATOM      6  C   UNL     1       3.694   4.021  19.197  0.00  0.00    +0.000 A 
ATOM      7  N   UNL     1       4.232   5.142  18.508  0.00  0.00    +0.000 N 
ENDROOT
BRANCH   7   8
ATOM      8  C   UNL     1       5.160   4.905  17.407  0.00  0.00    +0.000 A 
ATOM      9  C   UNL     1       4.628   4.754  16.097  0.00  0.00    +0.000 A 
ATOM     10  C   UNL     1       5.415   4.435  14.989  0.00  0.00    +0.000 A 
ATOM     11  C   UNL     1       6.784   4.311  15.138  0.00  0.00    +0.000 A 
ATOM     12  C   UNL     1       7.356   4.500  16.394  0.00  0.00    +0.000 A 
ATOM     13  C   UNL     1       6.568   4.799  17.527  0.00  0.00    +0.000 A 
BRANCH  13  14
ATOM     14  O   UNL     1       7.171   4.923  18.759  0.00  0.00    +0.000 OA
ATOM     15  C   UNL     1       7.842   6.178  18.953  0.00  0.00    +0.000 C 
ENDBRANCH  13  14
ENDBRANCH   7   8
BRANCH   5  16
ATOM     16  C   UNL     1       1.727   2.925  20.504  0.00  0.00    +0.000 C 
ATOM     17  C   UNL     1       1.448   1.882  19.409  0.00  0.00    +0.000 C 
ATOM     18  C   UNL     1       2.282   2.210  21.740  0.00  0.00    +0.000 C 
ENDBRANCH   5  16
BRANCH   6  19
ATOM     19  O   UNL     1       4.394   2.829  19.088  0.00  0.00    +0.000 OA
ATOM     20  H   UNL     1       4.791   2.807  18.202  0.00  0.00    +0.000 HD
ENDBRANCH   6  19
BRANCH   1  21
ATOM     21  S   UNL     1       3.796   7.754  17.623  0.00  0.00    +0.000 S 
BRANCH  21  22
ATOM     22  C   UNL     1       2.135   8.470  17.430  0.00  0.00    +0.000 C 
BRANCH  22  24
ATOM     23  C   UNL     1       1.024  10.007  19.096  0.00  0.00    +0.000 C 
ATOM     24  C   UNL     1       2.127   9.864  18.057  0.00  0.00    +0.000 C 
ENDBRANCH  22  24
ENDBRANCH  21  22
ENDBRANCH   1  21
TORSDOF 7
ENDMDL
MODEL 2
REMARK VINA RESULT:      -6.5      1.797      5.061
REMARK  Name = 
REMARK  11 active torsions:
REMARK  status: ('A' for Active; 'I' for Inactive)
REMARK    1  A    between atoms: C_1  and  C_2
REMARK    2  A    between atoms: C_2  and  C_3
REMARK    3  A    between atoms: C_3  and  S_4
REMARK    4  A    between atoms: S_4  and  C_5
REMARK    5  A    between atoms: C_9  and  C_10
REMARK    6  A    between atoms: C_10  and  C_11
REMARK    7  A    between atoms: C_10  and  C_12
REMARK    8  A    between atoms: C_13  and  O_14
REMARK    9  A    between atoms: N_15  and  C_16
REMARK   10  A    between atoms: C_21  and  O_22
REMARK   11  A    between atoms: O_22  and  C_23
REMARK                            x       y       z     vdW  Elec       q    Type
REMARK                         _______ _______ _______ _____ _____    ______ ____
ROOT
ATOM      1  C   UNL     1       3.395   6.487  18.007  0.00  0.00    +0.000 A 
ATOM      2  N   UNL     1       4.262   7.303  17.504  0.00  0.00    +0.000 NA
ATOM      3  C   UNL     1       5.571   6.943  17.392  0.00  0.00    +0.000 A 
ATOM      4  O   UNL     1       6.381   7.652  16.803  0.00  0.00    +0.000 OA
ATOM      5  C   UNL     1       6.027   5.684  18.065  0.00  0.00    +0.000 A 
ATOM      6  C   UNL     1       5.057   4.836  18.438  0.00  0.00    +0.000 A 
ATOM      7  N   UNL     1       3.678   5.182  18.446  0.00  0.00    +0.000 N 
ENDROOT
BRANCH   7   8
ATOM      8  C   UNL     1       2.773   4.426  19.306  0.00  0.00    +0.000 A 
ATOM      9  C   UNL     1       2.805   4.679  20.704  0.00  0.00    +0.000 A 
ATOM     10  C   UNL     1       2.048   3.951  21.625  0.00  0.00    +0.000 A 
ATOM     11  C   UNL     1       1.181   2.973  21.174  0.00  0.00    +0.000 A 
ATOM     12  C   UNL     1       1.080   2.726  19.808  0.00  0.00    +0.000 A 
ATOM     13  C   UNL     1       1.857   3.438  18.867  0.00  0.00    +0.000 A 
BRANCH  13  14
ATOM     14  O   UNL     1       1.765   3.121  17.531  0.00  0.00    +0.000 OA
ATOM     15  C   UNL     1       2.713   2.130  17.103  0.00  0.00    +0.000 C 
ENDBRANCH  13  14
ENDBRANCH   7   8
BRANCH   5  16
ATOM     16  C   UNL     1       7.548   5.553  18.194  0.00  0.00    +0.000 C 
ATOM     17  C   UNL     1       7.929   5.734  19.674  0.00  0.00    +0.000 C 
ATOM     18  C   UNL     1       8.218   4.282  17.662  0.00  0.00    +0.000 C 
ENDBRANCH   5  16
BRANCH   6  19
ATOM     19  O   UNL     1       5.381   3.564  18.884  0.00  0.00    +0.000 OA
ATOM     20  H   UNL     1       5.339   3.578  19.854  0.00  0.00    +0.000 HD
ENDBRANCH   6  19
BRANCH   1  21
ATOM     21  S   UNL     1       1.796   7.231  18.208  0.00  0.00    +0.000 S 
BRANCH  21  22
ATOM     22  C   UNL     1       2.118   8.971  17.786  0.00  0.00    +0.000 C 
BRANCH  22  24
ATOM     23  C   UNL     1       0.719   9.579  19.798  0.00  0.00    +0.000 C 
ATOM     24  C   UNL     1       0.966   9.824  18.317  0.00  0.00    +0.000 C 
ENDBRANCH  22  24
ENDBRANCH  21  22
ENDBRANCH   1  21
TORSDOF 7
ENDMDL
MODEL 3
REMARK VINA RESULT:      -6.5      2.388      4.519
REMARK  Name = 
REMARK  11 active torsions:
REMARK  status: ('A' for Active; 'I' for Inactive)
REMARK    1  A    between atoms: C_1  and  C_2
REMARK    2  A    between atoms: C_2  and  C_3
REMARK    3  A    between atoms: C_3  and  S_4
REMARK    4  A    between atoms: S_4  and  C_5
REMARK    5  A    between atoms: C_9  and  C_10
REMARK    6  A    between atoms: C_10  and  C_11
REMARK    7  A    between atoms: C_10  and  C_12
REMARK    8  A    between atoms: C_13  and  O_14
REMARK    9  A    between atoms: N_15  and  C_16
REMARK   10  A    between atoms: C_21  and  O_22
REMARK   11  A    between atoms: O_22  and  C_23
REMARK                            x       y       z     vdW  Elec       q    Type
REMARK                         _______ _______ _______ _____ _____    ______ ____
ROOT
ATOM      1  C   UNL     1       4.683   3.706  16.915  0.00  0.00    +0.000 A 
ATOM      2  N   UNL     1       3.762   2.800  16.886  0.00  0.00    +0.000 NA
ATOM      3  C   UNL     1       2.751   2.806  17.798  0.00  0.00    +0.000 A 
ATOM      4  O   UNL     1       1.803   2.032  17.708  0.00  0.00    +0.000 OA
ATOM      5  C   UNL     1       2.848   3.740  18.967  0.00  0.00    +0.000 A 
ATOM      6  C   UNL     1       3.745   4.730  18.852  0.00  0.00    +0.000 A 
ATOM      7  N   UNL     1       4.730   4.775  17.827  0.00  0.00    +0.000 N 
ENDROOT
BRANCH   7   8
ATOM      8  C   UNL     1       5.936   5.566  18.052  0.00  0.00    +0.000 A 
ATOM      9  C   UNL     1       6.831   5.154  19.077  0.00  0.00    +0.000 A 
ATOM     10  C   UNL     1       7.964   5.887  19.436  0.00  0.00    +0.000 A 
ATOM     11  C   UNL     1       8.281   7.038  18.739  0.00  0.00    +0.000 A 
ATOM     12  C   UNL     1       7.460   7.452  17.693  0.00  0.00    +0.000 A 
ATOM     13  C   UNL     1       6.297   6.734  17.336  0.00  0.00    +0.000 A 
BRANCH  13  14
ATOM     14  O   UNL     1       5.486   7.212  16.331  0.00  0.00    +0.000 OA
ATOM     15  C   UNL     1       4.206   7.674  16.790  0.00  0.00    +0.000 C 
ENDBRANCH  13  14
ENDBRANCH   7   8
BRANCH   5  16
ATOM     16  C   UNL     1       1.874   3.426  20.108  0.00  0.00    +0.000 C 
ATOM     17  C   UNL     1       2.684   2.925  21.316  0.00  0.00    +0.000 C 
ATOM     18  C   UNL     1       0.918   4.529  20.574  0.00  0.00    +0.000 C 
ENDBRANCH   5  16
BRANCH   6  19
ATOM     19  O   UNL     1       3.772   5.755  19.785  0.00  0.00    +0.000 OA
ATOM     20  H   UNL     1       4.525   5.591  20.374  0.00  0.00    +0.000 HD
ENDBRANCH   6  19
BRANCH   1  21
ATOM     21  S   UNL     1       5.980   3.399  15.744  0.00  0.00    +0.000 S 
BRANCH  21  22
ATOM     22  C   UNL     1       5.446   4.373  14.304  0.00  0.00    +0.000 C 
BRANCH  22  24
ATOM     23  C   UNL     1       5.580   3.106  12.125  0.00  0.00    +0.000 C 
ATOM     24  C   UNL     1       6.321   4.000  13.108  0.00  0.00    +0.000 C 
ENDBRANCH  22  24
ENDBRANCH  21  22
ENDBRANCH   1  21
TORSDOF 7
ENDMDL
MODEL 4
REMARK VINA RESULT:      -6.4      1.831      4.905
REMARK  Name = 
REMARK  11 active torsions:
REMARK  status: ('A' for Active; 'I' for Inactive)
REMARK    1  A    between atoms: C_1  and  C_2
REMARK    2  A    between atoms: C_2  and  C_3
REMARK    3  A    between atoms: C_3  and  S_4
REMARK    4  A    between atoms: S_4  and  C_5
REMARK    5  A    between atoms: C_9  and  C_10
REMARK    6  A    between atoms: C_10  and  C_11
REMARK    7  A    between atoms: C_10  and  C_12
REMARK    8  A    between atoms: C_13  and  O_14
REMARK    9  A    between atoms: N_15  and  C_16
REMARK   10  A    between atoms: C_21  and  O_22
REMARK   11  A    between atoms: O_22  and  C_23
REMARK                            x       y       z     vdW  Elec       q    Type
REMARK                         _______ _______ _______ _____ _____    ______ ____
ROOT
ATOM      1  C   UNL     1       3.345   6.110  18.044  0.00  0.00    +0.000 A 
ATOM      2  N   UNL     1       4.103   6.782  17.243  0.00  0.00    +0.000 NA
ATOM      3  C   UNL     1       4.899   6.144  16.339  0.00  0.00    +0.000 A 
ATOM      4  O   UNL     1       5.526   6.766  15.488  0.00  0.00    +0.000 OA
ATOM      5  C   UNL     1       5.048   4.656  16.444  0.00  0.00    +0.000 A 
ATOM      6  C   UNL     1       4.134   4.028  17.197  0.00  0.00    +0.000 A 
ATOM      7  N   UNL     1       3.229   4.709  18.056  0.00  0.00    +0.000 N 
ENDROOT
BRANCH   7   8
ATOM      8  C   UNL     1       2.641   3.977  19.174  0.00  0.00    +0.000 A 
ATOM      9  C   UNL     1       1.236   4.059  19.370  0.00  0.00    +0.000 A 
ATOM     10  C   UNL     1       0.584   3.473  20.457  0.00  0.00    +0.000 A 
ATOM     11  C   UNL     1       1.311   2.727  21.366  0.00  0.00    +0.000 A 
ATOM     12  C   UNL     1       2.684   2.577  21.186  0.00  0.00    +0.000 A 
ATOM     13  C   UNL     1       3.359   3.184  20.104  0.00  0.00    +0.000 A 
BRANCH  13  14
ATOM     14  O   UNL     1       4.726   3.054  19.997  0.00  0.00    +0.000 OA
ATOM     15  C   UNL     1       5.228   1.798  20.477  0.00  0.00    +0.000 C 
ENDBRANCH  13  14
ENDBRANCH   7   8
BRANCH   5  16
ATOM     16  C   UNL     1       6.219   4.082  15.640  0.00  0.00    +0.000 C 
ATOM     17  C   UNL     1       5.807   4.012  14.159  0.00  0.00    +0.000 C 
ATOM     18  C   UNL     1       7.582   4.773  15.743  0.00  0.00    +0.000 C 
ENDBRANCH   5  16
BRANCH   6  19
ATOM     19  O   UNL     1       4.066   2.643  17.196  0.00  0.00    +0.000 OA
ATOM     20  H   UNL     1       3.202   2.395  16.830  0.00  0.00    +0.000 HD
ENDBRANCH   6  19
BRANCH   1  21
ATOM     21  S   UNL     1       2.533   7.141  19.240  0.00  0.00    +0.000 S 
BRANCH  21  22
ATOM     22  C   UNL     1       1.999   8.559  18.235  0.00  0.00    +0.000 C 
BRANCH  22  24
ATOM     23  C   UNL     1       0.986   8.940  20.516  0.00  0.00    +0.000 C 
ATOM     24  C   UNL     1       1.174   9.500  19.114  0.00  0.00    +0.000 C 
ENDBRANCH  22  24
ENDBRANCH  21  22
ENDBRANCH   1  21
TORSDOF 7
ENDMDL
MODEL 5
REMARK VINA RESULT:      -6.0      2.510      4.163
REMARK  Name = 
REMARK  11 active torsions:
REMARK  status: ('A' for Active; 'I' for Inactive)
REMARK    1  A    between atoms: C_1  and  C_2
REMARK    2  A    between atoms: C_2  and  C_3
REMARK    3  A    between atoms: C_3  and  S_4
REMARK    4  A    between atoms: S_4  and  C_5
REMARK    5  A    between atoms: C_9  and  C_10
REMARK    6  A    between atoms: C_10  and  C_11
REMARK    7  A    between atoms: C_10  and  C_12
REMARK    8  A    between atoms: C_13  and  O_14
REMARK    9  A    between atoms: N_15  and  C_16
REMARK   10  A    between atoms: C_21  and  O_22
REMARK   11  A    between atoms: O_22  and  C_23
REMARK                            x       y       z     vdW  Elec       q    Type
REMARK                         _______ _______ _______ _____ _____    ______ ____
ROOT
ATOM      1  C   UNL     1       4.834   3.916  17.254  0.00  0.00    +0.000 A 
ATOM      2  N   UNL     1       4.062   2.900  17.455  0.00  0.00    +0.000 NA
ATOM      3  C   UNL     1       3.116   2.928  18.435  0.00  0.00    +0.000 A 
ATOM      4  O   UNL     1       2.294   2.026  18.557  0.00  0.00    +0.000 OA
ATOM      5  C   UNL     1       3.138   4.061  19.416  0.00  0.00    +0.000 A 
ATOM      6  C   UNL     1       3.865   5.130  19.061  0.00  0.00    +0.000 A 
ATOM      7  N   UNL     1       4.771   5.127  17.964  0.00  0.00    +0.000 N 
ENDROOT
BRANCH   7   8
ATOM      8  C   UNL     1       5.853   6.107  17.950  0.00  0.00    +0.000 A 
ATOM      9  C   UNL     1       5.724   7.241  17.103  0.00  0.00    +0.000 A 
ATOM     10  C   UNL     1       6.736   8.190  16.945  0.00  0.00    +0.000 A 
ATOM     11  C   UNL     1       7.902   8.073  17.679  0.00  0.00    +0.000 A 
ATOM     12  C   UNL     1       8.051   7.004  18.560  0.00  0.00    +0.000 A 
ATOM     13  C   UNL     1       7.045   6.024  18.711  0.00  0.00    +0.000 A 
BRANCH  13  14
ATOM     14  O   UNL     1       7.260   4.955  19.552  0.00  0.00    +0.000 OA
ATOM     15  C   UNL     1       8.357   5.142  20.460  0.00  0.00    +0.000 C 
ENDBRANCH  13  14
ENDBRANCH   7   8
BRANCH   5  16
ATOM     16  C   UNL     1       2.291   3.824  20.671  0.00  0.00    +0.000 C 
ATOM     17  C   UNL     1       0.806   3.847  20.269  0.00  0.00    +0.000 C 
ATOM     18  C   UNL     1       2.559   2.568  21.506  0.00  0.00    +0.000 C 
ENDBRANCH   5  16
BRANCH   6  19
ATOM     19  O   UNL     1       3.789   6.299  19.801  0.00  0.00    +0.000 OA
ATOM     20  H   UNL     1       2.927   6.705  19.615  0.00  0.00    +0.000 HD
ENDBRANCH   6  19
BRANCH   1  21
ATOM     21  S   UNL     1       6.093   3.588  16.046  0.00  0.00    +0.000 S 
BRANCH  21  22
ATOM     22  C   UNL     1       5.424   4.388  14.556  0.00  0.00    +0.000 C 
BRANCH  22  24
ATOM     23  C   UNL     1       5.691   3.294  12.297  0.00  0.00    +0.000 C 
ATOM     24  C   UNL     1       6.368   4.112  13.386  0.00  0.00    +0.000 C 
ENDBRANCH  22  24
ENDBRANCH  21  22
ENDBRANCH   1  21
TORSDOF 7
ENDMDL
MODEL 6
REMARK VINA RESULT:      -6.0      1.721      4.756
REMARK  Name = 
REMARK  11 active torsions:
REMARK  status: ('A' for Active; 'I' for Inactive)
REMARK    1  A    between atoms: C_1  and  C_2
REMARK    2  A    between atoms: C_2  and  C_3
REMARK    3  A    between atoms: C_3  and  S_4
REMARK    4  A    between atoms: S_4  and  C_5
REMARK    5  A    between atoms: C_9  and  C_10
REMARK    6  A    between atoms: C_10  and  C_11
REMARK    7  A    between atoms: C_10  and  C_12
REMARK    8  A    between atoms: C_13  and  O_14
REMARK    9  A    between atoms: N_15  and  C_16
REMARK   10  A    between atoms: C_21  and  O_22
REMARK   11  A    between atoms: O_22  and  C_23
REMARK                            x       y       z     vdW  Elec       q    Type
REMARK                         _______ _______ _______ _____ _____    ______ ____
ROOT
ATOM      1  C   UNL     1       3.249   6.325  17.849  0.00  0.00    +0.000 A 
ATOM      2  N   UNL     1       3.872   7.115  17.038  0.00  0.00    +0.000 NA
ATOM      3  C   UNL     1       4.691   6.615  16.072  0.00  0.00    +0.000 A 
ATOM      4  O   UNL     1       5.188   7.339  15.216  0.00  0.00    +0.000 OA
ATOM      5  C   UNL     1       5.034   5.156  16.111  0.00  0.00    +0.000 A 
ATOM      6  C   UNL     1       4.250   4.390  16.883  0.00  0.00    +0.000 A 
ATOM      7  N   UNL     1       3.313   4.921  17.813  0.00  0.00    +0.000 N 
ENDROOT
BRANCH   7   8
ATOM      8  C   UNL     1       2.885   4.083  18.929  0.00  0.00    +0.000 A 
ATOM      9  C   UNL     1       1.492   3.954  19.179  0.00  0.00    +0.000 A 
ATOM     10  C   UNL     1       0.978   3.252  20.271  0.00  0.00    +0.000 A 
ATOM     11  C   UNL     1       1.843   2.598  21.129  0.00  0.00    +0.000 A 
ATOM     12  C   UNL     1       3.214   2.656  20.894  0.00  0.00    +0.000 A 
ATOM     13  C   UNL     1       3.748   3.382  19.807  0.00  0.00    +0.000 A 
BRANCH  13  14
ATOM     14  O   UNL     1       5.114   3.457  19.646  0.00  0.00    +0.000 OA
ATOM     15  C   UNL     1       5.642   4.785  19.782  0.00  0.00    +0.000 C 
ENDBRANCH  13  14
ENDBRANCH   7   8
BRANCH   5  16
ATOM     16  C   UNL     1       6.224   4.764  15.228  0.00  0.00    +0.000 C 
ATOM     17  C   UNL     1       7.366   4.278  16.137  0.00  0.00    +0.000 C 
ATOM     18  C   UNL     1       6.000   3.732  14.118  0.00  0.00    +0.000 C 
ENDBRANCH   5  16
BRANCH   6  19
ATOM     19  O   UNL     1       4.359   3.009  16.832  0.00  0.00    +0.000 OA
ATOM     20  H   UNL     1       3.994   2.659  17.660  0.00  0.00    +0.000 HD
ENDBRANCH   6  19
BRANCH   1  21
ATOM     21  S   UNL     1       2.379   7.203  19.123  0.00  0.00    +0.000 S 
BRANCH  21  22
ATOM     22  C   UNL     1       1.916   8.750  18.286  0.00  0.00    +0.000 C 
BRANCH  22  24
ATOM     23  C   UNL     1       0.978   8.960  20.620  0.00  0.00    +0.000 C 
ATOM     24  C   UNL     1       1.043   9.576  19.230  0.00  0.00    +0.000 C 
ENDBRANCH  22  24
ENDBRANCH  21  22
ENDBRANCH   1  21
TORSDOF 7
ENDMDL
MODEL 7
REMARK VINA RESULT:      -5.9      1.714      5.143
REMARK  Name = 
REMARK  11 active torsions:
REMARK  status: ('A' for Active; 'I' for Inactive)
REMARK    1  A    between atoms: C_1  and  C_2
REMARK    2  A    between atoms: C_2  and  C_3
REMARK    3  A    between atoms: C_3  and  S_4
REMARK    4  A    between atoms: S_4  and  C_5
REMARK    5  A    between atoms: C_9  and  C_10
REMARK    6  A    between atoms: C_10  and  C_11
REMARK    7  A    between atoms: C_10  and  C_12
REMARK    8  A    between atoms: C_13  and  O_14
REMARK    9  A    between atoms: N_15  and  C_16
REMARK   10  A    between atoms: C_21  and  O_22
REMARK   11  A    between atoms: O_22  and  C_23
REMARK                            x       y       z     vdW  Elec       q    Type
REMARK                         _______ _______ _______ _____ _____    ______ ____
ROOT
ATOM      1  C   UNL     1       3.226   6.660  18.202  0.00  0.00    +0.000 A 
ATOM      2  N   UNL     1       4.033   7.421  17.538  0.00  0.00    +0.000 NA
ATOM      3  C   UNL     1       5.109   6.895  16.889  0.00  0.00    +0.000 A 
ATOM      4  O   UNL     1       5.810   7.580  16.152  0.00  0.00    +0.000 OA
ATOM      5  C   UNL     1       5.467   5.461  17.145  0.00  0.00    +0.000 A 
ATOM      6  C   UNL     1       4.516   4.715  17.723  0.00  0.00    +0.000 A 
ATOM      7  N   UNL     1       3.338   5.263  18.301  0.00  0.00    +0.000 N 
ENDROOT
BRANCH   7   8
ATOM      8  C   UNL     1       2.631   4.486  19.315  0.00  0.00    +0.000 A 
ATOM      9  C   UNL     1       2.891   4.769  20.684  0.00  0.00    +0.000 A 
ATOM     10  C   UNL     1       2.340   4.028  21.731  0.00  0.00    +0.000 A 
ATOM     11  C   UNL     1       1.455   3.004  21.450  0.00  0.00    +0.000 A 
ATOM     12  C   UNL     1       1.132   2.723  20.125  0.00  0.00    +0.000 A 
ATOM     13  C   UNL     1       1.701   3.449  19.055  0.00  0.00    +0.000 A 
BRANCH  13  14
ATOM     14  O   UNL     1       1.394   3.100  17.759  0.00  0.00    +0.000 OA
ATOM     15  C   UNL     1       2.120   1.958  17.278  0.00  0.00    +0.000 C 
ENDBRANCH  13  14
ENDBRANCH   7   8
BRANCH   5  16
ATOM     16  C   UNL     1       6.870   5.068  16.671  0.00  0.00    +0.000 C 
ATOM     17  C   UNL     1       7.677   4.582  17.888  0.00  0.00    +0.000 C 
ATOM     18  C   UNL     1       6.998   4.036  15.547  0.00  0.00    +0.000 C 
ENDBRANCH   5  16
BRANCH   6  19
ATOM     19  O   UNL     1       4.674   3.341  17.819  0.00  0.00    +0.000 OA
ATOM     20  H   UNL     1       4.571   2.974  16.927  0.00  0.00    +0.000 HD
ENDBRANCH   6  19
BRANCH   1  21
ATOM     21  S   UNL     1       2.003   7.582  19.099  0.00  0.00    +0.000 S 
BRANCH  21  22
ATOM     22  C   UNL     1       1.605   8.930  17.945  0.00  0.00    +0.000 C 
BRANCH  22  24
ATOM     23  C   UNL     1      -0.677  10.008  17.881  0.00  0.00    +0.000 C 
ATOM     24  C   UNL     1       0.641   9.896  18.633  0.00  0.00    +0.000 C 
ENDBRANCH  22  24
ENDBRANCH  21  22
ENDBRANCH   1  21
TORSDOF 7
ENDMDL
MODEL 8
REMARK VINA RESULT:      -5.9      1.750      4.812
REMARK  Name = 
REMARK  11 active torsions:
REMARK  status: ('A' for Active; 'I' for Inactive)
REMARK    1  A    between atoms: C_1  and  C_2
REMARK    2  A    between atoms: C_2  and  C_3
REMARK    3  A    between atoms: C_3  and  S_4
REMARK    4  A    between atoms: S_4  and  C_5
REMARK    5  A    between atoms: C_9  and  C_10
REMARK    6  A    between atoms: C_10  and  C_11
REMARK    7  A    between atoms: C_10  and  C_12
REMARK    8  A    between atoms: C_13  and  O_14
REMARK    9  A    between atoms: N_15  and  C_16
REMARK   10  A    between atoms: C_21  and  O_22
REMARK   11  A    between atoms: O_22  and  C_23
REMARK                            x       y       z     vdW  Elec       q    Type
REMARK                         _______ _______ _______ _____ _____    ______ ____
ROOT
ATOM      1  C   UNL     1       3.435   6.442  18.122  0.00  0.00    +0.000 A 
ATOM      2  N   UNL     1       4.330   7.310  17.781  0.00  0.00    +0.000 NA
ATOM      3  C   UNL     1       5.402   6.945  17.025  0.00  0.00    +0.000 A 
ATOM      4  O   UNL     1       6.190   7.776  16.587  0.00  0.00    +0.000 OA
ATOM      5  C   UNL     1       5.644   5.484  16.788  0.00  0.00    +0.000 A 
ATOM      6  C   UNL     1       4.611   4.670  17.049  0.00  0.00    +0.000 A 
ATOM      7  N   UNL     1       3.443   5.089  17.743  0.00  0.00    +0.000 N 
ENDROOT
BRANCH   7   8
ATOM      8  C   UNL     1       2.627   4.079  18.410  0.00  0.00    +0.000 A 
ATOM      9  C   UNL     1       1.264   3.952  18.026  0.00  0.00    +0.000 A 
ATOM     10  C   UNL     1       0.374   3.083  18.660  0.00  0.00    +0.000 A 
ATOM     11  C   UNL     1       0.830   2.259  19.672  0.00  0.00    +0.000 A 
ATOM     12  C   UNL     1       2.170   2.312  20.047  0.00  0.00    +0.000 A 
ATOM     13  C   UNL     1       3.076   3.204  19.430  0.00  0.00    +0.000 A 
BRANCH  13  14
ATOM     14  O   UNL     1       4.378   3.261  19.872  0.00  0.00    +0.000 OA
ATOM     15  C   UNL     1       4.837   2.048  20.489  0.00  0.00    +0.000 C 
ENDBRANCH  13  14
ENDBRANCH   7   8
BRANCH   5  16
ATOM     16  C   UNL     1       7.041   5.156  16.253  0.00  0.00    +0.000 C 
ATOM     17  C   UNL     1       7.805   4.370  17.332  0.00  0.00    +0.000 C 
ATOM     18  C   UNL     1       7.155   4.407  14.921  0.00  0.00    +0.000 C 
ENDBRANCH   5  16
BRANCH   6  19
ATOM     19  O   UNL     1       4.668   3.335  16.677  0.00  0.00    +0.000 OA
ATOM     20  H   UNL     1       5.155   3.289  15.838  0.00  0.00    +0.000 HD
ENDBRANCH   6  19
BRANCH   1  21
ATOM     21  S   UNL     1       2.229   7.108  19.241  0.00  0.00    +0.000 S 
BRANCH  21  22
ATOM     22  C   UNL     1       1.848   8.721  18.491  0.00  0.00    +0.000 C 
BRANCH  22  24
ATOM     23  C   UNL     1      -0.166  10.217  18.774  0.00  0.00    +0.000 C 
ATOM     24  C   UNL     1       0.997   9.528  19.472  0.00  0.00    +0.000 C 
ENDBRANCH  22  24
ENDBRANCH  21  22
ENDBRANCH   1  21
TORSDOF 7
ENDMDL
MODEL 9
REMARK VINA RESULT:      -5.8      1.839      4.024
REMARK  Name = 
REMARK  11 active torsions:
REMARK  status: ('A' for Active; 'I' for Inactive)
REMARK    1  A    between atoms: C_1  and  C_2
REMARK    2  A    between atoms: C_2  and  C_3
REMARK    3  A    between atoms: C_3  and  S_4
REMARK    4  A    between atoms: S_4  and  C_5
REMARK    5  A    between atoms: C_9  and  C_10
REMARK    6  A    between atoms: C_10  and  C_11
REMARK    7  A    between atoms: C_10  and  C_12
REMARK    8  A    between atoms: C_13  and  O_14
REMARK    9  A    between atoms: N_15  and  C_16
REMARK   10  A    between atoms: C_21  and  O_22
REMARK   11  A    between atoms: O_22  and  C_23
REMARK                            x       y       z     vdW  Elec       q    Type
REMARK                         _______ _______ _______ _____ _____    ______ ____
ROOT
ATOM      1  C   UNL     1       3.439   4.439  19.314  0.00  0.00    +0.000 A 
ATOM      2  N   UNL     1       2.602   4.774  20.240  0.00  0.00    +0.000 NA
ATOM      3  C   UNL     1       2.000   5.996  20.225  0.00  0.00    +0.000 A 
ATOM      4  O   UNL     1       1.112   6.282  21.021  0.00  0.00    +0.000 OA
ATOM      5  C   UNL     1       2.493   7.023  19.250  0.00  0.00    +0.000 A 
ATOM      6  C   UNL     1       3.252   6.560  18.246  0.00  0.00    +0.000 A 
ATOM      7  N   UNL     1       3.786   5.243  18.215  0.00  0.00    +0.000 N 
ENDROOT
BRANCH   7   8
ATOM      8  C   UNL     1       4.963   4.986  17.391  0.00  0.00    +0.000 A 
ATOM      9  C   UNL     1       4.776   4.385  16.117  0.00  0.00    +0.000 A 
ATOM     10  C   UNL     1       5.838   4.015  15.288  0.00  0.00    +0.000 A 
ATOM     11  C   UNL     1       7.135   4.286  15.680  0.00  0.00    +0.000 A 
ATOM     12  C   UNL     1       7.364   4.919  16.899  0.00  0.00    +0.000 A 
ATOM     13  C   UNL     1       6.301   5.277  17.757  0.00  0.00    +0.000 A 
BRANCH  13  14
ATOM     14  O   UNL     1       6.578   5.852  18.978  0.00  0.00    +0.000 OA
ATOM     15  C   UNL     1       7.950   5.724  19.382  0.00  0.00    +0.000 C 
ENDBRANCH  13  14
ENDBRANCH   7   8
BRANCH   5  16
ATOM     16  C   UNL     1       2.021   8.450  19.546  0.00  0.00    +0.000 C 
ATOM     17  C   UNL     1       1.225   8.962  18.333  0.00  0.00    +0.000 C 
ATOM     18  C   UNL     1       1.204   8.699  20.817  0.00  0.00    +0.000 C 
ENDBRANCH   5  16
BRANCH   6  19
ATOM     19  O   UNL     1       3.589   7.393  17.190  0.00  0.00    +0.000 OA
ATOM     20  H   UNL     1       4.551   7.522  17.218  0.00  0.00    +0.000 HD
ENDBRANCH   6  19
BRANCH   1  21
ATOM     21  S   UNL     1       4.220   2.877  19.633  0.00  0.00    +0.000 S 
BRANCH  21  22
ATOM     22  C   UNL     1       3.268   1.741  18.579  0.00  0.00    +0.000 C 
BRANCH  22  24
ATOM     23  C   UNL     1       0.788   2.188  18.740  0.00  0.00    +0.000 C 
ATOM     24  C   UNL     1       2.076   2.499  17.993  0.00  0.00    +0.000 C 
ENDBRANCH  22  24
ENDBRANCH  21  22
ENDBRANCH   1  21
TORSDOF 7
ENDMDL
