MODEL 1
REMARK VINA RESULT:      -6.8      0.000      0.000
REMARK  Name = 
REMARK  9 active torsions:
REMARK  status: ('A' for Active; 'I' for Inactive)
REMARK    1  A    between atoms: C_1  and  C_2
REMARK    2  A    between atoms: C_8  and  C_9
REMARK    3  A    between atoms: N_16  and  C_17
REMARK    4  A    between atoms: C_17  and  C_18
REMARK    5  A    between atoms: N_20  and  C_21
REMARK    6  A    between atoms: N_25  and  C_26
REMARK    7  A    between atoms: C_26  and  C_27
REMARK    8  A    between atoms: C_26  and  C_28
REMARK    9  A    between atoms: C_26  and  C_29
REMARK                            x       y       z     vdW  Elec       q    Type
REMARK                         _______ _______ _______ _____ _____    ______ ____
ROOT
ATOM      1  C   UNL     1      -1.353  11.623  22.431  0.00  0.00    +0.000 A 
ATOM      2  C   UNL     1      -1.098  10.446  23.129  0.00  0.00    +0.000 A 
ATOM      3  C   UNL     1      -0.203   9.496  22.628  0.00  0.00    +0.000 A 
ATOM      4  C   UNL     1       0.495   9.715  21.427  0.00  0.00    +0.000 A 
ATOM      5  C   UNL     1       0.300  10.890  20.703  0.00  0.00    +0.000 A 
ATOM      6  C   UNL     1       1.123  11.240  19.481  0.00  0.00    +0.000 A 
ATOM      7  O   UNL     1       1.937  10.410  19.075  0.00  0.00    +0.000 OA
ATOM      8  N   UNL     1       0.992  12.528  18.927  0.00  0.00    +0.000 N 
ATOM      9  C   UNL     1       0.101  13.398  19.584  0.00  0.00    +0.000 A 
ATOM     10  N   UNL     1       0.083  14.744  19.325  0.00  0.00    +0.000 N 
ATOM     11  N   UNL     1      -0.719  13.021  20.515  0.00  0.00    +0.000 NA
ATOM     12  C   UNL     1      -0.634  11.810  21.185  0.00  0.00    +0.000 A 
ATOM     13  H   UNL     1      -0.334  14.979  18.430  0.00  0.00    +0.000 HD
ENDROOT
BRANCH   1  21
ATOM     14  C   UNL     1      -6.792  13.024  24.049  0.00  0.00    +0.000 C 
ATOM     15  C   UNL     1      -5.747  13.970  23.513  0.00  0.00    +0.000 C 
ATOM     16  N   UNL     1      -5.536  15.158  24.346  0.00  0.00    +0.000 N 
ATOM     17  C   UNL     1      -4.185  15.457  24.575  0.00  0.00    +0.000 C 
ATOM     18  O   UNL     1      -3.750  16.463  25.107  0.00  0.00    +0.000 OA
ATOM     19  C   UNL     1      -3.455  14.333  24.032  0.00  0.00    +0.000 A 
ATOM     20  C   UNL     1      -2.174  13.807  23.752  0.00  0.00    +0.000 A 
ATOM     21  C   UNL     1      -2.341  12.583  23.057  0.00  0.00    +0.000 A 
ATOM     22  N   UNL     1      -3.714  12.327  23.106  0.00  0.00    +0.000 N 
ATOM     23  C   UNL     1      -4.360  13.452  23.521  0.00  0.00    +0.000 A 
ATOM     24  H   UNL     1      -6.231  15.877  24.489  0.00  0.00    +0.000 HD
ATOM     25  H   UNL     1      -4.135  11.505  22.701  0.00  0.00    +0.000 HD
ENDBRANCH   1  21
BRANCH  10  26
ATOM     26  C   UNL     1      -0.246  15.694  20.424  0.00  0.00    +0.000 C 
ATOM     27  C   UNL     1      -1.783  15.696  20.614  0.00  0.00    +0.000 C 
ATOM     28  C   UNL     1       0.545  15.335  21.679  0.00  0.00    +0.000 C 
ATOM     29  C   UNL     1       0.209  17.125  20.147  0.00  0.00    +0.000 C 
ENDBRANCH  10  26
BRANCH   8  30
ATOM     30  C   UNL     1       2.111  13.021  18.046  0.00  0.00    +0.000 C 
BRANCH  30  31
ATOM     31  C   UNL     1       3.032  14.211  18.409  0.00  0.00    +0.000 A 
ATOM     32  C   UNL     1       3.737  14.530  19.565  0.00  0.00    +0.000 A 
ATOM     33  N   UNL     1       3.923  15.898  19.554  0.00  0.00    +0.000 N 
ATOM     34  C   UNL     1       4.366  16.748  20.638  0.00  0.00    +0.000 C 
ATOM     35  C   UNL     1       3.448  16.363  18.356  0.00  0.00    +0.000 A 
ATOM     36  N   UNL     1       2.927  15.384  17.645  0.00  0.00    +0.000 NA
ENDBRANCH  30  31
ENDBRANCH   8  30
TORSDOF 4
ENDMDL
MODEL 2
REMARK VINA RESULT:      -6.6      4.034      8.476
REMARK  Name = 
REMARK  9 active torsions:
REMARK  status: ('A' for Active; 'I' for Inactive)
REMARK    1  A    between atoms: C_1  and  C_2
REMARK    2  A    between atoms: C_8  and  C_9
REMARK    3  A    between atoms: N_16  and  C_17
REMARK    4  A    between atoms: C_17  and  C_18
REMARK    5  A    between atoms: N_20  and  C_21
REMARK    6  A    between atoms: N_25  and  C_26
REMARK    7  A    between atoms: C_26  and  C_27
REMARK    8  A    between atoms: C_26  and  C_28
REMARK    9  A    between atoms: C_26  and  C_29
REMARK                            x       y       z     vdW  Elec       q    Type
REMARK                         _______ _______ _______ _____ _____    ______ ____
ROOT
ATOM      1  C   UNL     1       0.100   9.785  21.298  0.00  0.00    +0.000 A 
ATOM      2  C   UNL     1       0.238   9.457  22.644  0.00  0.00    +0.000 A 
ATOM      3  C   UNL     1      -0.461  10.162  23.628  0.00  0.00    +0.000 A 
ATOM      4  C   UNL     1      -1.354  11.195  23.289  0.00  0.00    +0.000 A 
ATOM      5  C   UNL     1      -1.553  11.544  21.955  0.00  0.00    +0.000 A 
ATOM      6  C   UNL     1      -2.600  12.550  21.523  0.00  0.00    +0.000 A 
ATOM      7  O   UNL     1      -3.237  13.133  22.400  0.00  0.00    +0.000 OA
ATOM      8  N   UNL     1      -2.864  12.699  20.148  0.00  0.00    +0.000 N 
ATOM      9  C   UNL     1      -2.127  11.870  19.281  0.00  0.00    +0.000 A 
ATOM     10  N   UNL     1      -2.472  11.714  17.964  0.00  0.00    +0.000 N 
ATOM     11  N   UNL     1      -1.117  11.149  19.660  0.00  0.00    +0.000 NA
ATOM     12  C   UNL     1      -0.811  10.869  20.982  0.00  0.00    +0.000 A 
ATOM     13  H   UNL     1      -2.254  12.522  17.389  0.00  0.00    +0.000 HD
ENDROOT
BRANCH   1  21
ATOM     14  C   UNL     1       2.323   4.683  19.513  0.00  0.00    +0.000 C 
ATOM     15  C   UNL     1       2.976   6.036  19.387  0.00  0.00    +0.000 C 
ATOM     16  N   UNL     1       3.442   6.348  18.032  0.00  0.00    +0.000 N 
ATOM     17  C   UNL     1       3.098   7.635  17.596  0.00  0.00    +0.000 C 
ATOM     18  O   UNL     1       3.488   8.180  16.578  0.00  0.00    +0.000 OA
ATOM     19  C   UNL     1       2.211   8.151  18.616  0.00  0.00    +0.000 A 
ATOM     20  C   UNL     1       1.482   9.277  19.058  0.00  0.00    +0.000 A 
ATOM     21  C   UNL     1       0.904   8.964  20.313  0.00  0.00    +0.000 A 
ATOM     22  N   UNL     1       1.155   7.601  20.494  0.00  0.00    +0.000 N 
ATOM     23  C   UNL     1       2.075   7.195  19.576  0.00  0.00    +0.000 A 
ATOM     24  H   UNL     1       4.190   5.853  17.565  0.00  0.00    +0.000 HD
ATOM     25  H   UNL     1       0.844   7.089  21.305  0.00  0.00    +0.000 HD
ENDBRANCH   1  21
BRANCH  10  26
ATOM     26  C   UNL     1      -2.232  10.404  17.297  0.00  0.00    +0.000 C 
ATOM     27  C   UNL     1      -0.725  10.069  17.423  0.00  0.00    +0.000 C 
ATOM     28  C   UNL     1      -3.164   9.344  17.877  0.00  0.00    +0.000 C 
ATOM     29  C   UNL     1      -2.607  10.398  15.817  0.00  0.00    +0.000 C 
ENDBRANCH  10  26
BRANCH   8  30
ATOM     30  C   UNL     1      -4.181  13.319  19.758  0.00  0.00    +0.000 C 
BRANCH  30  31
ATOM     31  C   UNL     1      -5.511  12.531  19.671  0.00  0.00    +0.000 A 
ATOM     32  C   UNL     1      -6.400  12.087  20.645  0.00  0.00    +0.000 A 
ATOM     33  N   UNL     1      -7.079  11.013  20.104  0.00  0.00    +0.000 N 
ATOM     34  C   UNL     1      -7.917  10.050  20.787  0.00  0.00    +0.000 C 
ATOM     35  C   UNL     1      -6.689  10.904  18.795  0.00  0.00    +0.000 A 
ATOM     36  N   UNL     1      -5.771  11.801  18.501  0.00  0.00    +0.000 NA
ENDBRANCH  30  31
ENDBRANCH   8  30
TORSDOF 4
ENDMDL
MODEL 3
REMARK VINA RESULT:      -6.5      5.087     10.568
REMARK  Name = 
REMARK  9 active torsions:
REMARK  status: ('A' for Active; 'I' for Inactive)
REMARK    1  A    between atoms: C_1  and  C_2
REMARK    2  A    between atoms: C_8  and  C_9
REMARK    3  A    between atoms: N_16  and  C_17
REMARK    4  A    between atoms: C_17  and  C_18
REMARK    5  A    between atoms: N_20  and  C_21
REMARK    6  A    between atoms: N_25  and  C_26
REMARK    7  A    between atoms: C_26  and  C_27
REMARK    8  A    between atoms: C_26  and  C_28
REMARK    9  A    between atoms: C_26  and  C_29
REMARK                            x       y       z     vdW  Elec       q    Type
REMARK                         _______ _______ _______ _____ _____    ______ ____
ROOT
ATOM      1  C   UNL     1       8.582  13.347  21.194  0.00  0.00    +0.000 A 
ATOM      2  C   UNL     1       8.971  12.149  21.787  0.00  0.00    +0.000 A 
ATOM      3  C   UNL     1       8.315  11.665  22.923  0.00  0.00    +0.000 A 
ATOM      4  C   UNL     1       7.220  12.351  23.479  0.00  0.00    +0.000 A 
ATOM      5  C   UNL     1       6.770  13.540  22.908  0.00  0.00    +0.000 A 
ATOM      6  C   UNL     1       5.516  14.246  23.378  0.00  0.00    +0.000 A 
ATOM      7  O   UNL     1       4.925  13.785  24.356  0.00  0.00    +0.000 OA
ATOM      8  N   UNL     1       5.030  15.331  22.624  0.00  0.00    +0.000 N 
ATOM      9  C   UNL     1       5.761  15.658  21.466  0.00  0.00    +0.000 A 
ATOM     10  N   UNL     1       5.258  16.497  20.506  0.00  0.00    +0.000 N 
ATOM     11  N   UNL     1       6.923  15.156  21.182  0.00  0.00    +0.000 NA
ATOM     12  C   UNL     1       7.464  14.042  21.804  0.00  0.00    +0.000 A 
ATOM     13  H   UNL     1       5.248  17.473  20.785  0.00  0.00    +0.000 HD
ENDROOT
BRANCH   1  21
ATOM     14  C   UNL     1      10.659  17.536  17.687  0.00  0.00    +0.000 C 
ATOM     15  C   UNL     1      10.158  16.179  17.261  0.00  0.00    +0.000 C 
ATOM     16  N   UNL     1      11.092  15.443  16.403  0.00  0.00    +0.000 N 
ATOM     17  C   UNL     1      11.267  14.103  16.775  0.00  0.00    +0.000 C 
ATOM     18  O   UNL     1      11.871  13.252  16.144  0.00  0.00    +0.000 OA
ATOM     19  C   UNL     1      10.571  13.970  18.036  0.00  0.00    +0.000 A 
ATOM     20  C   UNL     1      10.163  13.072  19.047  0.00  0.00    +0.000 A 
ATOM     21  C   UNL     1       9.360  13.784  19.973  0.00  0.00    +0.000 A 
ATOM     22  N   UNL     1       9.466  15.122  19.584  0.00  0.00    +0.000 N 
ATOM     23  C   UNL     1      10.031  15.180  18.346  0.00  0.00    +0.000 A 
ATOM     24  H   UNL     1      11.348  15.733  15.469  0.00  0.00    +0.000 HD
ATOM     25  H   UNL     1       9.007  15.874  20.074  0.00  0.00    +0.000 HD
ENDBRANCH   1  21
BRANCH  10  26
ATOM     26  C   UNL     1       5.616  16.270  19.078  0.00  0.00    +0.000 C 
ATOM     27  C   UNL     1       6.824  17.175  18.736  0.00  0.00    +0.000 C 
ATOM     28  C   UNL     1       5.850  14.783  18.828  0.00  0.00    +0.000 C 
ATOM     29  C   UNL     1       4.480  16.592  18.108  0.00  0.00    +0.000 C 
ENDBRANCH  10  26
BRANCH   8  30
ATOM     30  C   UNL     1       3.584  15.712  22.808  0.00  0.00    +0.000 C 
BRANCH  30  31
ATOM     31  C   UNL     1       2.420  15.094  21.996  0.00  0.00    +0.000 A 
ATOM     32  C   UNL     1       1.039  15.244  22.077  0.00  0.00    +0.000 A 
ATOM     33  N   UNL     1       0.482  14.105  21.533  0.00  0.00    +0.000 N 
ATOM     34  C   UNL     1      -0.893  13.658  21.609  0.00  0.00    +0.000 C 
ATOM     35  C   UNL     1       1.509  13.352  21.027  0.00  0.00    +0.000 A 
ATOM     36  N   UNL     1       2.672  13.920  21.270  0.00  0.00    +0.000 NA
ENDBRANCH  30  31
ENDBRANCH   8  30
TORSDOF 4
ENDMDL
MODEL 4
REMARK VINA RESULT:      -6.5      3.864      7.152
REMARK  Name = 
REMARK  9 active torsions:
REMARK  status: ('A' for Active; 'I' for Inactive)
REMARK    1  A    between atoms: C_1  and  C_2
REMARK    2  A    between atoms: C_8  and  C_9
REMARK    3  A    between atoms: N_16  and  C_17
REMARK    4  A    between atoms: C_17  and  C_18
REMARK    5  A    between atoms: N_20  and  C_21
REMARK    6  A    between atoms: N_25  and  C_26
REMARK    7  A    between atoms: C_26  and  C_27
REMARK    8  A    between atoms: C_26  and  C_28
REMARK    9  A    between atoms: C_26  and  C_29
REMARK                            x       y       z     vdW  Elec       q    Type
REMARK                         _______ _______ _______ _____ _____    ______ ____
ROOT
ATOM      1  C   UNL     1      -6.765  15.007  22.436  0.00  0.00    +0.000 A 
ATOM      2  C   UNL     1      -7.766  15.931  22.148  0.00  0.00    +0.000 A 
ATOM      3  C   UNL     1      -7.820  17.160  22.813  0.00  0.00    +0.000 A 
ATOM      4  C   UNL     1      -6.846  17.518  23.762  0.00  0.00    +0.000 A 
ATOM      5  C   UNL     1      -5.804  16.644  24.066  0.00  0.00    +0.000 A 
ATOM      6  C   UNL     1      -4.655  17.030  24.974  0.00  0.00    +0.000 A 
ATOM      7  O   UNL     1      -4.696  18.132  25.520  0.00  0.00    +0.000 OA
ATOM      8  N   UNL     1      -3.553  16.159  25.073  0.00  0.00    +0.000 N 
ATOM      9  C   UNL     1      -3.613  14.991  24.290  0.00  0.00    +0.000 A 
ATOM     10  N   UNL     1      -2.510  14.204  24.079  0.00  0.00    +0.000 N 
ATOM     11  N   UNL     1      -4.678  14.599  23.662  0.00  0.00    +0.000 NA
ATOM     12  C   UNL     1      -5.788  15.398  23.435  0.00  0.00    +0.000 A 
ATOM     13  H   UNL     1      -2.242  13.657  24.891  0.00  0.00    +0.000 HD
ENDROOT
BRANCH   1  21
ATOM     14  C   UNL     1      -5.829  11.936  17.552  0.00  0.00    +0.000 C 
ATOM     15  C   UNL     1      -6.963  11.743  18.527  0.00  0.00    +0.000 C 
ATOM     16  N   UNL     1      -7.124  10.359  18.985  0.00  0.00    +0.000 N 
ATOM     17  C   UNL     1      -7.298  10.237  20.370  0.00  0.00    +0.000 C 
ATOM     18  O   UNL     1      -7.595   9.219  20.973  0.00  0.00    +0.000 OA
ATOM     19  C   UNL     1      -7.066  11.564  20.896  0.00  0.00    +0.000 A 
ATOM     20  C   UNL     1      -7.083  12.374  22.053  0.00  0.00    +0.000 A 
ATOM     21  C   UNL     1      -6.799  13.707  21.665  0.00  0.00    +0.000 A 
ATOM     22  N   UNL     1      -6.441  13.619  20.317  0.00  0.00    +0.000 N 
ATOM     23  C   UNL     1      -6.780  12.385  19.848  0.00  0.00    +0.000 A 
ATOM     24  H   UNL     1      -7.402   9.595  18.384  0.00  0.00    +0.000 HD
ATOM     25  H   UNL     1      -6.169  14.419  19.767  0.00  0.00    +0.000 HD
ENDBRANCH   1  21
BRANCH  10  26
ATOM     26  C   UNL     1      -2.360  13.492  22.780  0.00  0.00    +0.000 C 
ATOM     27  C   UNL     1      -3.422  12.366  22.723  0.00  0.00    +0.000 C 
ATOM     28  C   UNL     1      -2.433  14.488  21.626  0.00  0.00    +0.000 C 
ATOM     29  C   UNL     1      -0.980  12.865  22.587  0.00  0.00    +0.000 C 
ENDBRANCH  10  26
BRANCH   8  30
ATOM     30  C   UNL     1      -2.254  16.738  25.574  0.00  0.00    +0.000 C 
BRANCH  30  31
ATOM     31  C   UNL     1      -1.070  17.118  24.654  0.00  0.00    +0.000 A 
ATOM     32  C   UNL     1      -0.900  18.135  23.719  0.00  0.00    +0.000 A 
ATOM     33  N   UNL     1       0.064  17.702  22.830  0.00  0.00    +0.000 N 
ATOM     34  C   UNL     1       0.414  18.270  21.545  0.00  0.00    +0.000 C 
ATOM     35  C   UNL     1       0.544  16.509  23.301  0.00  0.00    +0.000 A 
ATOM     36  N   UNL     1      -0.096  16.142  24.392  0.00  0.00    +0.000 NA
ENDBRANCH  30  31
ENDBRANCH   8  30
TORSDOF 4
ENDMDL
MODEL 5
REMARK VINA RESULT:      -6.4      2.986      7.918
REMARK  Name = 
REMARK  9 active torsions:
REMARK  status: ('A' for Active; 'I' for Inactive)
REMARK    1  A    between atoms: C_1  and  C_2
REMARK    2  A    between atoms: C_8  and  C_9
REMARK    3  A    between atoms: N_16  and  C_17
REMARK    4  A    between atoms: C_17  and  C_18
REMARK    5  A    between atoms: N_20  and  C_21
REMARK    6  A    between atoms: N_25  and  C_26
REMARK    7  A    between atoms: C_26  and  C_27
REMARK    8  A    between atoms: C_26  and  C_28
REMARK    9  A    between atoms: C_26  and  C_29
REMARK                            x       y       z     vdW  Elec       q    Type
REMARK                         _______ _______ _______ _____ _____    ______ ____
ROOT
ATOM      1  C   UNL     1      -3.739  11.973  18.967  0.00  0.00    +0.000 A 
ATOM      2  C   UNL     1      -4.495  11.767  17.816  0.00  0.00    +0.000 A 
ATOM      3  C   UNL     1      -5.891  11.716  17.876  0.00  0.00    +0.000 A 
ATOM      4  C   UNL     1      -6.576  11.908  19.089  0.00  0.00    +0.000 A 
ATOM      5  C   UNL     1      -5.870  12.147  20.266  0.00  0.00    +0.000 A 
ATOM      6  C   UNL     1      -6.554  12.498  21.571  0.00  0.00    +0.000 A 
ATOM      7  O   UNL     1      -7.785  12.488  21.598  0.00  0.00    +0.000 OA
ATOM      8  N   UNL     1      -5.761  12.910  22.659  0.00  0.00    +0.000 N 
ATOM      9  C   UNL     1      -4.375  12.979  22.425  0.00  0.00    +0.000 A 
ATOM     10  N   UNL     1      -3.526  13.617  23.291  0.00  0.00    +0.000 N 
ATOM     11  N   UNL     1      -3.800  12.507  21.362  0.00  0.00    +0.000 NA
ATOM     12  C   UNL     1      -4.474  12.146  20.206  0.00  0.00    +0.000 A 
ATOM     13  H   UNL     1      -3.364  13.105  24.153  0.00  0.00    +0.000 HD
ENDROOT
BRANCH   1  21
ATOM     14  C   UNL     1       1.347   9.288  17.926  0.00  0.00    +0.000 C 
ATOM     15  C   UNL     1       1.122  10.443  18.869  0.00  0.00    +0.000 C 
ATOM     16  N   UNL     1       2.040  11.568  18.661  0.00  0.00    +0.000 N 
ATOM     17  C   UNL     1       1.408  12.820  18.644  0.00  0.00    +0.000 C 
ATOM     18  O   UNL     1       1.960  13.906  18.633  0.00  0.00    +0.000 OA
ATOM     19  C   UNL     1      -0.008  12.525  18.658  0.00  0.00    +0.000 A 
ATOM     20  C   UNL     1      -1.307  13.075  18.725  0.00  0.00    +0.000 A 
ATOM     21  C   UNL     1      -2.237  12.007  18.795  0.00  0.00    +0.000 A 
ATOM     22  N   UNL     1      -1.475  10.855  18.582  0.00  0.00    +0.000 N 
ATOM     23  C   UNL     1      -0.154  11.171  18.686  0.00  0.00    +0.000 A 
ATOM     24  H   UNL     1       3.036  11.521  18.826  0.00  0.00    +0.000 HD
ATOM     25  H   UNL     1      -1.873   9.929  18.562  0.00  0.00    +0.000 HD
ENDBRANCH   1  21
BRANCH  10  26
ATOM     26  C   UNL     1      -2.323  14.312  22.755  0.00  0.00    +0.000 C 
ATOM     27  C   UNL     1      -1.234  13.245  22.481  0.00  0.00    +0.000 C 
ATOM     28  C   UNL     1      -2.703  15.152  21.539  0.00  0.00    +0.000 C 
ATOM     29  C   UNL     1      -1.748  15.356  23.710  0.00  0.00    +0.000 C 
ENDBRANCH  10  26
BRANCH   8  30
ATOM     30  C   UNL     1      -6.441  13.687  23.758  0.00  0.00    +0.000 C 
BRANCH  30  31
ATOM     31  C   UNL     1      -6.581  15.228  23.762  0.00  0.00    +0.000 A 
ATOM     32  C   UNL     1      -7.483  16.088  23.141  0.00  0.00    +0.000 A 
ATOM     33  N   UNL     1      -6.852  17.310  23.024  0.00  0.00    +0.000 N 
ATOM     34  C   UNL     1      -7.256  18.452  22.232  0.00  0.00    +0.000 C 
ATOM     35  C   UNL     1      -5.650  17.211  23.675  0.00  0.00    +0.000 A 
ATOM     36  N   UNL     1      -5.466  15.992  24.140  0.00  0.00    +0.000 NA
ENDBRANCH  30  31
ENDBRANCH   8  30
TORSDOF 4
ENDMDL
MODEL 6
REMARK VINA RESULT:      -6.3      2.987      8.040
REMARK  Name = 
REMARK  9 active torsions:
REMARK  status: ('A' for Active; 'I' for Inactive)
REMARK    1  A    between atoms: C_1  and  C_2
REMARK    2  A    between atoms: C_8  and  C_9
REMARK    3  A    between atoms: N_16  and  C_17
REMARK    4  A    between atoms: C_17  and  C_18
REMARK    5  A    between atoms: N_20  and  C_21
REMARK    6  A    between atoms: N_25  and  C_26
REMARK    7  A    between atoms: C_26  and  C_27
REMARK    8  A    between atoms: C_26  and  C_28
REMARK    9  A    between atoms: C_26  and  C_29
REMARK                            x       y       z     vdW  Elec       q    Type
REMARK                         _______ _______ _______ _____ _____    ______ ____
ROOT
ATOM      1  C   UNL     1      -3.849  11.783  18.716  0.00  0.00    +0.000 A 
ATOM      2  C   UNL     1      -4.531  11.779  17.501  0.00  0.00    +0.000 A 
ATOM      3  C   UNL     1      -5.903  12.042  17.449  0.00  0.00    +0.000 A 
ATOM      4  C   UNL     1      -6.629  12.357  18.611  0.00  0.00    +0.000 A 
ATOM      5  C   UNL     1      -5.991  12.405  19.849  0.00  0.00    +0.000 A 
ATOM      6  C   UNL     1      -6.690  12.871  21.109  0.00  0.00    +0.000 A 
ATOM      7  O   UNL     1      -7.890  13.139  21.038  0.00  0.00    +0.000 OA
ATOM      8  N   UNL     1      -5.921  13.071  22.271  0.00  0.00    +0.000 N 
ATOM      9  C   UNL     1      -4.539  12.830  22.151  0.00  0.00    +0.000 A 
ATOM     10  N   UNL     1      -3.648  13.242  23.107  0.00  0.00    +0.000 N 
ATOM     11  N   UNL     1      -3.995  12.264  21.118  0.00  0.00    +0.000 NA
ATOM     12  C   UNL     1      -4.631  12.090  19.899  0.00  0.00    +0.000 A 
ATOM     13  H   UNL     1      -3.679  12.687  23.956  0.00  0.00    +0.000 HD
ENDROOT
BRANCH   1  21
ATOM     14  C   UNL     1       1.718  13.358  19.542  0.00  0.00    +0.000 C 
ATOM     15  C   UNL     1       1.191  12.487  18.430  0.00  0.00    +0.000 C 
ATOM     16  N   UNL     1       1.907  11.216  18.279  0.00  0.00    +0.000 N 
ATOM     17  C   UNL     1       1.066  10.105  18.136  0.00  0.00    +0.000 C 
ATOM     18  O   UNL     1       1.411   8.971  17.852  0.00  0.00    +0.000 OA
ATOM     19  C   UNL     1      -0.267  10.610  18.380  0.00  0.00    +0.000 A 
ATOM     20  C   UNL     1      -1.644  10.294  18.388  0.00  0.00    +0.000 A 
ATOM     21  C   UNL     1      -2.368  11.481  18.664  0.00  0.00    +0.000 A 
ATOM     22  N   UNL     1      -1.393  12.428  18.992  0.00  0.00    +0.000 N 
ATOM     23  C   UNL     1      -0.169  11.942  18.642  0.00  0.00    +0.000 A 
ATOM     24  H   UNL     1       2.873  11.145  17.988  0.00  0.00    +0.000 HD
ATOM     25  H   UNL     1      -1.614  13.376  19.252  0.00  0.00    +0.000 HD
ENDBRANCH   1  21
BRANCH  10  26
ATOM     26  C   UNL     1      -2.279  13.659  22.695  0.00  0.00    +0.000 C 
ATOM     27  C   UNL     1      -2.402  14.511  21.408  0.00  0.00    +0.000 C 
ATOM     28  C   UNL     1      -1.576  14.362  23.853  0.00  0.00    +0.000 C 
ATOM     29  C   UNL     1      -1.346  12.484  22.409  0.00  0.00    +0.000 C 
ENDBRANCH  10  26
BRANCH   8  30
ATOM     30  C   UNL     1      -6.503  13.956  23.344  0.00  0.00    +0.000 C 
BRANCH  30  31
ATOM     31  C   UNL     1      -6.156  15.456  23.503  0.00  0.00    +0.000 A 
ATOM     32  C   UNL     1      -5.219  16.122  24.287  0.00  0.00    +0.000 A 
ATOM     33  N   UNL     1      -5.689  17.409  24.463  0.00  0.00    +0.000 N 
ATOM     34  C   UNL     1      -5.222  18.410  25.398  0.00  0.00    +0.000 C 
ATOM     35  C   UNL     1      -6.816  17.538  23.696  0.00  0.00    +0.000 A 
ATOM     36  N   UNL     1      -7.112  16.402  23.099  0.00  0.00    +0.000 NA
ENDBRANCH  30  31
ENDBRANCH   8  30
TORSDOF 4
ENDMDL
MODEL 7
REMARK VINA RESULT:      -6.3      2.514      4.541
REMARK  Name = 
REMARK  9 active torsions:
REMARK  status: ('A' for Active; 'I' for Inactive)
REMARK    1  A    between atoms: C_1  and  C_2
REMARK    2  A    between atoms: C_8  and  C_9
REMARK    3  A    between atoms: N_16  and  C_17
REMARK    4  A    between atoms: C_17  and  C_18
REMARK    5  A    between atoms: N_20  and  C_21
REMARK    6  A    between atoms: N_25  and  C_26
REMARK    7  A    between atoms: C_26  and  C_27
REMARK    8  A    between atoms: C_26  and  C_28
REMARK    9  A    between atoms: C_26  and  C_29
REMARK                            x       y       z     vdW  Elec       q    Type
REMARK                         _______ _______ _______ _____ _____    ______ ____
ROOT
ATOM      1  C   UNL     1      -1.530  16.081  20.169  0.00  0.00    +0.000 A 
ATOM      2  C   UNL     1      -2.168  17.269  19.820  0.00  0.00    +0.000 A 
ATOM      3  C   UNL     1      -1.475  18.288  19.161  0.00  0.00    +0.000 A 
ATOM      4  C   UNL     1      -0.126  18.132  18.795  0.00  0.00    +0.000 A 
ATOM      5  C   UNL     1       0.553  16.953  19.092  0.00  0.00    +0.000 A 
ATOM      6  C   UNL     1       1.959  16.675  18.603  0.00  0.00    +0.000 A 
ATOM      7  O   UNL     1       2.543  17.568  17.988  0.00  0.00    +0.000 OA
ATOM      8  N   UNL     1       2.494  15.386  18.785  0.00  0.00    +0.000 N 
ATOM      9  C   UNL     1       1.650  14.445  19.405  0.00  0.00    +0.000 A 
ATOM     10  N   UNL     1       1.933  13.105  19.396  0.00  0.00    +0.000 N 
ATOM     11  N   UNL     1       0.524  14.752  19.971  0.00  0.00    +0.000 NA
ATOM     12  C   UNL     1      -0.133  15.960  19.797  0.00  0.00    +0.000 A 
ATOM     13  H   UNL     1       2.691  12.846  20.019  0.00  0.00    +0.000 HD
ENDROOT
BRANCH   1  21
ATOM     14  C   UNL     1      -5.792  12.082  20.184  0.00  0.00    +0.000 C 
ATOM     15  C   UNL     1      -5.443  13.021  21.311  0.00  0.00    +0.000 C 
ATOM     16  N   UNL     1      -5.249  12.354  22.603  0.00  0.00    +0.000 N 
ATOM     17  C   UNL     1      -4.103  12.774  23.292  0.00  0.00    +0.000 C 
ATOM     18  O   UNL     1      -3.803  12.483  24.437  0.00  0.00    +0.000 OA
ATOM     19  C   UNL     1      -3.394  13.622  22.358  0.00  0.00    +0.000 A 
ATOM     20  C   UNL     1      -2.286  14.479  22.180  0.00  0.00    +0.000 A 
ATOM     21  C   UNL     1      -2.368  15.044  20.883  0.00  0.00    +0.000 A 
ATOM     22  N   UNL     1      -3.422  14.367  20.263  0.00  0.00    +0.000 N 
ATOM     23  C   UNL     1      -4.118  13.672  21.206  0.00  0.00    +0.000 A 
ATOM     24  H   UNL     1      -5.987  11.887  23.112  0.00  0.00    +0.000 HD
ATOM     25  H   UNL     1      -3.709  14.549  19.314  0.00  0.00    +0.000 HD
ENDBRANCH   1  21
BRANCH  10  26
ATOM     26  C   UNL     1       0.813  12.124  19.352  0.00  0.00    +0.000 C 
ATOM     27  C   UNL     1       1.346  10.814  18.720  0.00  0.00    +0.000 C 
ATOM     28  C   UNL     1       0.211  11.954  20.743  0.00  0.00    +0.000 C 
ATOM     29  C   UNL     1      -0.383  12.604  18.532  0.00  0.00    +0.000 C 
ENDBRANCH  10  26
BRANCH   8  30
ATOM     30  C   UNL     1       3.655  14.987  17.910  0.00  0.00    +0.000 C 
BRANCH  30  31
ATOM     31  C   UNL     1       5.137  15.246  18.273  0.00  0.00    +0.000 A 
ATOM     32  C   UNL     1       5.790  16.356  18.800  0.00  0.00    +0.000 A 
ATOM     33  N   UNL     1       7.113  16.259  18.416  0.00  0.00    +0.000 N 
ATOM     34  C   UNL     1       8.140  17.276  18.487  0.00  0.00    +0.000 C 
ATOM     35  C   UNL     1       7.264  15.054  17.781  0.00  0.00    +0.000 A 
ATOM     36  N   UNL     1       6.113  14.421  17.694  0.00  0.00    +0.000 NA
ENDBRANCH  30  31
ENDBRANCH   8  30
TORSDOF 4
ENDMDL
MODEL 8
REMARK VINA RESULT:      -6.3      3.161      4.910
REMARK  Name = 
REMARK  9 active torsions:
REMARK  status: ('A' for Active; 'I' for Inactive)
REMARK    1  A    between atoms: C_1  and  C_2
REMARK    2  A    between atoms: C_8  and  C_9
REMARK    3  A    between atoms: N_16  and  C_17
REMARK    4  A    between atoms: C_17  and  C_18
REMARK    5  A    between atoms: N_20  and  C_21
REMARK    6  A    between atoms: N_25  and  C_26
REMARK    7  A    between atoms: C_26  and  C_27
REMARK    8  A    between atoms: C_26  and  C_28
REMARK    9  A    between atoms: C_26  and  C_29
REMARK                            x       y       z     vdW  Elec       q    Type
REMARK                         _______ _______ _______ _____ _____    ______ ____
ROOT
ATOM      1  C   UNL     1      -3.319  14.807  21.598  0.00  0.00    +0.000 A 
ATOM      2  C   UNL     1      -3.959  16.009  21.890  0.00  0.00    +0.000 A 
ATOM      3  C   UNL     1      -3.253  17.080  22.446  0.00  0.00    +0.000 A 
ATOM      4  C   UNL     1      -1.871  16.992  22.691  0.00  0.00    +0.000 A 
ATOM      5  C   UNL     1      -1.175  15.823  22.390  0.00  0.00    +0.000 A 
ATOM      6  C   UNL     1       0.332  15.719  22.503  0.00  0.00    +0.000 A 
ATOM      7  O   UNL     1       0.945  16.686  22.956  0.00  0.00    +0.000 OA
ATOM      8  N   UNL     1       0.968  14.569  21.998  0.00  0.00    +0.000 N 
ATOM      9  C   UNL     1       0.129  13.606  21.404  0.00  0.00    +0.000 A 
ATOM     10  N   UNL     1       0.630  12.586  20.639  0.00  0.00    +0.000 N 
ATOM     11  N   UNL     1      -1.165  13.636  21.478  0.00  0.00    +0.000 NA
ATOM     12  C   UNL     1      -1.898  14.741  21.883  0.00  0.00    +0.000 A 
ATOM     13  H   UNL     1       1.092  11.862  21.180  0.00  0.00    +0.000 HD
ENDROOT
BRANCH   1  21
ATOM     14  C   UNL     1      -4.897  11.430  17.096  0.00  0.00    +0.000 C 
ATOM     15  C   UNL     1      -5.809  11.984  18.161  0.00  0.00    +0.000 C 
ATOM     16  N   UNL     1      -6.657  10.974  18.803  0.00  0.00    +0.000 N 
ATOM     17  C   UNL     1      -6.691  11.067  20.201  0.00  0.00    +0.000 C 
ATOM     18  O   UNL     1      -7.427  10.444  20.947  0.00  0.00    +0.000 OA
ATOM     19  C   UNL     1      -5.690  12.056  20.535  0.00  0.00    +0.000 A 
ATOM     20  C   UNL     1      -5.104  12.807  21.578  0.00  0.00    +0.000 A 
ATOM     21  C   UNL     1      -4.174  13.710  21.004  0.00  0.00    +0.000 A 
ATOM     22  N   UNL     1      -4.103  13.343  19.657  0.00  0.00    +0.000 N 
ATOM     23  C   UNL     1      -5.131  12.495  19.374  0.00  0.00    +0.000 A 
ATOM     24  H   UNL     1      -7.389  10.467  18.324  0.00  0.00    +0.000 HD
ATOM     25  H   UNL     1      -3.502  13.806  18.993  0.00  0.00    +0.000 HD
ENDBRANCH   1  21
BRANCH  10  26
ATOM     26  C   UNL     1      -0.169  12.078  19.489  0.00  0.00    +0.000 C 
ATOM     27  C   UNL     1      -0.583  13.290  18.618  0.00  0.00    +0.000 C 
ATOM     28  C   UNL     1       0.614  11.002  18.743  0.00  0.00    +0.000 C 
ATOM     29  C   UNL     1      -1.434  11.331  19.910  0.00  0.00    +0.000 C 
ENDBRANCH  10  26
BRANCH   8  30
ATOM     30  C   UNL     1       2.439  14.671  21.686  0.00  0.00    +0.000 C 
BRANCH  30  31
ATOM     31  C   UNL     1       3.000  15.038  20.291  0.00  0.00    +0.000 A 
ATOM     32  C   UNL     1       3.096  16.247  19.609  0.00  0.00    +0.000 A 
ATOM     33  N   UNL     1       3.148  15.944  18.264  0.00  0.00    +0.000 N 
ATOM     34  C   UNL     1       2.995  16.841  17.139  0.00  0.00    +0.000 C 
ATOM     35  C   UNL     1       3.208  14.579  18.158  0.00  0.00    +0.000 A 
ATOM     36  N   UNL     1       3.139  14.011  19.344  0.00  0.00    +0.000 NA
ENDBRANCH  30  31
ENDBRANCH   8  30
TORSDOF 4
ENDMDL
MODEL 9
REMARK VINA RESULT:      -6.2      2.404      4.454
REMARK  Name = 
REMARK  9 active torsions:
REMARK  status: ('A' for Active; 'I' for Inactive)
REMARK    1  A    between atoms: C_1  and  C_2
REMARK    2  A    between atoms: C_8  and  C_9
REMARK    3  A    between atoms: N_16  and  C_17
REMARK    4  A    between atoms: C_17  and  C_18
REMARK    5  A    between atoms: N_20  and  C_21
REMARK    6  A    between atoms: N_25  and  C_26
REMARK    7  A    between atoms: C_26  and  C_27
REMARK    8  A    between atoms: C_26  and  C_28
REMARK    9  A    between atoms: C_26  and  C_29
REMARK                            x       y       z     vdW  Elec       q    Type
REMARK                         _______ _______ _______ _____ _____    ______ ____
ROOT
ATOM      1  C   UNL     1      -1.801  16.030  20.253  0.00  0.00    +0.000 A 
ATOM      2  C   UNL     1      -2.434  17.210  19.869  0.00  0.00    +0.000 A 
ATOM      3  C   UNL     1      -1.739  18.201  19.169  0.00  0.00    +0.000 A 
ATOM      4  C   UNL     1      -0.395  18.023  18.797  0.00  0.00    +0.000 A 
ATOM      5  C   UNL     1       0.279  16.849  19.129  0.00  0.00    +0.000 A 
ATOM      6  C   UNL     1       1.679  16.545  18.637  0.00  0.00    +0.000 A 
ATOM      7  O   UNL     1       2.263  17.412  17.987  0.00  0.00    +0.000 OA
ATOM      8  N   UNL     1       2.207  15.259  18.860  0.00  0.00    +0.000 N 
ATOM      9  C   UNL     1       1.361  14.346  19.518  0.00  0.00    +0.000 A 
ATOM     10  N   UNL     1       1.635  13.004  19.554  0.00  0.00    +0.000 N 
ATOM     11  N   UNL     1       0.243  14.680  20.083  0.00  0.00    +0.000 NA
ATOM     12  C   UNL     1      -0.408  15.886  19.873  0.00  0.00    +0.000 A 
ATOM     13  H   UNL     1       2.397  12.761  20.179  0.00  0.00    +0.000 HD
ENDROOT
BRANCH   1  21
ATOM     14  C   UNL     1      -6.068  12.041  20.435  0.00  0.00    +0.000 C 
ATOM     15  C   UNL     1      -5.716  13.024  21.522  0.00  0.00    +0.000 C 
ATOM     16  N   UNL     1      -5.523  12.411  22.840  0.00  0.00    +0.000 N 
ATOM     17  C   UNL     1      -4.376  12.857  23.510  0.00  0.00    +0.000 C 
ATOM     18  O   UNL     1      -4.075  12.612  24.666  0.00  0.00    +0.000 OA
ATOM     19  C   UNL     1      -3.666  13.665  22.542  0.00  0.00    +0.000 A 
ATOM     20  C   UNL     1      -2.557  14.512  22.329  0.00  0.00    +0.000 A 
ATOM     21  C   UNL     1      -2.640  15.025  21.010  0.00  0.00    +0.000 A 
ATOM     22  N   UNL     1      -3.694  14.324  20.419  0.00  0.00    +0.000 N 
ATOM     23  C   UNL     1      -4.390  13.669  21.389  0.00  0.00    +0.000 A 
ATOM     24  H   UNL     1      -6.261  11.966  23.369  0.00  0.00    +0.000 HD
ATOM     25  H   UNL     1      -3.982  14.467  19.463  0.00  0.00    +0.000 HD
ENDBRANCH   1  21
BRANCH  10  26
ATOM     26  C   UNL     1       0.508  12.030  19.552  0.00  0.00    +0.000 C 
ATOM     27  C   UNL     1      -0.550  12.520  18.532  0.00  0.00    +0.000 C 
ATOM     28  C   UNL     1       1.034  10.622  19.290  0.00  0.00    +0.000 C 
ATOM     29  C   UNL     1      -0.167  11.880  20.914  0.00  0.00    +0.000 C 
ENDBRANCH  10  26
BRANCH   8  30
ATOM     30  C   UNL     1       3.357  14.821  17.988  0.00  0.00    +0.000 C 
BRANCH  30  31
ATOM     31  C   UNL     1       4.845  15.046  18.350  0.00  0.00    +0.000 A 
ATOM     32  C   UNL     1       6.028  14.650  17.733  0.00  0.00    +0.000 A 
ATOM     33  N   UNL     1       6.999  14.626  18.714  0.00  0.00    +0.000 N 
ATOM     34  C   UNL     1       8.322  14.042  18.646  0.00  0.00    +0.000 C 
ATOM     35  C   UNL     1       6.432  15.118  19.859  0.00  0.00    +0.000 A 
ATOM     36  N   UNL     1       5.158  15.393  19.673  0.00  0.00    +0.000 NA
ENDBRANCH  30  31
ENDBRANCH   8  30
TORSDOF 4
ENDMDL
