MODEL 1
REMARK VINA RESULT:      -8.1      0.000      0.000
REMARK  Name = 
REMARK  3 active torsions:
REMARK  status: ('A' for Active; 'I' for Inactive)
REMARK    1  A    between atoms: C_2  and  C_3
REMARK    2  A    between atoms: C_3  and  N_4
REMARK    3  A    between atoms: N_14  and  N_15
REMARK                            x       y       z     vdW  Elec       q    Type
REMARK                         _______ _______ _______ _____ _____    ______ ____
ROOT
ATOM      1  N   UNL     1       5.414   5.365  18.367  0.00  0.00    +0.000 N 
ATOM      2  C   UNL     1       4.324   5.961  17.760  0.00  0.00    +0.000 C 
ATOM      3  O   UNL     1       4.373   6.829  16.902  0.00  0.00    +0.000 OA
ATOM      4  N   UNL     1       3.168   5.471  18.337  0.00  0.00    +0.000 N 
ATOM      5  C   UNL     1       3.472   4.728  19.520  0.00  0.00    +0.000 C 
ATOM      6  N   UNL     1       2.908   3.423  19.483  0.00  0.00    +0.000 N 
ATOM      7  C   UNL     1       3.865   2.503  19.099  0.00  0.00    +0.000 C 
ATOM      8  O   UNL     1       3.643   1.346  18.789  0.00  0.00    +0.000 OA
ATOM      9  N   UNL     1       5.096   3.115  19.088  0.00  0.00    +0.000 N 
ATOM     10  C   UNL     1       5.001   4.501  19.438  0.00  0.00    +0.000 C 
ATOM     11  H   UNL     1       2.263   5.838  18.083  0.00  0.00    +0.000 HD
ATOM     12  H   UNL     1       1.928   3.199  19.396  0.00  0.00    +0.000 HD
ATOM     13  H   UNL     1       5.912   2.646  18.720  0.00  0.00    +0.000 HD
ENDROOT
BRANCH   1  14
ATOM     14  C   UNL     1       6.766   5.863  18.225  0.00  0.00    +0.000 C 
BRANCH  14  16
ATOM     15  O   UNL     1       8.114   4.214  17.102  0.00  0.00    +0.000 OA
ATOM     16  C   UNL     1       7.439   5.238  17.002  0.00  0.00    +0.000 C 
ATOM     17  N   UNL     1       7.282   5.997  15.848  0.00  0.00    +0.000 N 
ATOM     18  H   UNL     1       6.850   6.915  15.910  0.00  0.00    +0.000 HD
BRANCH  17  19
ATOM     19  N   UNL     1       7.781   5.547  14.659  0.00  0.00    +0.000 NA
ATOM     20  C   UNL     1       6.992   4.900  13.858  0.00  0.00    +0.000 C 
ATOM     21  C   UNL     1       5.535   4.588  14.046  0.00  0.00    +0.000 C 
ATOM     22  C   UNL     1       5.421   3.299  13.245  0.00  0.00    +0.000 C 
ATOM     23  C   UNL     1       6.374   3.463  12.066  0.00  0.00    +0.000 C 
ATOM     24  C   UNL     1       7.516   4.353  12.552  0.00  0.00    +0.000 C 
ENDBRANCH  17  19
ENDBRANCH  14  16
ENDBRANCH   1  14
TORSDOF 3
ENDMDL
MODEL 2
REMARK VINA RESULT:      -7.7      1.646      2.447
REMARK  Name = 
REMARK  3 active torsions:
REMARK  status: ('A' for Active; 'I' for Inactive)
REMARK    1  A    between atoms: C_2  and  C_3
REMARK    2  A    between atoms: C_3  and  N_4
REMARK    3  A    between atoms: N_14  and  N_15
REMARK                            x       y       z     vdW  Elec       q    Type
REMARK                         _______ _______ _______ _____ _____    ______ ____
ROOT
ATOM      1  N   UNL     1       4.206   4.814  18.062  0.00  0.00    +0.000 N 
ATOM      2  C   UNL     1       5.076   4.004  18.768  0.00  0.00    +0.000 C 
ATOM      3  O   UNL     1       6.046   4.385  19.405  0.00  0.00    +0.000 OA
ATOM      4  N   UNL     1       4.716   2.684  18.573  0.00  0.00    +0.000 N 
ATOM      5  C   UNL     1       3.751   2.576  17.522  0.00  0.00    +0.000 C 
ATOM      6  N   UNL     1       2.591   1.869  17.942  0.00  0.00    +0.000 N 
ATOM      7  C   UNL     1       1.587   2.758  18.276  0.00  0.00    +0.000 C 
ATOM      8  O   UNL     1       0.553   2.467  18.851  0.00  0.00    +0.000 OA
ATOM      9  N   UNL     1       1.963   4.024  17.891  0.00  0.00    +0.000 N 
ATOM     10  C   UNL     1       3.270   4.031  17.304  0.00  0.00    +0.000 C 
ATOM     11  H   UNL     1       5.274   1.931  18.944  0.00  0.00    +0.000 HD
ATOM     12  H   UNL     1       2.563   0.922  18.288  0.00  0.00    +0.000 HD
ATOM     13  H   UNL     1       1.420   4.834  18.153  0.00  0.00    +0.000 HD
ENDROOT
BRANCH   1  14
ATOM     14  C   UNL     1       4.470   6.213  17.798  0.00  0.00    +0.000 C 
BRANCH  14  16
ATOM     15  O   UNL     1       4.970   7.183  15.653  0.00  0.00    +0.000 OA
ATOM     16  C   UNL     1       5.291   6.369  16.518  0.00  0.00    +0.000 C 
ATOM     17  N   UNL     1       6.328   5.448  16.422  0.00  0.00    +0.000 N 
ATOM     18  H   UNL     1       6.402   4.707  17.113  0.00  0.00    +0.000 HD
BRANCH  17  19
ATOM     19  N   UNL     1       7.186   5.491  15.361  0.00  0.00    +0.000 NA
ATOM     20  C   UNL     1       6.829   4.929  14.248  0.00  0.00    +0.000 C 
ATOM     21  C   UNL     1       5.534   4.235  13.936  0.00  0.00    +0.000 C 
ATOM     22  C   UNL     1       5.999   3.241  12.882  0.00  0.00    +0.000 C 
ATOM     23  C   UNL     1       7.088   3.959  12.092  0.00  0.00    +0.000 C 
ATOM     24  C   UNL     1       7.767   4.920  13.065  0.00  0.00    +0.000 C 
ENDBRANCH  17  19
ENDBRANCH  14  16
ENDBRANCH   1  14
TORSDOF 3
ENDMDL
MODEL 3
REMARK VINA RESULT:      -7.5      3.891      5.718
REMARK  Name = 
REMARK  3 active torsions:
REMARK  status: ('A' for Active; 'I' for Inactive)
REMARK    1  A    between atoms: C_2  and  C_3
REMARK    2  A    between atoms: C_3  and  N_4
REMARK    3  A    between atoms: N_14  and  N_15
REMARK                            x       y       z     vdW  Elec       q    Type
REMARK                         _______ _______ _______ _____ _____    ______ ____
ROOT
ATOM      1  N   UNL     1       6.171   5.802  16.812  0.00  0.00    +0.000 N 
ATOM      2  C   UNL     1       6.766   4.894  15.956  0.00  0.00    +0.000 C 
ATOM      3  O   UNL     1       7.737   5.112  15.248  0.00  0.00    +0.000 OA
ATOM      4  N   UNL     1       6.036   3.720  15.973  0.00  0.00    +0.000 N 
ATOM      5  C   UNL     1       4.790   3.912  16.647  0.00  0.00    +0.000 C 
ATOM      6  N   UNL     1       4.601   2.963  17.688  0.00  0.00    +0.000 N 
ATOM      7  C   UNL     1       4.929   3.523  18.908  0.00  0.00    +0.000 C 
ATOM      8  O   UNL     1       5.058   2.909  19.952  0.00  0.00    +0.000 OA
ATOM      9  N   UNL     1       5.123   4.874  18.742  0.00  0.00    +0.000 N 
ATOM     10  C   UNL     1       4.961   5.268  17.374  0.00  0.00    +0.000 C 
ATOM     11  H   UNL     1       6.265   2.955  15.356  0.00  0.00    +0.000 HD
ATOM     12  H   UNL     1       4.577   1.960  17.583  0.00  0.00    +0.000 HD
ATOM     13  H   UNL     1       5.487   5.448  19.490  0.00  0.00    +0.000 HD
ENDROOT
BRANCH   1  14
ATOM     14  C   UNL     1       6.489   7.215  16.807  0.00  0.00    +0.000 C 
BRANCH  14  16
ATOM     15  O   UNL     1       7.905   6.673  18.677  0.00  0.00    +0.000 OA
ATOM     16  C   UNL     1       7.541   7.529  17.871  0.00  0.00    +0.000 C 
ATOM     17  N   UNL     1       7.932   8.863  17.872  0.00  0.00    +0.000 N 
ATOM     18  H   UNL     1       7.444   9.526  17.276  0.00  0.00    +0.000 HD
BRANCH  17  19
ATOM     19  N   UNL     1       8.904   9.292  18.729  0.00  0.00    +0.000 NA
ATOM     20  C   UNL     1       9.256  10.539  18.697  0.00  0.00    +0.000 C 
ATOM     21  C   UNL     1       8.700  11.636  17.834  0.00  0.00    +0.000 C 
ATOM     22  C   UNL     1       9.916  12.544  17.721  0.00  0.00    +0.000 C 
ATOM     23  C   UNL     1      10.627  12.448  19.067  0.00  0.00    +0.000 C 
ATOM     24  C   UNL     1      10.356  11.044  19.601  0.00  0.00    +0.000 C 
ENDBRANCH  17  19
ENDBRANCH  14  16
ENDBRANCH   1  14
TORSDOF 3
ENDMDL
MODEL 4
REMARK VINA RESULT:      -7.4      3.601      5.572
REMARK  Name = 
REMARK  3 active torsions:
REMARK  status: ('A' for Active; 'I' for Inactive)
REMARK    1  A    between atoms: C_2  and  C_3
REMARK    2  A    between atoms: C_3  and  N_4
REMARK    3  A    between atoms: N_14  and  N_15
REMARK                            x       y       z     vdW  Elec       q    Type
REMARK                         _______ _______ _______ _____ _____    ______ ____
ROOT
ATOM      1  N   UNL     1       6.735   4.973  17.987  0.00  0.00    +0.000 N 
ATOM      2  C   UNL     1       6.907   4.371  16.754  0.00  0.00    +0.000 C 
ATOM      3  O   UNL     1       7.910   4.437  16.062  0.00  0.00    +0.000 OA
ATOM      4  N   UNL     1       5.728   3.745  16.396  0.00  0.00    +0.000 N 
ATOM      5  C   UNL     1       4.665   4.136  17.268  0.00  0.00    +0.000 C 
ATOM      6  N   UNL     1       4.011   3.010  17.841  0.00  0.00    +0.000 N 
ATOM      7  C   UNL     1       4.486   2.785  19.119  0.00  0.00    +0.000 C 
ATOM      8  O   UNL     1       4.267   1.789  19.785  0.00  0.00    +0.000 OA
ATOM      9  N   UNL     1       5.276   3.845  19.497  0.00  0.00    +0.000 N 
ATOM     10  C   UNL     1       5.385   4.822  18.454  0.00  0.00    +0.000 C 
ATOM     11  H   UNL     1       5.623   3.309  15.491  0.00  0.00    +0.000 HD
ATOM     12  H   UNL     1       3.546   2.271  17.337  0.00  0.00    +0.000 HD
ATOM     13  H   UNL     1       5.815   3.820  20.351  0.00  0.00    +0.000 HD
ENDROOT
BRANCH   1  14
ATOM     14  C   UNL     1       7.654   5.960  18.516  0.00  0.00    +0.000 C 
BRANCH  14  16
ATOM     15  O   UNL     1       6.706   7.406  16.841  0.00  0.00    +0.000 OA
ATOM     16  C   UNL     1       7.481   7.294  17.791  0.00  0.00    +0.000 C 
ATOM     17  N   UNL     1       8.345   8.280  18.253  0.00  0.00    +0.000 N 
ATOM     18  H   UNL     1       9.066   8.036  18.927  0.00  0.00    +0.000 HD
BRANCH  17  19
ATOM     19  N   UNL     1       8.279   9.545  17.741  0.00  0.00    +0.000 NA
ATOM     20  C   UNL     1       8.865  10.507  18.383  0.00  0.00    +0.000 C 
ATOM     21  C   UNL     1       9.670  10.420  19.648  0.00  0.00    +0.000 C 
ATOM     22  C   UNL     1       9.431  11.808  20.225  0.00  0.00    +0.000 C 
ATOM     23  C   UNL     1       9.355  12.745  19.024  0.00  0.00    +0.000 C 
ATOM     24  C   UNL     1       8.782  11.925  17.871  0.00  0.00    +0.000 C 
ENDBRANCH  17  19
ENDBRANCH  14  16
ENDBRANCH   1  14
TORSDOF 3
ENDMDL
MODEL 5
REMARK VINA RESULT:      -7.2      2.479      5.675
REMARK  Name = 
REMARK  3 active torsions:
REMARK  status: ('A' for Active; 'I' for Inactive)
REMARK    1  A    between atoms: C_2  and  C_3
REMARK    2  A    between atoms: C_3  and  N_4
REMARK    3  A    between atoms: N_14  and  N_15
REMARK                            x       y       z     vdW  Elec       q    Type
REMARK                         _______ _______ _______ _____ _____    ______ ____
ROOT
ATOM      1  N   UNL     1       5.793   5.371  16.842  0.00  0.00    +0.000 N 
ATOM      2  C   UNL     1       5.296   6.654  16.983  0.00  0.00    +0.000 C 
ATOM      3  O   UNL     1       4.196   7.036  16.614  0.00  0.00    +0.000 OA
ATOM      4  N   UNL     1       6.275   7.453  17.540  0.00  0.00    +0.000 N 
ATOM      5  C   UNL     1       7.535   6.777  17.544  0.00  0.00    +0.000 C 
ATOM      6  N   UNL     1       8.116   6.750  18.842  0.00  0.00    +0.000 N 
ATOM      7  C   UNL     1       7.873   5.531  19.445  0.00  0.00    +0.000 C 
ATOM      8  O   UNL     1       8.070   5.277  20.620  0.00  0.00    +0.000 OA
ATOM      9  N   UNL     1       7.338   4.669  18.517  0.00  0.00    +0.000 N 
ATOM     10  C   UNL     1       7.171   5.303  17.242  0.00  0.00    +0.000 C 
ATOM     11  H   UNL     1       6.135   8.446  17.655  0.00  0.00    +0.000 HD
ATOM     12  H   UNL     1       8.359   7.552  19.402  0.00  0.00    +0.000 HD
ATOM     13  H   UNL     1       6.979   3.764  18.786  0.00  0.00    +0.000 HD
ENDROOT
BRANCH   1  14
ATOM     14  C   UNL     1       5.152   4.363  16.024  0.00  0.00    +0.000 C 
BRANCH  14  16
ATOM     15  O   UNL     1       4.605   2.491  17.436  0.00  0.00    +0.000 OA
ATOM     16  C   UNL     1       4.207   3.509  16.871  0.00  0.00    +0.000 C 
ATOM     17  N   UNL     1       2.890   3.953  16.831  0.00  0.00    +0.000 N 
ATOM     18  H   UNL     1       2.637   4.705  16.195  0.00  0.00    +0.000 HD
BRANCH  17  19
ATOM     19  N   UNL     1       1.933   3.328  17.577  0.00  0.00    +0.000 NA
ATOM     20  C   UNL     1       1.789   3.671  18.819  0.00  0.00    +0.000 C 
ATOM     21  C   UNL     1       2.537   4.728  19.579  0.00  0.00    +0.000 C 
ATOM     22  C   UNL     1       2.467   4.159  20.989  0.00  0.00    +0.000 C 
ATOM     23  C   UNL     1       1.106   3.478  21.089  0.00  0.00    +0.000 C 
ATOM     24  C   UNL     1       0.768   2.976  19.687  0.00  0.00    +0.000 C 
ENDBRANCH  17  19
ENDBRANCH  14  16
ENDBRANCH   1  14
TORSDOF 3
ENDMDL
MODEL 6
REMARK VINA RESULT:      -7.2      1.950      3.334
REMARK  Name = 
REMARK  3 active torsions:
REMARK  status: ('A' for Active; 'I' for Inactive)
REMARK    1  A    between atoms: C_2  and  C_3
REMARK    2  A    between atoms: C_3  and  N_4
REMARK    3  A    between atoms: N_14  and  N_15
REMARK                            x       y       z     vdW  Elec       q    Type
REMARK                         _______ _______ _______ _____ _____    ______ ____
ROOT
ATOM      1  N   UNL     1       3.377   3.414  18.767  0.00  0.00    +0.000 N 
ATOM      2  C   UNL     1       3.819   2.929  19.985  0.00  0.00    +0.000 C 
ATOM      3  O   UNL     1       4.771   2.182  20.151  0.00  0.00    +0.000 OA
ATOM      4  N   UNL     1       2.962   3.367  20.977  0.00  0.00    +0.000 N 
ATOM      5  C   UNL     1       1.783   3.940  20.407  0.00  0.00    +0.000 C 
ATOM      6  N   UNL     1       1.542   5.252  20.900  0.00  0.00    +0.000 N 
ATOM      7  C   UNL     1       1.995   6.191  19.994  0.00  0.00    +0.000 C 
ATOM      8  O   UNL     1       2.107   7.384  20.215  0.00  0.00    +0.000 OA
ATOM      9  N   UNL     1       2.333   5.557  18.822  0.00  0.00    +0.000 N 
ATOM     10  C   UNL     1       2.146   4.139  18.915  0.00  0.00    +0.000 C 
ATOM     11  H   UNL     1       3.070   3.058  21.932  0.00  0.00    +0.000 HD
ATOM     12  H   UNL     1       1.398   5.507  21.865  0.00  0.00    +0.000 HD
ATOM     13  H   UNL     1       2.798   6.050  18.073  0.00  0.00    +0.000 HD
ENDROOT
BRANCH   1  14
ATOM     14  C   UNL     1       3.854   2.907  17.497  0.00  0.00    +0.000 C 
BRANCH  14  16
ATOM     15  O   UNL     1       4.394   5.143  16.785  0.00  0.00    +0.000 OA
ATOM     16  C   UNL     1       4.717   3.955  16.794  0.00  0.00    +0.000 C 
ATOM     17  N   UNL     1       5.797   3.404  16.115  0.00  0.00    +0.000 N 
ATOM     18  H   UNL     1       5.878   2.393  16.044  0.00  0.00    +0.000 HD
BRANCH  17  19
ATOM     19  N   UNL     1       6.694   4.214  15.479  0.00  0.00    +0.000 NA
ATOM     20  C   UNL     1       6.652   4.293  14.186  0.00  0.00    +0.000 C 
ATOM     21  C   UNL     1       5.696   3.616  13.247  0.00  0.00    +0.000 C 
ATOM     22  C   UNL     1       6.563   3.500  12.002  0.00  0.00    +0.000 C 
ATOM     23  C   UNL     1       7.427   4.756  11.985  0.00  0.00    +0.000 C 
ATOM     24  C   UNL     1       7.652   5.147  13.443  0.00  0.00    +0.000 C 
ENDBRANCH  17  19
ENDBRANCH  14  16
ENDBRANCH   1  14
TORSDOF 3
ENDMDL
MODEL 7
REMARK VINA RESULT:      -7.2      2.204      5.467
REMARK  Name = 
REMARK  3 active torsions:
REMARK  status: ('A' for Active; 'I' for Inactive)
REMARK    1  A    between atoms: C_2  and  C_3
REMARK    2  A    between atoms: C_3  and  N_4
REMARK    3  A    between atoms: N_14  and  N_15
REMARK                            x       y       z     vdW  Elec       q    Type
REMARK                         _______ _______ _______ _____ _____    ______ ____
ROOT
ATOM      1  N   UNL     1       6.753   4.991  16.531  0.00  0.00    +0.000 N 
ATOM      2  C   UNL     1       6.364   6.287  16.251  0.00  0.00    +0.000 C 
ATOM      3  O   UNL     1       6.747   7.289  16.836  0.00  0.00    +0.000 OA
ATOM      4  N   UNL     1       5.410   6.262  15.251  0.00  0.00    +0.000 N 
ATOM      5  C   UNL     1       4.956   4.925  15.023  0.00  0.00    +0.000 C 
ATOM      6  N   UNL     1       5.069   4.555  13.655  0.00  0.00    +0.000 N 
ATOM      7  C   UNL     1       6.215   3.809  13.457  0.00  0.00    +0.000 C 
ATOM      8  O   UNL     1       6.685   3.516  12.373  0.00  0.00    +0.000 OA
ATOM      9  N   UNL     1       6.757   3.487  14.680  0.00  0.00    +0.000 N 
ATOM     10  C   UNL     1       5.995   4.045  15.758  0.00  0.00    +0.000 C 
ATOM     11  H   UNL     1       4.943   7.105  14.954  0.00  0.00    +0.000 HD
ATOM     12  H   UNL     1       4.624   5.014  12.875  0.00  0.00    +0.000 HD
ATOM     13  H   UNL     1       7.663   3.047  14.753  0.00  0.00    +0.000 HD
ENDROOT
BRANCH   1  14
ATOM     14  C   UNL     1       7.500   4.630  17.718  0.00  0.00    +0.000 C 
BRANCH  14  16
ATOM     15  O   UNL     1       6.735   5.332  19.890  0.00  0.00    +0.000 OA
ATOM     16  C   UNL     1       6.575   4.574  18.934  0.00  0.00    +0.000 C 
ATOM     17  N   UNL     1       5.649   3.539  18.866  0.00  0.00    +0.000 N 
ATOM     18  H   UNL     1       5.712   2.863  18.110  0.00  0.00    +0.000 HD
BRANCH  17  19
ATOM     19  N   UNL     1       4.716   3.387  19.851  0.00  0.00    +0.000 NA
ATOM     20  C   UNL     1       3.476   3.221  19.514  0.00  0.00    +0.000 C 
ATOM     21  C   UNL     1       2.896   3.137  18.131  0.00  0.00    +0.000 C 
ATOM     22  C   UNL     1       1.494   3.673  18.385  0.00  0.00    +0.000 C 
ATOM     23  C   UNL     1       1.112   3.181  19.777  0.00  0.00    +0.000 C 
ATOM     24  C   UNL     1       2.410   3.089  20.575  0.00  0.00    +0.000 C 
ENDBRANCH  17  19
ENDBRANCH  14  16
ENDBRANCH   1  14
TORSDOF 3
ENDMDL
MODEL 8
REMARK VINA RESULT:      -7.2      2.010      5.900
REMARK  Name = 
REMARK  3 active torsions:
REMARK  status: ('A' for Active; 'I' for Inactive)
REMARK    1  A    between atoms: C_2  and  C_3
REMARK    2  A    between atoms: C_3  and  N_4
REMARK    3  A    between atoms: N_14  and  N_15
REMARK                            x       y       z     vdW  Elec       q    Type
REMARK                         _______ _______ _______ _____ _____    ______ ____
ROOT
ATOM      1  N   UNL     1       6.239   5.653  16.733  0.00  0.00    +0.000 N 
ATOM      2  C   UNL     1       4.911   5.629  16.351  0.00  0.00    +0.000 C 
ATOM      3  O   UNL     1       3.997   6.214  16.913  0.00  0.00    +0.000 OA
ATOM      4  N   UNL     1       4.770   4.774  15.275  0.00  0.00    +0.000 N 
ATOM      5  C   UNL     1       5.963   4.010  15.080  0.00  0.00    +0.000 C 
ATOM      6  N   UNL     1       6.450   4.122  13.748  0.00  0.00    +0.000 N 
ATOM      7  C   UNL     1       7.471   5.050  13.691  0.00  0.00    +0.000 C 
ATOM      8  O   UNL     1       7.952   5.505  12.669  0.00  0.00    +0.000 OA
ATOM      9  N   UNL     1       7.828   5.404  14.972  0.00  0.00    +0.000 N 
ATOM     10  C   UNL     1       7.019   4.736  15.949  0.00  0.00    +0.000 C 
ATOM     11  H   UNL     1       3.860   4.560  14.894  0.00  0.00    +0.000 HD
ATOM     12  H   UNL     1       5.952   3.865  12.909  0.00  0.00    +0.000 HD
ATOM     13  H   UNL     1       8.475   6.159  15.147  0.00  0.00    +0.000 HD
ENDROOT
BRANCH   1  14
ATOM     14  C   UNL     1       6.687   6.197  17.998  0.00  0.00    +0.000 C 
BRANCH  14  16
ATOM     15  O   UNL     1       7.118   5.100  20.097  0.00  0.00    +0.000 OA
ATOM     16  C   UNL     1       6.356   5.236  19.140  0.00  0.00    +0.000 C 
ATOM     17  N   UNL     1       5.199   4.500  18.913  0.00  0.00    +0.000 N 
ATOM     18  H   UNL     1       4.735   4.566  18.011  0.00  0.00    +0.000 HD
BRANCH  17  19
ATOM     19  N   UNL     1       4.739   3.635  19.863  0.00  0.00    +0.000 NA
ATOM     20  C   UNL     1       3.460   3.533  20.046  0.00  0.00    +0.000 C 
ATOM     21  C   UNL     1       2.360   4.238  19.305  0.00  0.00    +0.000 C 
ATOM     22  C   UNL     1       1.286   4.287  20.383  0.00  0.00    +0.000 C 
ATOM     23  C   UNL     1       1.434   2.989  21.169  0.00  0.00    +0.000 C 
ATOM     24  C   UNL     1       2.914   2.615  21.114  0.00  0.00    +0.000 C 
ENDBRANCH  17  19
ENDBRANCH  14  16
ENDBRANCH   1  14
TORSDOF 3
ENDMDL
MODEL 9
REMARK VINA RESULT:      -7.1      2.576      6.087
REMARK  Name = 
REMARK  3 active torsions:
REMARK  status: ('A' for Active; 'I' for Inactive)
REMARK    1  A    between atoms: C_2  and  C_3
REMARK    2  A    between atoms: C_3  and  N_4
REMARK    3  A    between atoms: N_14  and  N_15
REMARK                            x       y       z     vdW  Elec       q    Type
REMARK                         _______ _______ _______ _____ _____    ______ ____
ROOT
ATOM      1  N   UNL     1       5.207   4.221  18.059  0.00  0.00    +0.000 N 
ATOM      2  C   UNL     1       4.593   4.102  16.826  0.00  0.00    +0.000 C 
ATOM      3  O   UNL     1       3.462   3.686  16.629  0.00  0.00    +0.000 OA
ATOM      4  N   UNL     1       5.496   4.458  15.842  0.00  0.00    +0.000 N 
ATOM      5  C   UNL     1       6.814   4.575  16.386  0.00  0.00    +0.000 C 
ATOM      6  N   UNL     1       7.397   5.837  16.088  0.00  0.00    +0.000 N 
ATOM      7  C   UNL     1       7.271   6.687  17.170  0.00  0.00    +0.000 C 
ATOM      8  O   UNL     1       7.494   7.884  17.154  0.00  0.00    +0.000 OA
ATOM      9  N   UNL     1       6.816   5.970  18.252  0.00  0.00    +0.000 N 
ATOM     10  C   UNL     1       6.587   4.596  17.917  0.00  0.00    +0.000 C 
ATOM     11  H   UNL     1       5.264   4.367  14.864  0.00  0.00    +0.000 HD
ATOM     12  H   UNL     1       7.566   6.213  15.167  0.00  0.00    +0.000 HD
ATOM     13  H   UNL     1       6.543   6.430  19.109  0.00  0.00    +0.000 HD
ENDROOT
BRANCH   1  14
ATOM     14  C   UNL     1       4.661   3.645  19.270  0.00  0.00    +0.000 C 
BRANCH  14  16
ATOM     15  O   UNL     1       2.369   3.899  19.960  0.00  0.00    +0.000 OA
ATOM     16  C   UNL     1       3.449   4.448  19.743  0.00  0.00    +0.000 C 
ATOM     17  N   UNL     1       3.688   5.816  19.791  0.00  0.00    +0.000 N 
ATOM     18  H   UNL     1       4.564   6.182  19.427  0.00  0.00    +0.000 HD
BRANCH  17  19
ATOM     19  N   UNL     1       2.720   6.666  20.244  0.00  0.00    +0.000 NA
ATOM     20  C   UNL     1       2.218   7.533  19.421  0.00  0.00    +0.000 C 
ATOM     21  C   UNL     1       2.540   7.723  17.967  0.00  0.00    +0.000 C 
ATOM     22  C   UNL     1       2.245   9.208  17.808  0.00  0.00    +0.000 C 
ATOM     23  C   UNL     1       1.060   9.491  18.725  0.00  0.00    +0.000 C 
ATOM     24  C   UNL     1       1.174   8.516  19.895  0.00  0.00    +0.000 C 
ENDBRANCH  17  19
ENDBRANCH  14  16
ENDBRANCH   1  14
TORSDOF 3
ENDMDL
