MODEL 1
REMARK VINA RESULT:      -8.1      0.000      0.000
REMARK  Name = 
REMARK  9 active torsions:
REMARK  status: ('A' for Active; 'I' for Inactive)
REMARK    1  A    between atoms: C_1  and  C_2
REMARK    2  A    between atoms: C_2  and  C_3
REMARK    3  A    between atoms: C_3  and  N_4
REMARK    4  A    between atoms: C_6  and  C_7
REMARK    5  A    between atoms: C_9  and  C_10
REMARK    6  A    between atoms: C_13  and  O_14
REMARK    7  A    between atoms: O_14  and  C_15
REMARK    8  A    between atoms: C_21  and  C_22
REMARK    9  A    between atoms: C_24  and  C_25
REMARK                            x       y       z     vdW  Elec       q    Type
REMARK                         _______ _______ _______ _____ _____    ______ ____
ROOT
ATOM      1  C   UNL     1       4.190   5.530  18.501  0.00  0.00    +0.000 A 
ATOM      2  C   UNL     1       3.519   6.755  18.425  0.00  0.00    +0.000 A 
ATOM      3  C   UNL     1       2.493   7.053  19.313  0.00  0.00    +0.000 A 
ATOM      4  N   UNL     1       2.123   6.176  20.277  0.00  0.00    +0.000 NA
ATOM      5  C   UNL     1       2.727   4.965  20.323  0.00  0.00    +0.000 A 
ATOM      6  N   UNL     1       2.174   4.056  21.219  0.00  0.00    +0.000 N 
ATOM      7  C   UNL     1       3.753   4.597  19.446  0.00  0.00    +0.000 A 
ATOM      8  H   UNL     1       1.554   4.532  21.869  0.00  0.00    +0.000 HD
ATOM      9  H   UNL     1       2.811   3.402  21.657  0.00  0.00    +0.000 HD
ENDROOT
BRANCH   1  12
ATOM     10  N   UNL     1       6.517   4.839  15.830  0.00  0.00    +0.000 N 
ATOM     11  C   UNL     1       5.239   4.999  16.277  0.00  0.00    +0.000 A 
ATOM     12  C   UNL     1       5.328   5.322  17.614  0.00  0.00    +0.000 A 
ATOM     13  C   UNL     1       6.733   5.382  17.867  0.00  0.00    +0.000 A 
ATOM     14  C   UNL     1       7.450   5.677  19.138  0.00  0.00    +0.000 C 
ATOM     15  N   UNL     1       7.444   5.112  16.764  0.00  0.00    +0.000 NA
BRANCH  10  16
ATOM     16  C   UNL     1       6.909   4.457  14.485  0.00  0.00    +0.000 C 
BRANCH  16  18
ATOM     17  C   UNL     1       6.222   3.409  12.305  0.00  0.00    +0.000 C 
ATOM     18  C   UNL     1       5.749   3.902  13.664  0.00  0.00    +0.000 C 
ENDBRANCH  16  18
ENDBRANCH  10  16
ENDBRANCH   1  12
BRANCH   3  19
ATOM     19  C   UNL     1       1.734   8.313  19.218  0.00  0.00    +0.000 A 
ATOM     20  C   UNL     1       1.586   9.025  18.017  0.00  0.00    +0.000 A 
ATOM     21  C   UNL     1       0.858  10.217  17.983  0.00  0.00    +0.000 A 
ATOM     22  C   UNL     1       0.274  10.671  19.157  0.00  0.00    +0.000 A 
ATOM     23  N   UNL     1       0.373  10.019  20.331  0.00  0.00    +0.000 NA
ATOM     24  C   UNL     1       1.092   8.876  20.325  0.00  0.00    +0.000 A 
BRANCH  22  25
ATOM     25  O   UNL     1      -0.438  11.849  19.105  0.00  0.00    +0.000 OA
ATOM     26  C   UNL     1      -1.533  11.788  18.195  0.00  0.00    +0.000 C 
ENDBRANCH  22  25
ENDBRANCH   3  19
BRANCH   7  27
ATOM     27  C   UNL     1       4.337   3.299  19.580  0.00  0.00    +0.000 C 
ATOM     28  N   UNL     1       4.790   2.235  19.712  0.00  0.00    +0.000 NA
ENDBRANCH   7  27
TORSDOF 6
ENDMDL
MODEL 2
REMARK VINA RESULT:      -8.0      1.182      1.237
REMARK  Name = 
REMARK  9 active torsions:
REMARK  status: ('A' for Active; 'I' for Inactive)
REMARK    1  A    between atoms: C_1  and  C_2
REMARK    2  A    between atoms: C_2  and  C_3
REMARK    3  A    between atoms: C_3  and  N_4
REMARK    4  A    between atoms: C_6  and  C_7
REMARK    5  A    between atoms: C_9  and  C_10
REMARK    6  A    between atoms: C_13  and  O_14
REMARK    7  A    between atoms: O_14  and  C_15
REMARK    8  A    between atoms: C_21  and  C_22
REMARK    9  A    between atoms: C_24  and  C_25
REMARK                            x       y       z     vdW  Elec       q    Type
REMARK                         _______ _______ _______ _____ _____    ______ ____
ROOT
ATOM      1  C   UNL     1       4.029   4.999  17.586  0.00  0.00    +0.000 A 
ATOM      2  C   UNL     1       3.595   6.313  17.790  0.00  0.00    +0.000 A 
ATOM      3  C   UNL     1       2.603   6.591  18.722  0.00  0.00    +0.000 A 
ATOM      4  N   UNL     1       2.039   5.606  19.461  0.00  0.00    +0.000 NA
ATOM      5  C   UNL     1       2.410   4.324  19.230  0.00  0.00    +0.000 A 
ATOM      6  N   UNL     1       1.662   3.359  19.895  0.00  0.00    +0.000 N 
ATOM      7  C   UNL     1       3.389   3.976  18.293  0.00  0.00    +0.000 A 
ATOM      8  H   UNL     1       1.112   3.784  20.636  0.00  0.00    +0.000 HD
ATOM      9  H   UNL     1       2.150   2.515  20.172  0.00  0.00    +0.000 HD
ENDROOT
BRANCH   1  12
ATOM     10  N   UNL     1       6.294   4.331  14.856  0.00  0.00    +0.000 N 
ATOM     11  C   UNL     1       5.029   4.517  15.328  0.00  0.00    +0.000 A 
ATOM     12  C   UNL     1       5.147   4.785  16.674  0.00  0.00    +0.000 A 
ATOM     13  C   UNL     1       6.556   4.786  16.909  0.00  0.00    +0.000 A 
ATOM     14  C   UNL     1       7.299   5.008  18.180  0.00  0.00    +0.000 C 
ATOM     15  N   UNL     1       7.243   4.535  15.787  0.00  0.00    +0.000 NA
BRANCH  10  16
ATOM     16  C   UNL     1       6.655   3.987  13.492  0.00  0.00    +0.000 C 
BRANCH  16  18
ATOM     17  C   UNL     1       5.887   2.421  11.681  0.00  0.00    +0.000 C 
ATOM     18  C   UNL     1       5.466   3.497  12.670  0.00  0.00    +0.000 C 
ENDBRANCH  16  18
ENDBRANCH  10  16
ENDBRANCH   1  12
BRANCH   3  19
ATOM     19  C   UNL     1       2.092   7.959  18.916  0.00  0.00    +0.000 A 
ATOM     20  C   UNL     1       2.159   8.947  17.920  0.00  0.00    +0.000 A 
ATOM     21  C   UNL     1       1.661  10.231  18.158  0.00  0.00    +0.000 A 
ATOM     22  C   UNL     1       1.086  10.501  19.392  0.00  0.00    +0.000 A 
ATOM     23  N   UNL     1       0.983   9.586  20.374  0.00  0.00    +0.000 NA
ATOM     24  C   UNL     1       1.484   8.361  20.109  0.00  0.00    +0.000 A 
BRANCH  22  25
ATOM     25  O   UNL     1       0.602  11.773  19.609  0.00  0.00    +0.000 OA
ATOM     26  C   UNL     1      -0.404  11.811  20.618  0.00  0.00    +0.000 C 
ENDBRANCH  22  25
ENDBRANCH   3  19
BRANCH   7  27
ATOM     27  C   UNL     1       3.719   2.596  18.127  0.00  0.00    +0.000 C 
ATOM     28  N   UNL     1       3.962   1.463  18.009  0.00  0.00    +0.000 NA
ENDBRANCH   7  27
TORSDOF 6
ENDMDL
MODEL 3
REMARK VINA RESULT:      -7.9      0.775      1.100
REMARK  Name = 
REMARK  9 active torsions:
REMARK  status: ('A' for Active; 'I' for Inactive)
REMARK    1  A    between atoms: C_1  and  C_2
REMARK    2  A    between atoms: C_2  and  C_3
REMARK    3  A    between atoms: C_3  and  N_4
REMARK    4  A    between atoms: C_6  and  C_7
REMARK    5  A    between atoms: C_9  and  C_10
REMARK    6  A    between atoms: C_13  and  O_14
REMARK    7  A    between atoms: O_14  and  C_15
REMARK    8  A    between atoms: C_21  and  C_22
REMARK    9  A    between atoms: C_24  and  C_25
REMARK                            x       y       z     vdW  Elec       q    Type
REMARK                         _______ _______ _______ _____ _____    ______ ____
ROOT
ATOM      1  C   UNL     1       4.144   5.300  18.585  0.00  0.00    +0.000 A 
ATOM      2  C   UNL     1       3.505   6.541  18.511  0.00  0.00    +0.000 A 
ATOM      3  C   UNL     1       2.520   6.883  19.430  0.00  0.00    +0.000 A 
ATOM      4  N   UNL     1       2.161   6.033  20.421  0.00  0.00    +0.000 NA
ATOM      5  C   UNL     1       2.732   4.806  20.466  0.00  0.00    +0.000 A 
ATOM      6  N   UNL     1       2.185   3.928  21.396  0.00  0.00    +0.000 N 
ATOM      7  C   UNL     1       3.715   4.394  19.560  0.00  0.00    +0.000 A 
ATOM      8  H   UNL     1       1.603   4.432  22.060  0.00  0.00    +0.000 HD
ATOM      9  H   UNL     1       2.819   3.262  21.823  0.00  0.00    +0.000 HD
ENDROOT
BRANCH   1  12
ATOM     10  N   UNL     1       6.357   4.452  15.861  0.00  0.00    +0.000 N 
ATOM     11  C   UNL     1       5.098   4.625  16.356  0.00  0.00    +0.000 A 
ATOM     12  C   UNL     1       5.243   5.044  17.661  0.00  0.00    +0.000 A 
ATOM     13  C   UNL     1       6.657   5.142  17.842  0.00  0.00    +0.000 A 
ATOM     14  C   UNL     1       7.426   5.538  19.053  0.00  0.00    +0.000 C 
ATOM     15  N   UNL     1       7.321   4.804  16.729  0.00  0.00    +0.000 NA
BRANCH  10  16
ATOM     16  C   UNL     1       6.693   3.980  14.530  0.00  0.00    +0.000 C 
BRANCH  16  18
ATOM     17  C   UNL     1       5.826   3.277  12.277  0.00  0.00    +0.000 C 
ATOM     18  C   UNL     1       5.501   3.995  13.576  0.00  0.00    +0.000 C 
ENDBRANCH  16  18
ENDBRANCH  10  16
ENDBRANCH   1  12
BRANCH   3  19
ATOM     19  C   UNL     1       1.794   8.162  19.340  0.00  0.00    +0.000 A 
ATOM     20  C   UNL     1       1.148   8.752  20.439  0.00  0.00    +0.000 A 
ATOM     21  C   UNL     1       0.472   9.966  20.297  0.00  0.00    +0.000 A 
ATOM     22  C   UNL     1       0.467  10.581  19.054  0.00  0.00    +0.000 A 
ATOM     23  N   UNL     1       1.083  10.067  17.973  0.00  0.00    +0.000 NA
ATOM     24  C   UNL     1       1.718   8.888  18.148  0.00  0.00    +0.000 A 
BRANCH  22  25
ATOM     25  O   UNL     1      -0.207  11.777  18.933  0.00  0.00    +0.000 OA
ATOM     26  C   UNL     1       0.661  12.905  19.007  0.00  0.00    +0.000 C 
ENDBRANCH  22  25
ENDBRANCH   3  19
BRANCH   7  27
ATOM     27  C   UNL     1       4.266   3.083  19.696  0.00  0.00    +0.000 C 
ATOM     28  N   UNL     1       4.737   2.026  19.827  0.00  0.00    +0.000 NA
ENDBRANCH   7  27
TORSDOF 6
ENDMDL
MODEL 4
REMARK VINA RESULT:      -7.8      1.297      1.538
REMARK  Name = 
REMARK  9 active torsions:
REMARK  status: ('A' for Active; 'I' for Inactive)
REMARK    1  A    between atoms: C_1  and  C_2
REMARK    2  A    between atoms: C_2  and  C_3
REMARK    3  A    between atoms: C_3  and  N_4
REMARK    4  A    between atoms: C_6  and  C_7
REMARK    5  A    between atoms: C_9  and  C_10
REMARK    6  A    between atoms: C_13  and  O_14
REMARK    7  A    between atoms: O_14  and  C_15
REMARK    8  A    between atoms: C_21  and  C_22
REMARK    9  A    between atoms: C_24  and  C_25
REMARK                            x       y       z     vdW  Elec       q    Type
REMARK                         _______ _______ _______ _____ _____    ______ ____
ROOT
ATOM      1  C   UNL     1       4.008   4.989  17.670  0.00  0.00    +0.000 A 
ATOM      2  C   UNL     1       3.562   6.299  17.871  0.00  0.00    +0.000 A 
ATOM      3  C   UNL     1       2.566   6.570  18.802  0.00  0.00    +0.000 A 
ATOM      4  N   UNL     1       2.009   5.581  19.540  0.00  0.00    +0.000 NA
ATOM      5  C   UNL     1       2.392   4.302  19.312  0.00  0.00    +0.000 A 
ATOM      6  N   UNL     1       1.652   3.331  19.977  0.00  0.00    +0.000 N 
ATOM      7  C   UNL     1       3.375   3.962  18.377  0.00  0.00    +0.000 A 
ATOM      8  H   UNL     1       1.097   3.753  20.717  0.00  0.00    +0.000 HD
ATOM      9  H   UNL     1       2.147   2.492  20.257  0.00  0.00    +0.000 HD
ENDROOT
BRANCH   1  12
ATOM     10  N   UNL     1       6.283   4.340  14.944  0.00  0.00    +0.000 N 
ATOM     11  C   UNL     1       5.016   4.518  15.413  0.00  0.00    +0.000 A 
ATOM     12  C   UNL     1       5.129   4.784  16.760  0.00  0.00    +0.000 A 
ATOM     13  C   UNL     1       6.537   4.792  16.998  0.00  0.00    +0.000 A 
ATOM     14  C   UNL     1       7.277   5.015  18.271  0.00  0.00    +0.000 C 
ATOM     15  N   UNL     1       7.229   4.547  15.877  0.00  0.00    +0.000 NA
BRANCH  10  16
ATOM     16  C   UNL     1       6.649   4.002  13.580  0.00  0.00    +0.000 C 
BRANCH  16  18
ATOM     17  C   UNL     1       5.804   2.504  11.747  0.00  0.00    +0.000 C 
ATOM     18  C   UNL     1       5.448   3.614  12.722  0.00  0.00    +0.000 C 
ENDBRANCH  16  18
ENDBRANCH  10  16
ENDBRANCH   1  12
BRANCH   3  19
ATOM     19  C   UNL     1       2.043   7.934  18.993  0.00  0.00    +0.000 A 
ATOM     20  C   UNL     1       1.471   8.370  20.200  0.00  0.00    +0.000 A 
ATOM     21  C   UNL     1       0.987   9.674  20.327  0.00  0.00    +0.000 A 
ATOM     22  C   UNL     1       1.098  10.531  19.241  0.00  0.00    +0.000 A 
ATOM     23  N   UNL     1       1.651  10.168  18.068  0.00  0.00    +0.000 NA
ATOM     24  C   UNL     1       2.098   8.897  17.981  0.00  0.00    +0.000 A 
BRANCH  22  25
ATOM     25  O   UNL     1       0.614  11.813  19.383  0.00  0.00    +0.000 OA
ATOM     26  C   UNL     1       1.396  12.776  18.683  0.00  0.00    +0.000 C 
ENDBRANCH  22  25
ENDBRANCH   3  19
BRANCH   7  27
ATOM     27  C   UNL     1       3.719   2.584  18.214  0.00  0.00    +0.000 C 
ATOM     28  N   UNL     1       3.990   1.456  18.113  0.00  0.00    +0.000 NA
ENDBRANCH   7  27
TORSDOF 6
ENDMDL
MODEL 5
REMARK VINA RESULT:      -7.7      1.197      1.507
REMARK  Name = 
REMARK  9 active torsions:
REMARK  status: ('A' for Active; 'I' for Inactive)
REMARK    1  A    between atoms: C_1  and  C_2
REMARK    2  A    between atoms: C_2  and  C_3
REMARK    3  A    between atoms: C_3  and  N_4
REMARK    4  A    between atoms: C_6  and  C_7
REMARK    5  A    between atoms: C_9  and  C_10
REMARK    6  A    between atoms: C_13  and  O_14
REMARK    7  A    between atoms: O_14  and  C_15
REMARK    8  A    between atoms: C_21  and  C_22
REMARK    9  A    between atoms: C_24  and  C_25
REMARK                            x       y       z     vdW  Elec       q    Type
REMARK                         _______ _______ _______ _____ _____    ______ ____
ROOT
ATOM      1  C   UNL     1       3.857   5.172  18.429  0.00  0.00    +0.000 A 
ATOM      2  C   UNL     1       3.388   6.436  18.799  0.00  0.00    +0.000 A 
ATOM      3  C   UNL     1       2.321   6.562  19.680  0.00  0.00    +0.000 A 
ATOM      4  N   UNL     1       1.715   5.472  20.208  0.00  0.00    +0.000 NA
ATOM      5  C   UNL     1       2.124   4.243  19.812  0.00  0.00    +0.000 A 
ATOM      6  N   UNL     1       1.341   3.183  20.257  0.00  0.00    +0.000 N 
ATOM      7  C   UNL     1       3.180   4.049  18.915  0.00  0.00    +0.000 A 
ATOM      8  H   UNL     1       0.727   3.486  21.008  0.00  0.00    +0.000 HD
ATOM      9  H   UNL     1       1.819   2.308  20.439  0.00  0.00    +0.000 HD
ENDROOT
BRANCH   1  12
ATOM     10  N   UNL     1       6.352   4.824  15.843  0.00  0.00    +0.000 N 
ATOM     11  C   UNL     1       5.046   4.855  16.235  0.00  0.00    +0.000 A 
ATOM     12  C   UNL     1       5.047   5.106  17.589  0.00  0.00    +0.000 A 
ATOM     13  C   UNL     1       6.429   5.264  17.915  0.00  0.00    +0.000 A 
ATOM     14  C   UNL     1       7.061   5.542  19.234  0.00  0.00    +0.000 C 
ATOM     15  N   UNL     1       7.210   5.116  16.836  0.00  0.00    +0.000 NA
BRANCH  10  16
ATOM     16  C   UNL     1       6.834   4.553  14.501  0.00  0.00    +0.000 C 
BRANCH  16  18
ATOM     17  C   UNL     1       6.379   3.490  12.268  0.00  0.00    +0.000 C 
ATOM     18  C   UNL     1       5.809   3.822  13.638  0.00  0.00    +0.000 C 
ENDBRANCH  16  18
ENDBRANCH  10  16
ENDBRANCH   1  12
BRANCH   3  19
ATOM     19  C   UNL     1       1.774   7.882  20.042  0.00  0.00    +0.000 A 
ATOM     20  C   UNL     1       1.423   8.228  21.357  0.00  0.00    +0.000 A 
ATOM     21  C   UNL     1       0.906   9.493  21.645  0.00  0.00    +0.000 A 
ATOM     22  C   UNL     1       0.762  10.402  20.607  0.00  0.00    +0.000 A 
ATOM     23  N   UNL     1       1.097  10.126  19.332  0.00  0.00    +0.000 NA
ATOM     24  C   UNL     1       1.584   8.890  19.093  0.00  0.00    +0.000 A 
BRANCH  22  25
ATOM     25  O   UNL     1       0.248  11.645  20.909  0.00  0.00    +0.000 OA
ATOM     26  C   UNL     1      -1.068  11.576  21.451  0.00  0.00    +0.000 C 
ENDBRANCH  22  25
ENDBRANCH   3  19
BRANCH   7  27
ATOM     27  C   UNL     1       3.545   2.712  18.565  0.00  0.00    +0.000 C 
ATOM     28  N   UNL     1       3.815   1.621  18.262  0.00  0.00    +0.000 NA
ENDBRANCH   7  27
TORSDOF 6
ENDMDL
MODEL 6
REMARK VINA RESULT:      -7.7      1.175      1.243
REMARK  Name = 
REMARK  9 active torsions:
REMARK  status: ('A' for Active; 'I' for Inactive)
REMARK    1  A    between atoms: C_1  and  C_2
REMARK    2  A    between atoms: C_2  and  C_3
REMARK    3  A    between atoms: C_3  and  N_4
REMARK    4  A    between atoms: C_6  and  C_7
REMARK    5  A    between atoms: C_9  and  C_10
REMARK    6  A    between atoms: C_13  and  O_14
REMARK    7  A    between atoms: O_14  and  C_15
REMARK    8  A    between atoms: C_21  and  C_22
REMARK    9  A    between atoms: C_24  and  C_25
REMARK                            x       y       z     vdW  Elec       q    Type
REMARK                         _______ _______ _______ _____ _____    ______ ____
ROOT
ATOM      1  C   UNL     1       3.863   5.140  18.394  0.00  0.00    +0.000 A 
ATOM      2  C   UNL     1       3.401   6.412  18.746  0.00  0.00    +0.000 A 
ATOM      3  C   UNL     1       2.328   6.558  19.617  0.00  0.00    +0.000 A 
ATOM      4  N   UNL     1       1.711   5.478  20.154  0.00  0.00    +0.000 NA
ATOM      5  C   UNL     1       2.113   4.242  19.775  0.00  0.00    +0.000 A 
ATOM      6  N   UNL     1       1.318   3.193  20.226  0.00  0.00    +0.000 N 
ATOM      7  C   UNL     1       3.173   4.028  18.888  0.00  0.00    +0.000 A 
ATOM      8  H   UNL     1       0.701   3.510  20.969  0.00  0.00    +0.000 HD
ATOM      9  H   UNL     1       1.788   2.316  20.422  0.00  0.00    +0.000 HD
ENDROOT
BRANCH   1  12
ATOM     10  N   UNL     1       6.375   4.730  15.834  0.00  0.00    +0.000 N 
ATOM     11  C   UNL     1       5.066   4.768  16.216  0.00  0.00    +0.000 A 
ATOM     12  C   UNL     1       5.059   5.055  17.564  0.00  0.00    +0.000 A 
ATOM     13  C   UNL     1       6.438   5.225  17.893  0.00  0.00    +0.000 A 
ATOM     14  C   UNL     1       7.061   5.541  19.208  0.00  0.00    +0.000 C 
ATOM     15  N   UNL     1       7.226   5.051  16.824  0.00  0.00    +0.000 NA
BRANCH  10  16
ATOM     16  C   UNL     1       6.867   4.424  14.502  0.00  0.00    +0.000 C 
BRANCH  16  18
ATOM     17  C   UNL     1       6.366   3.458  12.236  0.00  0.00    +0.000 C 
ATOM     18  C   UNL     1       5.798   3.813  13.600  0.00  0.00    +0.000 C 
ENDBRANCH  16  18
ENDBRANCH  10  16
ENDBRANCH   1  12
BRANCH   3  19
ATOM     19  C   UNL     1       1.790   7.885  19.959  0.00  0.00    +0.000 A 
ATOM     20  C   UNL     1       1.588   8.896  19.005  0.00  0.00    +0.000 A 
ATOM     21  C   UNL     1       1.075  10.139  19.384  0.00  0.00    +0.000 A 
ATOM     22  C   UNL     1       0.758  10.346  20.719  0.00  0.00    +0.000 A 
ATOM     23  N   UNL     1       0.918   9.406  21.670  0.00  0.00    +0.000 NA
ATOM     24  C   UNL     1       1.423   8.222  21.266  0.00  0.00    +0.000 A 
BRANCH  22  25
ATOM     25  O   UNL     1       0.256  11.579  21.075  0.00  0.00    +0.000 OA
ATOM     26  C   UNL     1       1.046  12.656  20.579  0.00  0.00    +0.000 C 
ENDBRANCH  22  25
ENDBRANCH   3  19
BRANCH   7  27
ATOM     27  C   UNL     1       3.530   2.685  18.556  0.00  0.00    +0.000 C 
ATOM     28  N   UNL     1       3.813   1.581  18.316  0.00  0.00    +0.000 NA
ENDBRANCH   7  27
TORSDOF 6
ENDMDL
MODEL 7
REMARK VINA RESULT:      -6.8      3.027      8.051
REMARK  Name = 
REMARK  9 active torsions:
REMARK  status: ('A' for Active; 'I' for Inactive)
REMARK    1  A    between atoms: C_1  and  C_2
REMARK    2  A    between atoms: C_2  and  C_3
REMARK    3  A    between atoms: C_3  and  N_4
REMARK    4  A    between atoms: C_6  and  C_7
REMARK    5  A    between atoms: C_9  and  C_10
REMARK    6  A    between atoms: C_13  and  O_14
REMARK    7  A    between atoms: O_14  and  C_15
REMARK    8  A    between atoms: C_21  and  C_22
REMARK    9  A    between atoms: C_24  and  C_25
REMARK                            x       y       z     vdW  Elec       q    Type
REMARK                         _______ _______ _______ _____ _____    ______ ____
ROOT
ATOM      1  C   UNL     1       0.474   9.574  19.073  0.00  0.00    +0.000 A 
ATOM      2  C   UNL     1       1.275   8.723  18.305  0.00  0.00    +0.000 A 
ATOM      3  C   UNL     1       2.113   7.799  18.918  0.00  0.00    +0.000 A 
ATOM      4  N   UNL     1       2.169   7.691  20.267  0.00  0.00    +0.000 NA
ATOM      5  C   UNL     1       1.441   8.549  21.020  0.00  0.00    +0.000 A 
ATOM      6  N   UNL     1       1.688   8.496  22.388  0.00  0.00    +0.000 N 
ATOM      7  C   UNL     1       0.593   9.513  20.465  0.00  0.00    +0.000 A 
ATOM      8  H   UNL     1       2.201   7.651  22.624  0.00  0.00    +0.000 HD
ATOM      9  H   UNL     1       0.904   8.690  23.001  0.00  0.00    +0.000 HD
ENDROOT
BRANCH   1  12
ATOM     10  N   UNL     1      -2.102  11.126  17.077  0.00  0.00    +0.000 N 
ATOM     11  C   UNL     1      -1.511  10.010  17.589  0.00  0.00    +0.000 A 
ATOM     12  C   UNL     1      -0.463  10.444  18.372  0.00  0.00    +0.000 A 
ATOM     13  C   UNL     1      -0.541  11.869  18.303  0.00  0.00    +0.000 A 
ATOM     14  C   UNL     1       0.333  12.892  18.939  0.00  0.00    +0.000 C 
ATOM     15  N   UNL     1      -1.561  12.270  17.532  0.00  0.00    +0.000 NA
BRANCH  10  16
ATOM     16  C   UNL     1      -3.229  11.152  16.162  0.00  0.00    +0.000 C 
BRANCH  16  18
ATOM     17  C   UNL     1      -3.337  10.068  13.896  0.00  0.00    +0.000 C 
ATOM     18  C   UNL     1      -3.403   9.842  15.398  0.00  0.00    +0.000 C 
ENDBRANCH  16  18
ENDBRANCH  10  16
ENDBRANCH   1  12
BRANCH   3  19
ATOM     19  C   UNL     1       3.006   6.931  18.131  0.00  0.00    +0.000 A 
ATOM     20  C   UNL     1       4.038   7.432  17.320  0.00  0.00    +0.000 A 
ATOM     21  C   UNL     1       4.855   6.563  16.593  0.00  0.00    +0.000 A 
ATOM     22  C   UNL     1       4.634   5.198  16.702  0.00  0.00    +0.000 A 
ATOM     23  N   UNL     1       3.669   4.666  17.477  0.00  0.00    +0.000 NA
ATOM     24  C   UNL     1       2.895   5.538  18.157  0.00  0.00    +0.000 A 
BRANCH  22  25
ATOM     25  O   UNL     1       5.448   4.356  15.976  0.00  0.00    +0.000 OA
ATOM     26  C   UNL     1       6.822   4.479  16.333  0.00  0.00    +0.000 C 
ENDBRANCH  22  25
ENDBRANCH   3  19
BRANCH   7  27
ATOM     27  C   UNL     1      -0.143  10.366  21.344  0.00  0.00    +0.000 C 
ATOM     28  N   UNL     1      -0.726  11.087  22.048  0.00  0.00    +0.000 NA
ENDBRANCH   7  27
TORSDOF 6
ENDMDL
MODEL 8
REMARK VINA RESULT:      -6.8      3.090      7.671
REMARK  Name = 
REMARK  9 active torsions:
REMARK  status: ('A' for Active; 'I' for Inactive)
REMARK    1  A    between atoms: C_1  and  C_2
REMARK    2  A    between atoms: C_2  and  C_3
REMARK    3  A    between atoms: C_3  and  N_4
REMARK    4  A    between atoms: C_6  and  C_7
REMARK    5  A    between atoms: C_9  and  C_10
REMARK    6  A    between atoms: C_13  and  O_14
REMARK    7  A    between atoms: O_14  and  C_15
REMARK    8  A    between atoms: C_21  and  C_22
REMARK    9  A    between atoms: C_24  and  C_25
REMARK                            x       y       z     vdW  Elec       q    Type
REMARK                         _______ _______ _______ _____ _____    ______ ____
ROOT
ATOM      1  C   UNL     1       2.802   5.546  18.666  0.00  0.00    +0.000 A 
ATOM      2  C   UNL     1       3.817   5.747  17.725  0.00  0.00    +0.000 A 
ATOM      3  C   UNL     1       4.294   4.687  16.964  0.00  0.00    +0.000 A 
ATOM      4  N   UNL     1       3.785   3.439  17.104  0.00  0.00    +0.000 NA
ATOM      5  C   UNL     1       2.843   3.222  18.052  0.00  0.00    +0.000 A 
ATOM      6  N   UNL     1       2.502   1.890  18.259  0.00  0.00    +0.000 N 
ATOM      7  C   UNL     1       2.335   4.243  18.863  0.00  0.00    +0.000 A 
ATOM      8  H   UNL     1       2.841   1.314  17.493  0.00  0.00    +0.000 HD
ATOM      9  H   UNL     1       1.543   1.701  18.527  0.00  0.00    +0.000 HD
ENDROOT
BRANCH   1  12
ATOM     10  N   UNL     1       1.406   8.002  20.913  0.00  0.00    +0.000 N 
ATOM     11  C   UNL     1       1.897   6.751  20.680  0.00  0.00    +0.000 A 
ATOM     12  C   UNL     1       2.270   6.716  19.354  0.00  0.00    +0.000 A 
ATOM     13  C   UNL     1       2.005   8.037  18.881  0.00  0.00    +0.000 A 
ATOM     14  C   UNL     1       2.196   8.606  17.518  0.00  0.00    +0.000 C 
ATOM     15  N   UNL     1       1.503   8.817  19.848  0.00  0.00    +0.000 NA
BRANCH  10  16
ATOM     16  C   UNL     1       0.858   8.484  22.168  0.00  0.00    +0.000 C 
BRANCH  16  18
ATOM     17  C   UNL     1      -0.788  10.147  23.088  0.00  0.00    +0.000 C 
ATOM     18  C   UNL     1       0.317   9.908  22.072  0.00  0.00    +0.000 C 
ENDBRANCH  16  18
ENDBRANCH  10  16
ENDBRANCH   1  12
BRANCH   3  19
ATOM     19  C   UNL     1       5.399   4.863  16.006  0.00  0.00    +0.000 A 
ATOM     20  C   UNL     1       5.388   4.306  14.717  0.00  0.00    +0.000 A 
ATOM     21  C   UNL     1       6.464   4.503  13.848  0.00  0.00    +0.000 A 
ATOM     22  C   UNL     1       7.535   5.271  14.283  0.00  0.00    +0.000 A 
ATOM     23  N   UNL     1       7.589   5.839  15.502  0.00  0.00    +0.000 NA
ATOM     24  C   UNL     1       6.534   5.619  16.315  0.00  0.00    +0.000 A 
BRANCH  22  25
ATOM     25  O   UNL     1       8.589   5.452  13.414  0.00  0.00    +0.000 OA
ATOM     26  C   UNL     1       8.164   5.845  12.111  0.00  0.00    +0.000 C 
ENDBRANCH  22  25
ENDBRANCH   3  19
BRANCH   7  27
ATOM     27  C   UNL     1       1.335   3.916  19.830  0.00  0.00    +0.000 C 
ATOM     28  N   UNL     1       0.518   3.682  20.626  0.00  0.00    +0.000 NA
ENDBRANCH   7  27
TORSDOF 6
ENDMDL
MODEL 9
REMARK VINA RESULT:      -6.7      3.005      8.148
REMARK  Name = 
REMARK  9 active torsions:
REMARK  status: ('A' for Active; 'I' for Inactive)
REMARK    1  A    between atoms: C_1  and  C_2
REMARK    2  A    between atoms: C_2  and  C_3
REMARK    3  A    between atoms: C_3  and  N_4
REMARK    4  A    between atoms: C_6  and  C_7
REMARK    5  A    between atoms: C_9  and  C_10
REMARK    6  A    between atoms: C_13  and  O_14
REMARK    7  A    between atoms: O_14  and  C_15
REMARK    8  A    between atoms: C_21  and  C_22
REMARK    9  A    between atoms: C_24  and  C_25
REMARK                            x       y       z     vdW  Elec       q    Type
REMARK                         _______ _______ _______ _____ _____    ______ ____
ROOT
ATOM      1  C   UNL     1       0.482   9.744  19.390  0.00  0.00    +0.000 A 
ATOM      2  C   UNL     1       1.173   8.805  18.617  0.00  0.00    +0.000 A 
ATOM      3  C   UNL     1       1.989   7.858  19.222  0.00  0.00    +0.000 A 
ATOM      4  N   UNL     1       2.130   7.811  20.568  0.00  0.00    +0.000 NA
ATOM      5  C   UNL     1       1.512   8.751  21.321  0.00  0.00    +0.000 A 
ATOM      6  N   UNL     1       1.847   8.748  22.671  0.00  0.00    +0.000 N 
ATOM      7  C   UNL     1       0.692   9.743  20.773  0.00  0.00    +0.000 A 
ATOM      8  H   UNL     1       2.319   7.882  22.917  0.00  0.00    +0.000 HD
ATOM      9  H   UNL     1       1.120   9.023  23.323  0.00  0.00    +0.000 HD
ENDROOT
BRANCH   1  12
ATOM     10  N   UNL     1      -2.177  11.378  17.575  0.00  0.00    +0.000 N 
ATOM     11  C   UNL     1      -1.653  10.266  18.165  0.00  0.00    +0.000 A 
ATOM     12  C   UNL     1      -0.443  10.641  18.706  0.00  0.00    +0.000 A 
ATOM     13  C   UNL     1      -0.352  12.039  18.426  0.00  0.00    +0.000 A 
ATOM     14  C   UNL     1       0.738  12.997  18.757  0.00  0.00    +0.000 C 
ATOM     15  N   UNL     1      -1.428  12.479  17.760  0.00  0.00    +0.000 NA
BRANCH  10  16
ATOM     16  C   UNL     1      -3.429  11.447  16.844  0.00  0.00    +0.000 C 
BRANCH  16  18
ATOM     17  C   UNL     1      -2.963  10.233  14.693  0.00  0.00    +0.000 C 
ATOM     18  C   UNL     1      -3.705  10.193  16.019  0.00  0.00    +0.000 C 
ENDBRANCH  16  18
ENDBRANCH  10  16
ENDBRANCH   1  12
BRANCH   3  19
ATOM     19  C   UNL     1       2.769   6.894  18.426  0.00  0.00    +0.000 A 
ATOM     20  C   UNL     1       2.484   5.519  18.400  0.00  0.00    +0.000 A 
ATOM     21  C   UNL     1       3.258   4.648  17.629  0.00  0.00    +0.000 A 
ATOM     22  C   UNL     1       4.301   5.173  16.881  0.00  0.00    +0.000 A 
ATOM     23  N   UNL     1       4.606   6.485  16.859  0.00  0.00    +0.000 NA
ATOM     24  C   UNL     1       3.841   7.293  17.623  0.00  0.00    +0.000 A 
BRANCH  22  25
ATOM     25  O   UNL     1       5.055   4.299  16.128  0.00  0.00    +0.000 OA
ATOM     26  C   UNL     1       6.450   4.403  16.400  0.00  0.00    +0.000 C 
ENDBRANCH  22  25
ENDBRANCH   3  19
BRANCH   7  27
ATOM     27  C   UNL     1       0.074  10.685  21.651  0.00  0.00    +0.000 C 
ATOM     28  N   UNL     1      -0.401  11.460  22.379  0.00  0.00    +0.000 NA
ENDBRANCH   7  27
TORSDOF 6
ENDMDL
