MODEL 1
REMARK VINA RESULT:      -8.1      0.000      0.000
REMARK  Name = 
REMARK  4 active torsions:
REMARK  status: ('A' for Active; 'I' for Inactive)
REMARK    1  A    between atoms: C_2  and  C_4
REMARK    2  A    between atoms: C_11  and  C_12
REMARK    3  A    between atoms: C_17  and  N_18
REMARK    4  A    between atoms: N_18  and  C_19
REMARK                            x       y       z     vdW  Elec       q    Type
REMARK                         _______ _______ _______ _____ _____    ______ ____
ROOT
ATOM      1  C   UNL     1       5.141   5.604  17.503  0.00  0.00    +0.000 A 
ATOM      2  C   UNL     1       5.398   4.374  18.130  0.00  0.00    +0.000 A 
ATOM      3  C   UNL     1       4.614   3.953  19.200  0.00  0.00    +0.000 A 
ATOM      4  F   UNL     1       4.885   2.776  19.779  0.00  0.00    +0.000 F 
ATOM      5  C   UNL     1       3.550   4.712  19.695  0.00  0.00    +0.000 A 
ATOM      6  C   UNL     1       3.313   5.931  19.059  0.00  0.00    +0.000 A 
ATOM      7  N   UNL     1       2.384   6.920  19.260  0.00  0.00    +0.000 N 
ATOM      8  C   UNL     1       2.595   7.906  18.328  0.00  0.00    +0.000 A 
ATOM      9  N   UNL     1       3.630   7.615  17.567  0.00  0.00    +0.000 NA
ATOM     10  C   UNL     1       4.080   6.387  17.991  0.00  0.00    +0.000 A 
ATOM     11  H   UNL     1       1.654   6.942  19.961  0.00  0.00    +0.000 HD
ENDROOT
BRANCH   8  12
ATOM     12  C   UNL     1       1.828   9.132  18.253  0.00  0.00    +0.000 C 
ATOM     13  O   UNL     1       2.097   9.982  17.404  0.00  0.00    +0.000 OA
ATOM     14  N   UNL     1       0.764   9.289  19.153  0.00  0.00    +0.000 N 
ATOM     15  C   UNL     1      -0.128  10.412  18.939  0.00  0.00    +0.000 C 
ATOM     16  C   UNL     1       0.405  11.599  19.726  0.00  0.00    +0.000 C 
ATOM     17  C   UNL     1       0.370  11.317  21.236  0.00  0.00    +0.000 C 
ATOM     18  C   UNL     1       1.167  10.001  21.491  0.00  0.00    +0.000 C 
ATOM     19  C   UNL     1       0.807   8.839  20.549  0.00  0.00    +0.000 C 
BRANCH  17  20
ATOM     20  N   UNL     1      -0.997  11.224  21.798  0.00  0.00    +0.000 NA
ATOM     21  H   UNL     1      -1.117  10.262  22.126  0.00  0.00    +0.000 HD
BRANCH  20  22
ATOM     22  C   UNL     1      -1.262  12.099  22.971  0.00  0.00    +0.000 C 
ATOM     23  C   UNL     1      -0.947  13.600  22.804  0.00  0.00    +0.000 C 
ATOM     24  C   UNL     1      -1.820  14.302  21.766  0.00  0.00    +0.000 C 
ATOM     25  C   UNL     1      -3.304  14.124  22.071  0.00  0.00    +0.000 C 
ATOM     26  C   UNL     1      -3.665  12.657  22.284  0.00  0.00    +0.000 C 
ATOM     27  C   UNL     1      -2.763  12.006  23.337  0.00  0.00    +0.000 C 
ENDBRANCH  20  22
ENDBRANCH  17  20
ENDBRANCH   8  12
BRANCH   1  29
ATOM     28  N   UNL     1       5.299   6.566  15.269  0.00  0.00    +0.000 N 
ATOM     29  C   UNL     1       5.959   6.045  16.349  0.00  0.00    +0.000 C 
ATOM     30  O   UNL     1       7.180   5.944  16.363  0.00  0.00    +0.000 OA
ATOM     31  H   UNL     1       5.836   6.907  14.487  0.00  0.00    +0.000 HD
ATOM     32  H   UNL     1       4.291   6.707  15.284  0.00  0.00    +0.000 HD
ENDBRANCH   1  29
TORSDOF 4
ENDMDL
MODEL 2
REMARK VINA RESULT:      -7.9      2.738      3.517
REMARK  Name = 
REMARK  4 active torsions:
REMARK  status: ('A' for Active; 'I' for Inactive)
REMARK    1  A    between atoms: C_2  and  C_4
REMARK    2  A    between atoms: C_11  and  C_12
REMARK    3  A    between atoms: C_17  and  N_18
REMARK    4  A    between atoms: N_18  and  C_19
REMARK                            x       y       z     vdW  Elec       q    Type
REMARK                         _______ _______ _______ _____ _____    ______ ____
ROOT
ATOM      1  C   UNL     1       6.450   5.375  17.944  0.00  0.00    +0.000 A 
ATOM      2  C   UNL     1       6.786   4.592  16.828  0.00  0.00    +0.000 A 
ATOM      3  C   UNL     1       5.789   4.009  16.052  0.00  0.00    +0.000 A 
ATOM      4  F   UNL     1       6.141   3.266  14.995  0.00  0.00    +0.000 F 
ATOM      5  C   UNL     1       4.429   4.172  16.331  0.00  0.00    +0.000 A 
ATOM      6  C   UNL     1       4.117   4.951  17.445  0.00  0.00    +0.000 A 
ATOM      7  N   UNL     1       2.927   5.324  18.016  0.00  0.00    +0.000 N 
ATOM      8  C   UNL     1       3.198   6.120  19.101  0.00  0.00    +0.000 A 
ATOM      9  N   UNL     1       4.498   6.246  19.273  0.00  0.00    +0.000 NA
ATOM     10  C   UNL     1       5.088   5.544  18.248  0.00  0.00    +0.000 A 
ATOM     11  H   UNL     1       1.995   5.076  17.708  0.00  0.00    +0.000 HD
ENDROOT
BRANCH   8  12
ATOM     12  C   UNL     1       2.188   6.674  19.977  0.00  0.00    +0.000 C 
ATOM     13  O   UNL     1       1.470   5.931  20.646  0.00  0.00    +0.000 OA
ATOM     14  N   UNL     1       2.088   8.071  20.052  0.00  0.00    +0.000 N 
ATOM     15  C   UNL     1       1.228   8.623  21.080  0.00  0.00    +0.000 C 
ATOM     16  C   UNL     1      -0.166   8.789  20.495  0.00  0.00    +0.000 C 
ATOM     17  C   UNL     1      -0.162   9.819  19.354  0.00  0.00    +0.000 C 
ATOM     18  C   UNL     1       0.896   9.359  18.306  0.00  0.00    +0.000 C 
ATOM     19  C   UNL     1       2.259   8.962  18.898  0.00  0.00    +0.000 C 
BRANCH  17  20
ATOM     20  N   UNL     1       0.102  11.206  19.799  0.00  0.00    +0.000 NA
ATOM     21  H   UNL     1       0.854  11.157  20.491  0.00  0.00    +0.000 HD
BRANCH  20  22
ATOM     22  C   UNL     1       0.575  12.134  18.736  0.00  0.00    +0.000 C 
ATOM     23  C   UNL     1      -0.367  13.295  18.356  0.00  0.00    +0.000 C 
ATOM     24  C   UNL     1      -0.594  14.300  19.484  0.00  0.00    +0.000 C 
ATOM     25  C   UNL     1       0.725  14.864  20.003  0.00  0.00    +0.000 C 
ATOM     26  C   UNL     1       1.712  13.756  20.360  0.00  0.00    +0.000 C 
ATOM     27  C   UNL     1       1.905  12.782  19.194  0.00  0.00    +0.000 C 
ENDBRANCH  20  22
ENDBRANCH  17  20
ENDBRANCH   8  12
BRANCH   1  29
ATOM     28  N   UNL     1       7.816   5.440  19.962  0.00  0.00    +0.000 N 
ATOM     29  C   UNL     1       7.508   6.016  18.760  0.00  0.00    +0.000 C 
ATOM     30  O   UNL     1       8.084   7.025  18.369  0.00  0.00    +0.000 OA
ATOM     31  H   UNL     1       8.558   5.837  20.518  0.00  0.00    +0.000 HD
ATOM     32  H   UNL     1       7.381   4.568  20.256  0.00  0.00    +0.000 HD
ENDBRANCH   1  29
TORSDOF 4
ENDMDL
MODEL 3
REMARK VINA RESULT:      -7.8      2.566      3.384
REMARK  Name = 
REMARK  4 active torsions:
REMARK  status: ('A' for Active; 'I' for Inactive)
REMARK    1  A    between atoms: C_2  and  C_4
REMARK    2  A    between atoms: C_11  and  C_12
REMARK    3  A    between atoms: C_17  and  N_18
REMARK    4  A    between atoms: N_18  and  C_19
REMARK                            x       y       z     vdW  Elec       q    Type
REMARK                         _______ _______ _______ _____ _____    ______ ____
ROOT
ATOM      1  C   UNL     1       3.851   3.874  17.167  0.00  0.00    +0.000 A 
ATOM      2  C   UNL     1       4.784   3.884  16.118  0.00  0.00    +0.000 A 
ATOM      3  C   UNL     1       5.346   5.083  15.690  0.00  0.00    +0.000 A 
ATOM      4  F   UNL     1       6.232   5.062  14.685  0.00  0.00    +0.000 F 
ATOM      5  C   UNL     1       5.023   6.313  16.269  0.00  0.00    +0.000 A 
ATOM      6  C   UNL     1       4.093   6.280  17.308  0.00  0.00    +0.000 A 
ATOM      7  N   UNL     1       3.543   7.259  18.097  0.00  0.00    +0.000 N 
ATOM      8  C   UNL     1       2.682   6.665  18.986  0.00  0.00    +0.000 A 
ATOM      9  N   UNL     1       2.626   5.365  18.782  0.00  0.00    +0.000 NA
ATOM     10  C   UNL     1       3.505   5.101  17.759  0.00  0.00    +0.000 A 
ATOM     11  H   UNL     1       3.728   8.254  18.057  0.00  0.00    +0.000 HD
ENDROOT
BRANCH   8  12
ATOM     12  C   UNL     1       1.887   7.388  19.956  0.00  0.00    +0.000 C 
ATOM     13  O   UNL     1       1.350   6.791  20.889  0.00  0.00    +0.000 OA
ATOM     14  N   UNL     1       1.786   8.779  19.807  0.00  0.00    +0.000 N 
ATOM     15  C   UNL     1       1.173   9.522  20.890  0.00  0.00    +0.000 C 
ATOM     16  C   UNL     1      -0.319   9.621  20.613  0.00  0.00    +0.000 C 
ATOM     17  C   UNL     1      -0.588  10.436  19.338  0.00  0.00    +0.000 C 
ATOM     18  C   UNL     1       0.212   9.776  18.176  0.00  0.00    +0.000 C 
ATOM     19  C   UNL     1       1.679   9.452  18.507  0.00  0.00    +0.000 C 
BRANCH  17  20
ATOM     20  N   UNL     1      -0.250  11.873  19.464  0.00  0.00    +0.000 NA
ATOM     21  H   UNL     1       0.369  12.100  18.681  0.00  0.00    +0.000 HD
BRANCH  20  22
ATOM     22  C   UNL     1      -1.404  12.806  19.365  0.00  0.00    +0.000 C 
ATOM     23  C   UNL     1      -2.654  12.458  20.200  0.00  0.00    +0.000 C 
ATOM     24  C   UNL     1      -2.421  12.506  21.709  0.00  0.00    +0.000 C 
ATOM     25  C   UNL     1      -1.877  13.862  22.148  0.00  0.00    +0.000 C 
ATOM     26  C   UNL     1      -0.659  14.275  21.326  0.00  0.00    +0.000 C 
ATOM     27  C   UNL     1      -0.950  14.214  19.824  0.00  0.00    +0.000 C 
ENDBRANCH  20  22
ENDBRANCH  17  20
ENDBRANCH   8  12
BRANCH   1  29
ATOM     28  N   UNL     1       4.084   1.752  18.344  0.00  0.00    +0.000 N 
ATOM     29  C   UNL     1       3.268   2.597  17.642  0.00  0.00    +0.000 C 
ATOM     30  O   UNL     1       2.098   2.311  17.412  0.00  0.00    +0.000 OA
ATOM     31  H   UNL     1       3.700   0.894  18.709  0.00  0.00    +0.000 HD
ATOM     32  H   UNL     1       5.035   2.018  18.588  0.00  0.00    +0.000 HD
ENDBRANCH   1  29
TORSDOF 4
ENDMDL
MODEL 4
REMARK VINA RESULT:      -7.8      2.434      3.210
REMARK  Name = 
REMARK  4 active torsions:
REMARK  status: ('A' for Active; 'I' for Inactive)
REMARK    1  A    between atoms: C_2  and  C_4
REMARK    2  A    between atoms: C_11  and  C_12
REMARK    3  A    between atoms: C_17  and  N_18
REMARK    4  A    between atoms: N_18  and  C_19
REMARK                            x       y       z     vdW  Elec       q    Type
REMARK                         _______ _______ _______ _____ _____    ______ ____
ROOT
ATOM      1  C   UNL     1       6.336   5.232  18.128  0.00  0.00    +0.000 A 
ATOM      2  C   UNL     1       6.688   4.522  16.968  0.00  0.00    +0.000 A 
ATOM      3  C   UNL     1       5.701   4.011  16.131  0.00  0.00    +0.000 A 
ATOM      4  F   UNL     1       6.067   3.336  15.033  0.00  0.00    +0.000 F 
ATOM      5  C   UNL     1       4.337   4.175  16.390  0.00  0.00    +0.000 A 
ATOM      6  C   UNL     1       4.010   4.881  17.548  0.00  0.00    +0.000 A 
ATOM      7  N   UNL     1       2.812   5.232  18.117  0.00  0.00    +0.000 N 
ATOM      8  C   UNL     1       3.070   5.947  19.260  0.00  0.00    +0.000 A 
ATOM      9  N   UNL     1       4.367   6.040  19.470  0.00  0.00    +0.000 NA
ATOM     10  C   UNL     1       4.970   5.401  18.412  0.00  0.00    +0.000 A 
ATOM     11  H   UNL     1       1.884   5.021  17.771  0.00  0.00    +0.000 HD
ENDROOT
BRANCH   8  12
ATOM     12  C   UNL     1       2.047   6.455  20.150  0.00  0.00    +0.000 C 
ATOM     13  O   UNL     1       1.295   5.680  20.740  0.00  0.00    +0.000 OA
ATOM     14  N   UNL     1       1.975   7.844  20.331  0.00  0.00    +0.000 N 
ATOM     15  C   UNL     1       1.099   8.335  21.376  0.00  0.00    +0.000 C 
ATOM     16  C   UNL     1      -0.274   8.579  20.769  0.00  0.00    +0.000 C 
ATOM     17  C   UNL     1      -0.216   9.693  19.712  0.00  0.00    +0.000 C 
ATOM     18  C   UNL     1       0.861   9.292  18.659  0.00  0.00    +0.000 C 
ATOM     19  C   UNL     1       2.197   8.817  19.255  0.00  0.00    +0.000 C 
BRANCH  17  20
ATOM     20  N   UNL     1       0.065  11.036  20.271  0.00  0.00    +0.000 NA
ATOM     21  H   UNL     1       0.747  11.478  19.648  0.00  0.00    +0.000 HD
BRANCH  20  22
ATOM     22  C   UNL     1      -1.102  11.956  20.329  0.00  0.00    +0.000 C 
ATOM     23  C   UNL     1      -0.907  13.279  21.097  0.00  0.00    +0.000 C 
ATOM     24  C   UNL     1       0.118  14.216  20.462  0.00  0.00    +0.000 C 
ATOM     25  C   UNL     1      -0.226  14.518  19.008  0.00  0.00    +0.000 C 
ATOM     26  C   UNL     1      -0.468  13.241  18.207  0.00  0.00    +0.000 C 
ATOM     27  C   UNL     1      -1.507  12.344  18.886  0.00  0.00    +0.000 C 
ENDBRANCH  20  22
ENDBRANCH  17  20
ENDBRANCH   8  12
BRANCH   1  29
ATOM     28  N   UNL     1       8.074   6.888  18.552  0.00  0.00    +0.000 N 
ATOM     29  C   UNL     1       7.384   5.798  19.009  0.00  0.00    +0.000 C 
ATOM     30  O   UNL     1       7.623   5.306  20.106  0.00  0.00    +0.000 OA
ATOM     31  H   UNL     1       8.766   7.313  19.149  0.00  0.00    +0.000 HD
ATOM     32  H   UNL     1       7.832   7.333  17.669  0.00  0.00    +0.000 HD
ENDBRANCH   1  29
TORSDOF 4
ENDMDL
MODEL 5
REMARK VINA RESULT:      -7.8      2.352      3.218
REMARK  Name = 
REMARK  4 active torsions:
REMARK  status: ('A' for Active; 'I' for Inactive)
REMARK    1  A    between atoms: C_2  and  C_4
REMARK    2  A    between atoms: C_11  and  C_12
REMARK    3  A    between atoms: C_17  and  N_18
REMARK    4  A    between atoms: N_18  and  C_19
REMARK                            x       y       z     vdW  Elec       q    Type
REMARK                         _______ _______ _______ _____ _____    ______ ____
ROOT
ATOM      1  C   UNL     1       6.467   5.384  17.945  0.00  0.00    +0.000 A 
ATOM      2  C   UNL     1       6.802   4.575  16.846  0.00  0.00    +0.000 A 
ATOM      3  C   UNL     1       5.803   4.012  16.058  0.00  0.00    +0.000 A 
ATOM      4  F   UNL     1       6.153   3.244  15.019  0.00  0.00    +0.000 F 
ATOM      5  C   UNL     1       4.443   4.219  16.308  0.00  0.00    +0.000 A 
ATOM      6  C   UNL     1       4.133   5.024  17.405  0.00  0.00    +0.000 A 
ATOM      7  N   UNL     1       2.944   5.439  17.947  0.00  0.00    +0.000 N 
ATOM      8  C   UNL     1       3.218   6.242  19.026  0.00  0.00    +0.000 A 
ATOM      9  N   UNL     1       4.518   6.332  19.223  0.00  0.00    +0.000 NA
ATOM     10  C   UNL     1       5.106   5.598  18.219  0.00  0.00    +0.000 A 
ATOM     11  H   UNL     1       2.011   5.215  17.623  0.00  0.00    +0.000 HD
ENDROOT
BRANCH   8  12
ATOM     12  C   UNL     1       2.208   6.839  19.875  0.00  0.00    +0.000 C 
ATOM     13  O   UNL     1       1.528   6.135  20.621  0.00  0.00    +0.000 OA
ATOM     14  N   UNL     1       2.064   8.233  19.832  0.00  0.00    +0.000 N 
ATOM     15  C   UNL     1       1.208   8.845  20.829  0.00  0.00    +0.000 C 
ATOM     16  C   UNL     1      -0.203   8.918  20.263  0.00  0.00    +0.000 C 
ATOM     17  C   UNL     1      -0.255   9.845  19.038  0.00  0.00    +0.000 C 
ATOM     18  C   UNL     1       0.796   9.329  18.009  0.00  0.00    +0.000 C 
ATOM     19  C   UNL     1       2.183   9.026  18.603  0.00  0.00    +0.000 C 
BRANCH  17  20
ATOM     20  N   UNL     1      -0.027  11.273  19.357  0.00  0.00    +0.000 NA
ATOM     21  H   UNL     1       0.900  11.512  18.995  0.00  0.00    +0.000 HD
BRANCH  20  22
ATOM     22  C   UNL     1      -0.979  12.224  18.723  0.00  0.00    +0.000 C 
ATOM     23  C   UNL     1      -2.397  12.295  19.328  0.00  0.00    +0.000 C 
ATOM     24  C   UNL     1      -2.431  12.824  20.760  0.00  0.00    +0.000 C 
ATOM     25  C   UNL     1      -1.763  14.191  20.867  0.00  0.00    +0.000 C 
ATOM     26  C   UNL     1      -0.368  14.187  20.249  0.00  0.00    +0.000 C 
ATOM     27  C   UNL     1      -0.393  13.654  18.813  0.00  0.00    +0.000 C 
ENDBRANCH  20  22
ENDBRANCH  17  20
ENDBRANCH   8  12
BRANCH   1  29
ATOM     28  N   UNL     1       7.819   5.416  19.973  0.00  0.00    +0.000 N 
ATOM     29  C   UNL     1       7.529   6.005  18.772  0.00  0.00    +0.000 C 
ATOM     30  O   UNL     1       8.121   7.009  18.393  0.00  0.00    +0.000 OA
ATOM     31  H   UNL     1       8.563   5.799  20.537  0.00  0.00    +0.000 HD
ATOM     32  H   UNL     1       7.371   4.548  20.257  0.00  0.00    +0.000 HD
ENDBRANCH   1  29
TORSDOF 4
ENDMDL
MODEL 6
REMARK VINA RESULT:      -7.8      1.383      1.598
REMARK  Name = 
REMARK  4 active torsions:
REMARK  status: ('A' for Active; 'I' for Inactive)
REMARK    1  A    between atoms: C_2  and  C_4
REMARK    2  A    between atoms: C_11  and  C_12
REMARK    3  A    between atoms: C_17  and  N_18
REMARK    4  A    between atoms: N_18  and  C_19
REMARK                            x       y       z     vdW  Elec       q    Type
REMARK                         _______ _______ _______ _____ _____    ______ ____
ROOT
ATOM      1  C   UNL     1       5.001   4.915  18.811  0.00  0.00    +0.000 A 
ATOM      2  C   UNL     1       4.802   3.526  18.869  0.00  0.00    +0.000 A 
ATOM      3  C   UNL     1       3.528   2.991  18.702  0.00  0.00    +0.000 A 
ATOM      4  F   UNL     1       3.368   1.663  18.765  0.00  0.00    +0.000 F 
ATOM      5  C   UNL     1       2.404   3.789  18.470  0.00  0.00    +0.000 A 
ATOM      6  C   UNL     1       2.624   5.166  18.419  0.00  0.00    +0.000 A 
ATOM      7  N   UNL     1       1.788   6.235  18.217  0.00  0.00    +0.000 N 
ATOM      8  C   UNL     1       2.541   7.383  18.248  0.00  0.00    +0.000 A 
ATOM      9  N   UNL     1       3.805   7.106  18.495  0.00  0.00    +0.000 NA
ATOM     10  C   UNL     1       3.883   5.736  18.587  0.00  0.00    +0.000 A 
ATOM     11  H   UNL     1       0.788   6.210  18.061  0.00  0.00    +0.000 HD
ENDROOT
BRANCH   8  12
ATOM     12  C   UNL     1       1.996   8.717  18.108  0.00  0.00    +0.000 C 
ATOM     13  O   UNL     1       2.421   9.473  17.235  0.00  0.00    +0.000 OA
ATOM     14  N   UNL     1       0.959   9.090  18.975  0.00  0.00    +0.000 N 
ATOM     15  C   UNL     1       0.275  10.337  18.698  0.00  0.00    +0.000 C 
ATOM     16  C   UNL     1       0.989  11.448  19.452  0.00  0.00    +0.000 C 
ATOM     17  C   UNL     1       0.880  11.238  20.971  0.00  0.00    +0.000 C 
ATOM     18  C   UNL     1       1.435   9.818  21.293  0.00  0.00    +0.000 C 
ATOM     19  C   UNL     1       0.899   8.696  20.388  0.00  0.00    +0.000 C 
BRANCH  17  20
ATOM     20  N   UNL     1      -0.493  11.402  21.502  0.00  0.00    +0.000 NA
ATOM     21  H   UNL     1      -0.526  10.904  22.396  0.00  0.00    +0.000 HD
BRANCH  20  22
ATOM     22  C   UNL     1      -0.898  12.804  21.791  0.00  0.00    +0.000 C 
ATOM     23  C   UNL     1      -1.936  13.438  20.843  0.00  0.00    +0.000 C 
ATOM     24  C   UNL     1      -3.307  12.767  20.891  0.00  0.00    +0.000 C 
ATOM     25  C   UNL     1      -3.866  12.737  22.310  0.00  0.00    +0.000 C 
ATOM     26  C   UNL     1      -2.862  12.152  23.299  0.00  0.00    +0.000 C 
ATOM     27  C   UNL     1      -1.510  12.865  23.212  0.00  0.00    +0.000 C 
ENDBRANCH  20  22
ENDBRANCH  17  20
ENDBRANCH   8  12
BRANCH   1  29
ATOM     28  N   UNL     1       6.840   6.259  17.942  0.00  0.00    +0.000 N 
ATOM     29  C   UNL     1       6.360   5.486  18.964  0.00  0.00    +0.000 C 
ATOM     30  O   UNL     1       7.027   5.272  19.970  0.00  0.00    +0.000 OA
ATOM     31  H   UNL     1       7.747   6.688  18.039  0.00  0.00    +0.000 HD
ATOM     32  H   UNL     1       6.262   6.487  17.137  0.00  0.00    +0.000 HD
ENDBRANCH   1  29
TORSDOF 4
ENDMDL
MODEL 7
REMARK VINA RESULT:      -7.7      2.260      3.024
REMARK  Name = 
REMARK  4 active torsions:
REMARK  status: ('A' for Active; 'I' for Inactive)
REMARK    1  A    between atoms: C_2  and  C_4
REMARK    2  A    between atoms: C_11  and  C_12
REMARK    3  A    between atoms: C_17  and  N_18
REMARK    4  A    between atoms: N_18  and  C_19
REMARK                            x       y       z     vdW  Elec       q    Type
REMARK                         _______ _______ _______ _____ _____    ______ ____
ROOT
ATOM      1  C   UNL     1       6.258   5.232  18.134  0.00  0.00    +0.000 A 
ATOM      2  C   UNL     1       6.585   4.498  16.983  0.00  0.00    +0.000 A 
ATOM      3  C   UNL     1       5.581   3.998  16.159  0.00  0.00    +0.000 A 
ATOM      4  F   UNL     1       5.924   3.299  15.069  0.00  0.00    +0.000 F 
ATOM      5  C   UNL     1       4.223   4.198  16.425  0.00  0.00    +0.000 A 
ATOM      6  C   UNL     1       3.921   4.928  17.574  0.00  0.00    +0.000 A 
ATOM      7  N   UNL     1       2.735   5.315  18.146  0.00  0.00    +0.000 N 
ATOM      8  C   UNL     1       3.017   6.040  19.277  0.00  0.00    +0.000 A 
ATOM      9  N   UNL     1       4.317   6.105  19.477  0.00  0.00    +0.000 NA
ATOM     10  C   UNL     1       4.898   5.438  18.425  0.00  0.00    +0.000 A 
ATOM     11  H   UNL     1       1.800   5.122  17.809  0.00  0.00    +0.000 HD
ENDROOT
BRANCH   8  12
ATOM     12  C   UNL     1       2.013   6.585  20.166  0.00  0.00    +0.000 C 
ATOM     13  O   UNL     1       1.251   5.836  20.777  0.00  0.00    +0.000 OA
ATOM     14  N   UNL     1       1.969   7.979  20.320  0.00  0.00    +0.000 N 
ATOM     15  C   UNL     1       1.111   8.506  21.364  0.00  0.00    +0.000 C 
ATOM     16  C   UNL     1      -0.262   8.766  20.764  0.00  0.00    +0.000 C 
ATOM     17  C   UNL     1      -0.192   9.858  19.685  0.00  0.00    +0.000 C 
ATOM     18  C   UNL     1       0.867   9.415  18.631  0.00  0.00    +0.000 C 
ATOM     19  C   UNL     1       2.200   8.926  19.224  0.00  0.00    +0.000 C 
BRANCH  17  20
ATOM     20  N   UNL     1       0.120  11.205  20.215  0.00  0.00    +0.000 NA
ATOM     21  H   UNL     1       0.812  11.619  19.584  0.00  0.00    +0.000 HD
BRANCH  20  22
ATOM     22  C   UNL     1      -1.026  12.153  20.254  0.00  0.00    +0.000 C 
ATOM     23  C   UNL     1      -2.019  11.995  21.423  0.00  0.00    +0.000 C 
ATOM     24  C   UNL     1      -1.410  12.283  22.794  0.00  0.00    +0.000 C 
ATOM     25  C   UNL     1      -0.781  13.671  22.845  0.00  0.00    +0.000 C 
ATOM     26  C   UNL     1       0.186  13.896  21.686  0.00  0.00    +0.000 C 
ATOM     27  C   UNL     1      -0.478  13.598  20.338  0.00  0.00    +0.000 C 
ENDBRANCH  20  22
ENDBRANCH  17  20
ENDBRANCH   8  12
BRANCH   1  29
ATOM     28  N   UNL     1       8.026   6.863  18.531  0.00  0.00    +0.000 N 
ATOM     29  C   UNL     1       7.325   5.786  19.001  0.00  0.00    +0.000 C 
ATOM     30  O   UNL     1       7.569   5.294  20.098  0.00  0.00    +0.000 OA
ATOM     31  H   UNL     1       8.731   7.280  19.118  0.00  0.00    +0.000 HD
ATOM     32  H   UNL     1       7.781   7.308  17.649  0.00  0.00    +0.000 HD
ENDBRANCH   1  29
TORSDOF 4
ENDMDL
MODEL 8
REMARK VINA RESULT:      -7.7      0.907      1.204
REMARK  Name = 
REMARK  4 active torsions:
REMARK  status: ('A' for Active; 'I' for Inactive)
REMARK    1  A    between atoms: C_2  and  C_4
REMARK    2  A    between atoms: C_11  and  C_12
REMARK    3  A    between atoms: C_17  and  N_18
REMARK    4  A    between atoms: N_18  and  C_19
REMARK                            x       y       z     vdW  Elec       q    Type
REMARK                         _______ _______ _______ _____ _____    ______ ____
ROOT
ATOM      1  C   UNL     1       4.365   5.306  17.522  0.00  0.00    +0.000 A 
ATOM      2  C   UNL     1       4.553   4.135  18.273  0.00  0.00    +0.000 A 
ATOM      3  C   UNL     1       3.929   3.984  19.507  0.00  0.00    +0.000 A 
ATOM      4  F   UNL     1       4.130   2.856  20.202  0.00  0.00    +0.000 F 
ATOM      5  C   UNL     1       3.098   4.966  20.053  0.00  0.00    +0.000 A 
ATOM      6  C   UNL     1       2.926   6.122  19.291  0.00  0.00    +0.000 A 
ATOM      7  N   UNL     1       2.205   7.271  19.494  0.00  0.00    +0.000 N 
ATOM      8  C   UNL     1       2.379   8.088  18.404  0.00  0.00    +0.000 A 
ATOM      9  N   UNL     1       3.201   7.537  17.535  0.00  0.00    +0.000 NA
ATOM     10  C   UNL     1       3.539   6.310  18.055  0.00  0.00    +0.000 A 
ATOM     11  H   UNL     1       1.628   7.500  20.294  0.00  0.00    +0.000 HD
ENDROOT
BRANCH   8  12
ATOM     12  C   UNL     1       1.798   9.408  18.275  0.00  0.00    +0.000 C 
ATOM     13  O   UNL     1       2.288  10.230  17.502  0.00  0.00    +0.000 OA
ATOM     14  N   UNL     1       0.652   9.690  19.034  0.00  0.00    +0.000 N 
ATOM     15  C   UNL     1      -0.048  10.927  18.747  0.00  0.00    +0.000 C 
ATOM     16  C   UNL     1       0.526  12.016  19.641  0.00  0.00    +0.000 C 
ATOM     17  C   UNL     1       0.251  11.710  21.122  0.00  0.00    +0.000 C 
ATOM     18  C   UNL     1       0.825  10.294  21.429  0.00  0.00    +0.000 C 
ATOM     19  C   UNL     1       0.446   9.211  20.405  0.00  0.00    +0.000 C 
BRANCH  17  20
ATOM     20  N   UNL     1      -1.180  11.793  21.495  0.00  0.00    +0.000 NA
ATOM     21  H   UNL     1      -1.291  11.259  22.362  0.00  0.00    +0.000 HD
BRANCH  20  22
ATOM     22  C   UNL     1      -1.683  13.163  21.783  0.00  0.00    +0.000 C 
ATOM     23  C   UNL     1      -2.924  13.628  20.995  0.00  0.00    +0.000 C 
ATOM     24  C   UNL     1      -4.188  12.828  21.306  0.00  0.00    +0.000 C 
ATOM     25  C   UNL     1      -4.501  12.834  22.799  0.00  0.00    +0.000 C 
ATOM     26  C   UNL     1      -3.291  12.417  23.631  0.00  0.00    +0.000 C 
ATOM     27  C   UNL     1      -2.057  13.254  23.283  0.00  0.00    +0.000 C 
ENDBRANCH  20  22
ENDBRANCH  17  20
ENDBRANCH   8  12
BRANCH   1  29
ATOM     28  N   UNL     1       5.459   6.706  15.853  0.00  0.00    +0.000 N 
ATOM     29  C   UNL     1       5.009   5.461  16.195  0.00  0.00    +0.000 C 
ATOM     30  O   UNL     1       5.132   4.506  15.436  0.00  0.00    +0.000 OA
ATOM     31  H   UNL     1       5.934   6.828  14.971  0.00  0.00    +0.000 HD
ATOM     32  H   UNL     1       5.414   7.483  16.508  0.00  0.00    +0.000 HD
ENDBRANCH   1  29
TORSDOF 4
ENDMDL
MODEL 9
REMARK VINA RESULT:      -7.7      0.600      1.205
REMARK  Name = 
REMARK  4 active torsions:
REMARK  status: ('A' for Active; 'I' for Inactive)
REMARK    1  A    between atoms: C_2  and  C_4
REMARK    2  A    between atoms: C_11  and  C_12
REMARK    3  A    between atoms: C_17  and  N_18
REMARK    4  A    between atoms: N_18  and  C_19
REMARK                            x       y       z     vdW  Elec       q    Type
REMARK                         _______ _______ _______ _____ _____    ______ ____
ROOT
ATOM      1  C   UNL     1       5.029   5.515  17.660  0.00  0.00    +0.000 A 
ATOM      2  C   UNL     1       5.204   4.292  18.327  0.00  0.00    +0.000 A 
ATOM      3  C   UNL     1       4.346   3.925  19.360  0.00  0.00    +0.000 A 
ATOM      4  F   UNL     1       4.540   2.754  19.979  0.00  0.00    +0.000 F 
ATOM      5  C   UNL     1       3.285   4.734  19.776  0.00  0.00    +0.000 A 
ATOM      6  C   UNL     1       3.130   5.945  19.101  0.00  0.00    +0.000 A 
ATOM      7  N   UNL     1       2.229   6.972  19.226  0.00  0.00    +0.000 N 
ATOM      8  C   UNL     1       2.528   7.926  18.286  0.00  0.00    +0.000 A 
ATOM      9  N   UNL     1       3.593   7.580  17.592  0.00  0.00    +0.000 NA
ATOM     10  C   UNL     1       3.973   6.347  18.068  0.00  0.00    +0.000 A 
ATOM     11  H   UNL     1       1.461   7.037  19.884  0.00  0.00    +0.000 HD
ENDROOT
BRANCH   8  12
ATOM     12  C   UNL     1       1.813   9.177  18.140  0.00  0.00    +0.000 C 
ATOM     13  O   UNL     1       2.138   9.980  17.266  0.00  0.00    +0.000 OA
ATOM     14  N   UNL     1       0.733   9.412  19.003  0.00  0.00    +0.000 N 
ATOM     15  C   UNL     1      -0.109  10.558  18.718  0.00  0.00    +0.000 C 
ATOM     16  C   UNL     1       0.450  11.756  19.472  0.00  0.00    +0.000 C 
ATOM     17  C   UNL     1       0.364  11.538  20.990  0.00  0.00    +0.000 C 
ATOM     18  C   UNL     1       1.100  10.204  21.320  0.00  0.00    +0.000 C 
ATOM     19  C   UNL     1       0.720   9.019  20.416  0.00  0.00    +0.000 C 
BRANCH  17  20
ATOM     20  N   UNL     1      -1.021  11.521  21.516  0.00  0.00    +0.000 NA
ATOM     21  H   UNL     1      -0.949  11.455  22.535  0.00  0.00    +0.000 HD
BRANCH  20  22
ATOM     22  C   UNL     1      -1.820  12.743  21.235  0.00  0.00    +0.000 C 
ATOM     23  C   UNL     1      -3.305  12.714  21.652  0.00  0.00    +0.000 C 
ATOM     24  C   UNL     1      -3.520  12.617  23.162  0.00  0.00    +0.000 C 
ATOM     25  C   UNL     1      -2.805  13.743  23.902  0.00  0.00    +0.000 C 
ATOM     26  C   UNL     1      -1.337  13.841  23.497  0.00  0.00    +0.000 C 
ATOM     27  C   UNL     1      -1.181  13.942  21.977  0.00  0.00    +0.000 C 
ENDBRANCH  20  22
ENDBRANCH  17  20
ENDBRANCH   8  12
BRANCH   1  29
ATOM     28  N   UNL     1       5.362   6.520  15.464  0.00  0.00    +0.000 N 
ATOM     29  C   UNL     1       5.926   5.898  16.544  0.00  0.00    +0.000 C 
ATOM     30  O   UNL     1       7.129   5.663  16.590  0.00  0.00    +0.000 OA
ATOM     31  H   UNL     1       5.958   6.823  14.709  0.00  0.00    +0.000 HD
ATOM     32  H   UNL     1       4.375   6.770  15.454  0.00  0.00    +0.000 HD
ENDBRANCH   1  29
TORSDOF 4
ENDMDL
