MODEL 1
REMARK VINA RESULT:      -7.3      0.000      0.000
REMARK  Name = 
REMARK  9 active torsions:
REMARK  status: ('A' for Active; 'I' for Inactive)
REMARK    1  A    between atoms: C_1  and  O_2
REMARK    2  A    between atoms: O_2  and  C_3
REMARK    3  A    between atoms: C_5  and  O_6
REMARK    4  A    between atoms: O_6  and  C_7
REMARK    5  A    between atoms: C_8  and  O_9
REMARK    6  A    between atoms: O_9  and  C_10
REMARK    7  A    between atoms: C_12  and  C_13
REMARK    8  A    between atoms: C_14  and  C_15
REMARK    9  A    between atoms: C_15  and  C_17
REMARK                            x       y       z     vdW  Elec       q    Type
REMARK                         _______ _______ _______ _____ _____    ______ ____
ROOT
ATOM      1  C   UNL     1       3.204   3.567  18.241  0.00  0.00    +0.000 A 
ATOM      2  C   UNL     1       2.398   3.302  19.352  0.00  0.00    +0.000 A 
ATOM      3  C   UNL     1       1.864   4.331  20.129  0.00  0.00    +0.000 A 
ATOM      4  C   UNL     1       2.185   5.663  19.834  0.00  0.00    +0.000 A 
ATOM      5  C   UNL     1       3.031   5.930  18.742  0.00  0.00    +0.000 A 
ATOM      6  C   UNL     1       3.555   4.893  17.935  0.00  0.00    +0.000 A 
ENDROOT
BRANCH   1   8
ATOM      7  C   UNL     1       3.812   1.288  18.160  0.00  0.00    +0.000 C 
ATOM      8  O   UNL     1       3.728   2.544  17.487  0.00  0.00    +0.000 OA
ENDBRANCH   1   8
BRANCH   3   9
ATOM      9  O   UNL     1       1.121   3.869  21.183  0.00  0.00    +0.000 OA
ATOM     10  C   UNL     1       1.519   2.621  21.733  0.00  0.00    +0.000 C 
ENDBRANCH   3   9
BRANCH   4  11
ATOM     11  O   UNL     1       1.682   6.617  20.675  0.00  0.00    +0.000 OA
ATOM     12  C   UNL     1       1.778   7.980  20.290  0.00  0.00    +0.000 C 
ENDBRANCH   4  11
BRANCH   6  13
ATOM     13  C   UNL     1       4.546   5.264  16.898  0.00  0.00    +0.000 C 
ATOM     14  C   UNL     1       5.823   4.851  16.865  0.00  0.00    +0.000 C 
BRANCH  14  15
ATOM     15  C   UNL     1       6.783   5.441  15.886  0.00  0.00    +0.000 C 
ATOM     16  O   UNL     1       7.578   6.320  16.202  0.00  0.00    +0.000 OA
BRANCH  15  17
ATOM     17  C   UNL     1       6.794   4.875  14.511  0.00  0.00    +0.000 A 
ATOM     18  C   UNL     1       5.911   3.859  14.131  0.00  0.00    +0.000 A 
ATOM     19  C   UNL     1       5.934   3.357  12.826  0.00  0.00    +0.000 A 
ATOM     20  C   UNL     1       6.840   3.874  11.897  0.00  0.00    +0.000 A 
ATOM     21  C   UNL     1       7.712   4.895  12.264  0.00  0.00    +0.000 A 
ATOM     22  C   UNL     1       7.690   5.401  13.567  0.00  0.00    +0.000 A 
ENDBRANCH  15  17
ENDBRANCH  14  15
ENDBRANCH   6  13
TORSDOF 6
ENDMDL
MODEL 2
REMARK VINA RESULT:      -7.3      1.840      3.059
REMARK  Name = 
REMARK  9 active torsions:
REMARK  status: ('A' for Active; 'I' for Inactive)
REMARK    1  A    between atoms: C_1  and  O_2
REMARK    2  A    between atoms: O_2  and  C_3
REMARK    3  A    between atoms: C_5  and  O_6
REMARK    4  A    between atoms: O_6  and  C_7
REMARK    5  A    between atoms: C_8  and  O_9
REMARK    6  A    between atoms: O_9  and  C_10
REMARK    7  A    between atoms: C_12  and  C_13
REMARK    8  A    between atoms: C_14  and  C_15
REMARK    9  A    between atoms: C_15  and  C_17
REMARK                            x       y       z     vdW  Elec       q    Type
REMARK                         _______ _______ _______ _____ _____    ______ ____
ROOT
ATOM      1  C   UNL     1       5.680   4.394  18.450  0.00  0.00    +0.000 A 
ATOM      2  C   UNL     1       4.784   4.566  19.510  0.00  0.00    +0.000 A 
ATOM      3  C   UNL     1       3.416   4.332  19.356  0.00  0.00    +0.000 A 
ATOM      4  C   UNL     1       2.911   3.972  18.098  0.00  0.00    +0.000 A 
ATOM      5  C   UNL     1       3.805   3.841  17.021  0.00  0.00    +0.000 A 
ATOM      6  C   UNL     1       5.196   4.052  17.177  0.00  0.00    +0.000 A 
ENDROOT
BRANCH   1   8
ATOM      7  C   UNL     1       7.378   6.014  18.702  0.00  0.00    +0.000 C 
ATOM      8  O   UNL     1       7.023   4.634  18.614  0.00  0.00    +0.000 OA
ENDBRANCH   1   8
BRANCH   3   9
ATOM      9  O   UNL     1       2.704   4.576  20.499  0.00  0.00    +0.000 OA
ATOM     10  C   UNL     1       2.573   3.487  21.402  0.00  0.00    +0.000 C 
ENDBRANCH   3   9
BRANCH   4  11
ATOM     11  O   UNL     1       1.555   3.822  18.002  0.00  0.00    +0.000 OA
ATOM     12  C   UNL     1       0.975   2.597  18.426  0.00  0.00    +0.000 C 
ENDBRANCH   4  11
BRANCH   6  13
ATOM     13  C   UNL     1       6.035   4.028  15.956  0.00  0.00    +0.000 C 
ATOM     14  C   UNL     1       6.270   5.080  15.156  0.00  0.00    +0.000 C 
BRANCH  14  15
ATOM     15  C   UNL     1       6.969   4.897  13.851  0.00  0.00    +0.000 C 
ATOM     16  O   UNL     1       8.031   5.456  13.596  0.00  0.00    +0.000 OA
BRANCH  15  17
ATOM     17  C   UNL     1       6.366   3.947  12.878  0.00  0.00    +0.000 A 
ATOM     18  C   UNL     1       7.141   2.997  12.206  0.00  0.00    +0.000 A 
ATOM     19  C   UNL     1       6.544   2.107  11.309  0.00  0.00    +0.000 A 
ATOM     20  C   UNL     1       5.166   2.163  11.085  0.00  0.00    +0.000 A 
ATOM     21  C   UNL     1       4.385   3.097  11.762  0.00  0.00    +0.000 A 
ATOM     22  C   UNL     1       4.979   3.986  12.661  0.00  0.00    +0.000 A 
ENDBRANCH  15  17
ENDBRANCH  14  15
ENDBRANCH   6  13
TORSDOF 6
ENDMDL
MODEL 3
REMARK VINA RESULT:      -7.3      1.721      3.648
REMARK  Name = 
REMARK  9 active torsions:
REMARK  status: ('A' for Active; 'I' for Inactive)
REMARK    1  A    between atoms: C_1  and  O_2
REMARK    2  A    between atoms: O_2  and  C_3
REMARK    3  A    between atoms: C_5  and  O_6
REMARK    4  A    between atoms: O_6  and  C_7
REMARK    5  A    between atoms: C_8  and  O_9
REMARK    6  A    between atoms: O_9  and  C_10
REMARK    7  A    between atoms: C_12  and  C_13
REMARK    8  A    between atoms: C_14  and  C_15
REMARK    9  A    between atoms: C_15  and  C_17
REMARK                            x       y       z     vdW  Elec       q    Type
REMARK                         _______ _______ _______ _____ _____    ______ ____
ROOT
ATOM      1  C   UNL     1       6.175   4.976  17.816  0.00  0.00    +0.000 A 
ATOM      2  C   UNL     1       5.312   5.165  18.899  0.00  0.00    +0.000 A 
ATOM      3  C   UNL     1       4.022   4.631  18.908  0.00  0.00    +0.000 A 
ATOM      4  C   UNL     1       3.550   3.937  17.784  0.00  0.00    +0.000 A 
ATOM      5  C   UNL     1       4.403   3.782  16.676  0.00  0.00    +0.000 A 
ATOM      6  C   UNL     1       5.720   4.300  16.672  0.00  0.00    +0.000 A 
ENDROOT
BRANCH   1   8
ATOM      7  C   UNL     1       7.485   6.939  17.829  0.00  0.00    +0.000 C 
ATOM      8  O   UNL     1       7.441   5.512  17.818  0.00  0.00    +0.000 OA
ENDBRANCH   1   8
BRANCH   3   9
ATOM      9  O   UNL     1       3.325   4.943  20.044  0.00  0.00    +0.000 OA
ATOM     10  C   UNL     1       2.506   6.102  19.979  0.00  0.00    +0.000 C 
ENDBRANCH   3   9
BRANCH   4  11
ATOM     11  O   UNL     1       2.256   3.497  17.833  0.00  0.00    +0.000 OA
ATOM     12  C   UNL     1       1.996   2.210  18.371  0.00  0.00    +0.000 C 
ENDBRANCH   4  11
BRANCH   6  13
ATOM     13  C   UNL     1       6.489   4.208  15.408  0.00  0.00    +0.000 C 
ATOM     14  C   UNL     1       6.548   5.164  14.467  0.00  0.00    +0.000 C 
BRANCH  14  15
ATOM     15  C   UNL     1       7.193   4.889  13.150  0.00  0.00    +0.000 C 
ATOM     16  O   UNL     1       8.130   5.559  12.731  0.00  0.00    +0.000 OA
BRANCH  15  17
ATOM     17  C   UNL     1       6.703   3.715  12.379  0.00  0.00    +0.000 A 
ATOM     18  C   UNL     1       7.586   2.771  11.844  0.00  0.00    +0.000 A 
ATOM     19  C   UNL     1       7.095   1.669  11.137  0.00  0.00    +0.000 A 
ATOM     20  C   UNL     1       5.718   1.508  10.967  0.00  0.00    +0.000 A 
ATOM     21  C   UNL     1       4.833   2.436  11.509  0.00  0.00    +0.000 A 
ATOM     22  C   UNL     1       5.320   3.537  12.219  0.00  0.00    +0.000 A 
ENDBRANCH  15  17
ENDBRANCH  14  15
ENDBRANCH   6  13
TORSDOF 6
ENDMDL
MODEL 4
REMARK VINA RESULT:      -7.2      0.199      1.049
REMARK  Name = 
REMARK  9 active torsions:
REMARK  status: ('A' for Active; 'I' for Inactive)
REMARK    1  A    between atoms: C_1  and  O_2
REMARK    2  A    between atoms: O_2  and  C_3
REMARK    3  A    between atoms: C_5  and  O_6
REMARK    4  A    between atoms: O_6  and  C_7
REMARK    5  A    between atoms: C_8  and  O_9
REMARK    6  A    between atoms: O_9  and  C_10
REMARK    7  A    between atoms: C_12  and  C_13
REMARK    8  A    between atoms: C_14  and  C_15
REMARK    9  A    between atoms: C_15  and  C_17
REMARK                            x       y       z     vdW  Elec       q    Type
REMARK                         _______ _______ _______ _____ _____    ______ ____
ROOT
ATOM      1  C   UNL     1       3.301   3.723  18.316  0.00  0.00    +0.000 A 
ATOM      2  C   UNL     1       2.520   3.487  19.452  0.00  0.00    +0.000 A 
ATOM      3  C   UNL     1       1.995   4.536  20.208  0.00  0.00    +0.000 A 
ATOM      4  C   UNL     1       2.298   5.861  19.864  0.00  0.00    +0.000 A 
ATOM      5  C   UNL     1       3.118   6.099  18.746  0.00  0.00    +0.000 A 
ATOM      6  C   UNL     1       3.633   5.041  17.961  0.00  0.00    +0.000 A 
ENDROOT
BRANCH   1   8
ATOM      7  C   UNL     1       3.645   1.392  18.175  0.00  0.00    +0.000 C 
ATOM      8  O   UNL     1       3.817   2.681  17.583  0.00  0.00    +0.000 OA
ENDBRANCH   1   8
BRANCH   3   9
ATOM      9  O   UNL     1       1.279   4.103  21.291  0.00  0.00    +0.000 OA
ATOM     10  C   UNL     1       1.350   2.713  21.576  0.00  0.00    +0.000 C 
ENDBRANCH   3   9
BRANCH   4  11
ATOM     11  O   UNL     1       1.805   6.837  20.685  0.00  0.00    +0.000 OA
ATOM     12  C   UNL     1       1.605   8.137  20.150  0.00  0.00    +0.000 C 
ENDBRANCH   4  11
BRANCH   6  13
ATOM     13  C   UNL     1       4.599   5.386  16.891  0.00  0.00    +0.000 C 
ATOM     14  C   UNL     1       5.844   4.894  16.783  0.00  0.00    +0.000 C 
BRANCH  14  15
ATOM     15  C   UNL     1       6.795   5.457  15.781  0.00  0.00    +0.000 C 
ATOM     16  O   UNL     1       7.614   6.322  16.075  0.00  0.00    +0.000 OA
BRANCH  15  17
ATOM     17  C   UNL     1       6.766   4.882  14.410  0.00  0.00    +0.000 A 
ATOM     18  C   UNL     1       7.662   5.301  13.421  0.00  0.00    +0.000 A 
ATOM     19  C   UNL     1       7.622   4.730  12.146  0.00  0.00    +0.000 A 
ATOM     20  C   UNL     1       6.684   3.735  11.858  0.00  0.00    +0.000 A 
ATOM     21  C   UNL     1       5.798   3.304  12.840  0.00  0.00    +0.000 A 
ATOM     22  C   UNL     1       5.838   3.870  14.117  0.00  0.00    +0.000 A 
ENDBRANCH  15  17
ENDBRANCH  14  15
ENDBRANCH   6  13
TORSDOF 6
ENDMDL
MODEL 5
REMARK VINA RESULT:      -7.0      1.367      1.863
REMARK  Name = 
REMARK  9 active torsions:
REMARK  status: ('A' for Active; 'I' for Inactive)
REMARK    1  A    between atoms: C_1  and  O_2
REMARK    2  A    between atoms: O_2  and  C_3
REMARK    3  A    between atoms: C_5  and  O_6
REMARK    4  A    between atoms: O_6  and  C_7
REMARK    5  A    between atoms: C_8  and  O_9
REMARK    6  A    between atoms: O_9  and  C_10
REMARK    7  A    between atoms: C_12  and  C_13
REMARK    8  A    between atoms: C_14  and  C_15
REMARK    9  A    between atoms: C_15  and  C_17
REMARK                            x       y       z     vdW  Elec       q    Type
REMARK                         _______ _______ _______ _____ _____    ______ ____
ROOT
ATOM      1  C   UNL     1       3.830   3.667  17.825  0.00  0.00    +0.000 A 
ATOM      2  C   UNL     1       2.935   3.938  18.864  0.00  0.00    +0.000 A 
ATOM      3  C   UNL     1       2.538   5.242  19.165  0.00  0.00    +0.000 A 
ATOM      4  C   UNL     1       3.088   6.317  18.453  0.00  0.00    +0.000 A 
ATOM      5  C   UNL     1       4.021   6.049  17.435  0.00  0.00    +0.000 A 
ATOM      6  C   UNL     1       4.408   4.728  17.109  0.00  0.00    +0.000 A 
ENDROOT
BRANCH   1   8
ATOM      7  C   UNL     1       3.634   1.382  18.385  0.00  0.00    +0.000 C 
ATOM      8  O   UNL     1       4.216   2.378  17.543  0.00  0.00    +0.000 OA
ENDBRANCH   1   8
BRANCH   3   9
ATOM      9  O   UNL     1       1.677   5.304  20.227  0.00  0.00    +0.000 OA
ATOM     10  C   UNL     1       0.948   4.119  20.515  0.00  0.00    +0.000 C 
ENDBRANCH   3   9
BRANCH   4  11
ATOM     11  O   UNL     1       2.706   7.571  18.842  0.00  0.00    +0.000 OA
ATOM     12  C   UNL     1       2.220   8.470  17.855  0.00  0.00    +0.000 C 
ENDBRANCH   4  11
BRANCH   6  13
ATOM     13  C   UNL     1       5.499   4.556  16.120  0.00  0.00    +0.000 C 
ATOM     14  C   UNL     1       5.685   5.319  15.031  0.00  0.00    +0.000 C 
BRANCH  14  15
ATOM     15  C   UNL     1       6.697   4.936  14.004  0.00  0.00    +0.000 C 
ATOM     16  O   UNL     1       7.840   5.379  14.019  0.00  0.00    +0.000 OA
BRANCH  15  17
ATOM     17  C   UNL     1       6.291   3.933  12.983  0.00  0.00    +0.000 A 
ATOM     18  C   UNL     1       4.951   3.755  12.624  0.00  0.00    +0.000 A 
ATOM     19  C   UNL     1       4.602   2.815  11.650  0.00  0.00    +0.000 A 
ATOM     20  C   UNL     1       5.595   2.052  11.030  0.00  0.00    +0.000 A 
ATOM     21  C   UNL     1       6.932   2.234  11.373  0.00  0.00    +0.000 A 
ATOM     22  C   UNL     1       7.285   3.175  12.344  0.00  0.00    +0.000 A 
ENDBRANCH  15  17
ENDBRANCH  14  15
ENDBRANCH   6  13
TORSDOF 6
ENDMDL
MODEL 6
REMARK VINA RESULT:      -7.0      1.347      1.983
REMARK  Name = 
REMARK  9 active torsions:
REMARK  status: ('A' for Active; 'I' for Inactive)
REMARK    1  A    between atoms: C_1  and  O_2
REMARK    2  A    between atoms: O_2  and  C_3
REMARK    3  A    between atoms: C_5  and  O_6
REMARK    4  A    between atoms: O_6  and  C_7
REMARK    5  A    between atoms: C_8  and  O_9
REMARK    6  A    between atoms: O_9  and  C_10
REMARK    7  A    between atoms: C_12  and  C_13
REMARK    8  A    between atoms: C_14  and  C_15
REMARK    9  A    between atoms: C_15  and  C_17
REMARK                            x       y       z     vdW  Elec       q    Type
REMARK                         _______ _______ _______ _____ _____    ______ ____
ROOT
ATOM      1  C   UNL     1       3.750   3.808  17.818  0.00  0.00    +0.000 A 
ATOM      2  C   UNL     1       2.791   4.016  18.815  0.00  0.00    +0.000 A 
ATOM      3  C   UNL     1       2.336   5.296  19.136  0.00  0.00    +0.000 A 
ATOM      4  C   UNL     1       2.888   6.411  18.490  0.00  0.00    +0.000 A 
ATOM      5  C   UNL     1       3.882   6.208  17.517  0.00  0.00    +0.000 A 
ATOM      6  C   UNL     1       4.330   4.911  17.170  0.00  0.00    +0.000 A 
ENDROOT
BRANCH   1   8
ATOM      7  C   UNL     1       3.604   1.502  18.295  0.00  0.00    +0.000 C 
ATOM      8  O   UNL     1       4.193   2.543  17.516  0.00  0.00    +0.000 OA
ENDBRANCH   1   8
BRANCH   3   9
ATOM      9  O   UNL     1       1.417   5.294  20.151  0.00  0.00    +0.000 OA
ATOM     10  C   UNL     1       1.121   4.029  20.728  0.00  0.00    +0.000 C 
ENDBRANCH   3   9
BRANCH   4  11
ATOM     11  O   UNL     1       2.444   7.639  18.899  0.00  0.00    +0.000 OA
ATOM     12  C   UNL     1       2.323   8.673  17.933  0.00  0.00    +0.000 C 
ENDBRANCH   4  11
BRANCH   6  13
ATOM     13  C   UNL     1       5.478   4.808  16.238  0.00  0.00    +0.000 C 
ATOM     14  C   UNL     1       5.477   5.219  14.960  0.00  0.00    +0.000 C 
BRANCH  14  15
ATOM     15  C   UNL     1       6.619   4.889  14.059  0.00  0.00    +0.000 C 
ATOM     16  O   UNL     1       7.738   5.363  14.226  0.00  0.00    +0.000 OA
BRANCH  15  17
ATOM     17  C   UNL     1       6.374   3.901  12.975  0.00  0.00    +0.000 A 
ATOM     18  C   UNL     1       7.429   3.273  12.305  0.00  0.00    +0.000 A 
ATOM     19  C   UNL     1       7.168   2.335  11.301  0.00  0.00    +0.000 A 
ATOM     20  C   UNL     1       5.848   2.022  10.968  0.00  0.00    +0.000 A 
ATOM     21  C   UNL     1       4.793   2.633  11.640  0.00  0.00    +0.000 A 
ATOM     22  C   UNL     1       5.051   3.568  12.646  0.00  0.00    +0.000 A 
ENDBRANCH  15  17
ENDBRANCH  14  15
ENDBRANCH   6  13
TORSDOF 6
ENDMDL
MODEL 7
REMARK VINA RESULT:      -7.0      2.632      8.096
REMARK  Name = 
REMARK  9 active torsions:
REMARK  status: ('A' for Active; 'I' for Inactive)
REMARK    1  A    between atoms: C_1  and  O_2
REMARK    2  A    between atoms: O_2  and  C_3
REMARK    3  A    between atoms: C_5  and  O_6
REMARK    4  A    between atoms: O_6  and  C_7
REMARK    5  A    between atoms: C_8  and  O_9
REMARK    6  A    between atoms: O_9  and  C_10
REMARK    7  A    between atoms: C_12  and  C_13
REMARK    8  A    between atoms: C_14  and  C_15
REMARK    9  A    between atoms: C_15  and  C_17
REMARK                            x       y       z     vdW  Elec       q    Type
REMARK                         _______ _______ _______ _____ _____    ______ ____
ROOT
ATOM      1  C   UNL     1       3.019   5.627  17.767  0.00  0.00    +0.000 A 
ATOM      2  C   UNL     1       4.032   4.730  17.412  0.00  0.00    +0.000 A 
ATOM      3  C   UNL     1       5.316   5.169  17.085  0.00  0.00    +0.000 A 
ATOM      4  C   UNL     1       5.592   6.544  17.052  0.00  0.00    +0.000 A 
ATOM      5  C   UNL     1       4.563   7.449  17.368  0.00  0.00    +0.000 A 
ATOM      6  C   UNL     1       3.267   7.009  17.724  0.00  0.00    +0.000 A 
ENDROOT
BRANCH   1   8
ATOM      7  C   UNL     1       1.622   3.760  18.135  0.00  0.00    +0.000 C 
ATOM      8  O   UNL     1       1.757   5.181  18.081  0.00  0.00    +0.000 OA
ENDBRANCH   1   8
BRANCH   3   9
ATOM      9  O   UNL     1       6.157   4.145  16.744  0.00  0.00    +0.000 OA
ATOM     10  C   UNL     1       6.129   3.734  15.385  0.00  0.00    +0.000 C 
ENDBRANCH   3   9
BRANCH   4  11
ATOM     11  O   UNL     1       6.851   6.907  16.661  0.00  0.00    +0.000 OA
ATOM     12  C   UNL     1       7.665   7.628  17.575  0.00  0.00    +0.000 C 
ENDBRANCH   4  11
BRANCH   6  13
ATOM     13  C   UNL     1       2.216   8.039  17.901  0.00  0.00    +0.000 C 
ATOM     14  C   UNL     1       1.884   8.614  19.069  0.00  0.00    +0.000 C 
BRANCH  14  15
ATOM     15  C   UNL     1       0.683   9.493  19.163  0.00  0.00    +0.000 C 
ATOM     16  O   UNL     1       0.103   9.914  18.167  0.00  0.00    +0.000 OA
BRANCH  15  17
ATOM     17  C   UNL     1       0.159   9.795  20.522  0.00  0.00    +0.000 A 
ATOM     18  C   UNL     1       0.138   8.825  21.530  0.00  0.00    +0.000 A 
ATOM     19  C   UNL     1      -0.346   9.142  22.803  0.00  0.00    +0.000 A 
ATOM     20  C   UNL     1      -0.806  10.434  23.071  0.00  0.00    +0.000 A 
ATOM     21  C   UNL     1      -0.774  11.408  22.077  0.00  0.00    +0.000 A 
ATOM     22  C   UNL     1      -0.289  11.095  20.805  0.00  0.00    +0.000 A 
ENDBRANCH  15  17
ENDBRANCH  14  15
ENDBRANCH   6  13
TORSDOF 6
ENDMDL
MODEL 8
REMARK VINA RESULT:      -6.9      1.686      7.471
REMARK  Name = 
REMARK  9 active torsions:
REMARK  status: ('A' for Active; 'I' for Inactive)
REMARK    1  A    between atoms: C_1  and  O_2
REMARK    2  A    between atoms: O_2  and  C_3
REMARK    3  A    between atoms: C_5  and  O_6
REMARK    4  A    between atoms: O_6  and  C_7
REMARK    5  A    between atoms: C_8  and  O_9
REMARK    6  A    between atoms: O_9  and  C_10
REMARK    7  A    between atoms: C_12  and  C_13
REMARK    8  A    between atoms: C_14  and  C_15
REMARK    9  A    between atoms: C_15  and  C_17
REMARK                            x       y       z     vdW  Elec       q    Type
REMARK                         _______ _______ _______ _____ _____    ______ ____
ROOT
ATOM      1  C   UNL     1       4.388   4.490  16.917  0.00  0.00    +0.000 A 
ATOM      2  C   UNL     1       5.266   4.465  15.829  0.00  0.00    +0.000 A 
ATOM      3  C   UNL     1       6.389   5.291  15.775  0.00  0.00    +0.000 A 
ATOM      4  C   UNL     1       6.621   6.214  16.805  0.00  0.00    +0.000 A 
ATOM      5  C   UNL     1       5.717   6.272  17.880  0.00  0.00    +0.000 A 
ATOM      6  C   UNL     1       4.590   5.419  17.952  0.00  0.00    +0.000 A 
ENDROOT
BRANCH   1   8
ATOM      7  C   UNL     1       3.470   2.446  17.657  0.00  0.00    +0.000 C 
ATOM      8  O   UNL     1       3.283   3.675  16.954  0.00  0.00    +0.000 OA
ENDBRANCH   1   8
BRANCH   3   9
ATOM      9  O   UNL     1       7.109   5.135  14.621  0.00  0.00    +0.000 OA
ATOM     10  C   UNL     1       6.600   4.196  13.685  0.00  0.00    +0.000 C 
ENDBRANCH   3   9
BRANCH   4  11
ATOM     11  O   UNL     1       7.703   7.038  16.658  0.00  0.00    +0.000 OA
ATOM     12  C   UNL     1       7.855   8.126  17.558  0.00  0.00    +0.000 C 
ENDBRANCH   4  11
BRANCH   6  13
ATOM     13  C   UNL     1       3.622   5.650  19.050  0.00  0.00    +0.000 C 
ATOM     14  C   UNL     1       2.601   6.522  19.011  0.00  0.00    +0.000 C 
BRANCH  14  15
ATOM     15  C   UNL     1       1.810   6.813  20.242  0.00  0.00    +0.000 C 
ATOM     16  O   UNL     1       1.583   5.956  21.089  0.00  0.00    +0.000 OA
BRANCH  15  17
ATOM     17  C   UNL     1       1.355   8.214  20.448  0.00  0.00    +0.000 A 
ATOM     18  C   UNL     1       0.966   8.679  21.708  0.00  0.00    +0.000 A 
ATOM     19  C   UNL     1       0.558  10.007  21.875  0.00  0.00    +0.000 A 
ATOM     20  C   UNL     1       0.541  10.872  20.779  0.00  0.00    +0.000 A 
ATOM     21  C   UNL     1       0.940  10.420  19.524  0.00  0.00    +0.000 A 
ATOM     22  C   UNL     1       1.351   9.095  19.355  0.00  0.00    +0.000 A 
ENDBRANCH  15  17
ENDBRANCH  14  15
ENDBRANCH   6  13
TORSDOF 6
ENDMDL
MODEL 9
REMARK VINA RESULT:      -6.9      1.722      3.034
REMARK  Name = 
REMARK  9 active torsions:
REMARK  status: ('A' for Active; 'I' for Inactive)
REMARK    1  A    between atoms: C_1  and  O_2
REMARK    2  A    between atoms: O_2  and  C_3
REMARK    3  A    between atoms: C_5  and  O_6
REMARK    4  A    between atoms: O_6  and  C_7
REMARK    5  A    between atoms: C_8  and  O_9
REMARK    6  A    between atoms: O_9  and  C_10
REMARK    7  A    between atoms: C_12  and  C_13
REMARK    8  A    between atoms: C_14  and  C_15
REMARK    9  A    between atoms: C_15  and  C_17
REMARK                            x       y       z     vdW  Elec       q    Type
REMARK                         _______ _______ _______ _____ _____    ______ ____
ROOT
ATOM      1  C   UNL     1       5.207   5.522  18.436  0.00  0.00    +0.000 A 
ATOM      2  C   UNL     1       4.170   5.603  19.369  0.00  0.00    +0.000 A 
ATOM      3  C   UNL     1       2.962   4.930  19.181  0.00  0.00    +0.000 A 
ATOM      4  C   UNL     1       2.751   4.199  18.003  0.00  0.00    +0.000 A 
ATOM      5  C   UNL     1       3.777   4.150  17.043  0.00  0.00    +0.000 A 
ATOM      6  C   UNL     1       5.014   4.810  17.240  0.00  0.00    +0.000 A 
ENDROOT
BRANCH   1   8
ATOM      7  C   UNL     1       7.316   5.535  19.495  0.00  0.00    +0.000 C 
ATOM      8  O   UNL     1       6.390   6.195  18.631  0.00  0.00    +0.000 OA
ENDBRANCH   1   8
BRANCH   3   9
ATOM      9  O   UNL     1       2.066   5.153  20.192  0.00  0.00    +0.000 OA
ATOM     10  C   UNL     1       2.168   4.297  21.322  0.00  0.00    +0.000 C 
ENDBRANCH   3   9
BRANCH   4  11
ATOM     11  O   UNL     1       1.522   3.618  17.853  0.00  0.00    +0.000 OA
ATOM     12  C   UNL     1       1.296   2.345  18.438  0.00  0.00    +0.000 C 
ENDBRANCH   4  11
BRANCH   6  13
ATOM     13  C   UNL     1       5.976   4.817  16.113  0.00  0.00    +0.000 C 
ATOM     14  C   UNL     1       5.649   4.933  14.816  0.00  0.00    +0.000 C 
BRANCH  14  15
ATOM     15  C   UNL     1       6.679   4.732  13.756  0.00  0.00    +0.000 C 
ATOM     16  O   UNL     1       7.728   5.367  13.739  0.00  0.00    +0.000 OA
BRANCH  15  17
ATOM     17  C   UNL     1       6.423   3.674  12.743  0.00  0.00    +0.000 A 
ATOM     18  C   UNL     1       5.123   3.292  12.397  0.00  0.00    +0.000 A 
ATOM     19  C   UNL     1       4.912   2.305  11.429  0.00  0.00    +0.000 A 
ATOM     20  C   UNL     1       6.005   1.700  10.803  0.00  0.00    +0.000 A 
ATOM     21  C   UNL     1       7.301   2.084  11.133  0.00  0.00    +0.000 A 
ATOM     22  C   UNL     1       7.515   3.073  12.097  0.00  0.00    +0.000 A 
ENDBRANCH  15  17
ENDBRANCH  14  15
ENDBRANCH   6  13
TORSDOF 6
ENDMDL
