MODEL 1
REMARK VINA RESULT:      -7.6      0.000      0.000
REMARK  Name = 
REMARK  4 active torsions:
REMARK  status: ('A' for Active; 'I' for Inactive)
REMARK    1  A    between atoms: C_1  and  C_2
REMARK    2  A    between atoms: N_5  and  C_6
REMARK    3  A    between atoms: C_6  and  C_7
REMARK    4  A    between atoms: C_13  and  C_15
REMARK                            x       y       z     vdW  Elec       q    Type
REMARK                         _______ _______ _______ _____ _____    ______ ____
ROOT
ATOM      1  C   UNL     1       2.021   6.339  19.309  0.00  0.00    +0.000 C 
ATOM      2  C   UNL     1       1.550   5.511  20.541  0.00  0.00    +0.000 C 
ATOM      3  C   UNL     1       1.276   4.046  20.249  0.00  0.00    +0.000 C 
ATOM      4  C   UNL     1       2.468   3.428  19.549  0.00  0.00    +0.000 C 
ATOM      5  C   UNL     1       2.806   4.195  18.284  0.00  0.00    +0.000 C 
ATOM      6  N   UNL     1       3.072   5.619  18.514  0.00  0.00    +0.000 N 
ATOM      7  C   UNL     1       3.992   6.348  17.717  0.00  0.00    +0.000 C 
ATOM      8  O   UNL     1       4.036   7.574  17.686  0.00  0.00    +0.000 OA
ENDROOT
BRANCH   7   9
ATOM      9  C   UNL     1       5.006   5.648  16.887  0.00  0.00    +0.000 A 
ATOM     10  C   UNL     1       4.826   5.470  15.506  0.00  0.00    +0.000 A 
ATOM     11  C   UNL     1       5.769   4.766  14.739  0.00  0.00    +0.000 A 
ATOM     12  C   UNL     1       6.952   4.312  15.321  0.00  0.00    +0.000 A 
ATOM     13  C   UNL     1       7.152   4.579  16.657  0.00  0.00    +0.000 A 
ATOM     14  C   UNL     1       6.210   5.223  17.435  0.00  0.00    +0.000 A 
ATOM     15  O   UNL     1       6.632   5.342  18.727  0.00  0.00    +0.000 OA
ATOM     16  C   UNL     1       7.962   4.794  18.651  0.00  0.00    +0.000 C 
ATOM     17  O   UNL     1       8.276   4.250  17.354  0.00  0.00    +0.000 OA
ENDBRANCH   7   9
BRANCH   1  18
ATOM     18  C   UNL     1       2.312   7.784  19.806  0.00  0.00    +0.000 C 
BRANCH  18  23
ATOM     19  C   UNL     1      -1.240  11.322  19.870  0.00  0.00    +0.000 C 
ATOM     20  C   UNL     1      -0.215  10.353  19.430  0.00  0.00    +0.000 A 
ATOM     21  C   UNL     1       0.210  10.019  18.128  0.00  0.00    +0.000 A 
ATOM     22  N   UNL     1       1.146   9.064  18.119  0.00  0.00    +0.000 NA
ATOM     23  N   UNL     1       1.359   8.810  19.430  0.00  0.00    +0.000 N 
ATOM     24  C   UNL     1       0.553   9.553  20.241  0.00  0.00    +0.000 A 
ENDBRANCH  18  23
ENDBRANCH   1  18
TORSDOF 3
ENDMDL
MODEL 2
REMARK VINA RESULT:      -7.5      0.922      1.212
REMARK  Name = 
REMARK  4 active torsions:
REMARK  status: ('A' for Active; 'I' for Inactive)
REMARK    1  A    between atoms: C_1  and  C_2
REMARK    2  A    between atoms: N_5  and  C_6
REMARK    3  A    between atoms: C_6  and  C_7
REMARK    4  A    between atoms: C_13  and  C_15
REMARK                            x       y       z     vdW  Elec       q    Type
REMARK                         _______ _______ _______ _____ _____    ______ ____
ROOT
ATOM      1  C   UNL     1       2.090   6.520  19.210  0.00  0.00    +0.000 C 
ATOM      2  C   UNL     1       1.709   5.844  20.559  0.00  0.00    +0.000 C 
ATOM      3  C   UNL     1       1.492   4.343  20.472  0.00  0.00    +0.000 C 
ATOM      4  C   UNL     1       2.681   3.686  19.804  0.00  0.00    +0.000 C 
ATOM      5  C   UNL     1       2.931   4.294  18.435  0.00  0.00    +0.000 C 
ATOM      6  N   UNL     1       3.140   5.746  18.467  0.00  0.00    +0.000 N 
ATOM      7  C   UNL     1       3.992   6.400  17.540  0.00  0.00    +0.000 C 
ATOM      8  O   UNL     1       3.977   7.612  17.348  0.00  0.00    +0.000 OA
ENDROOT
BRANCH   7   9
ATOM      9  C   UNL     1       5.003   5.638  16.761  0.00  0.00    +0.000 A 
ATOM     10  C   UNL     1       4.831   5.382  15.392  0.00  0.00    +0.000 A 
ATOM     11  C   UNL     1       5.770   4.621  14.676  0.00  0.00    +0.000 A 
ATOM     12  C   UNL     1       6.942   4.186  15.294  0.00  0.00    +0.000 A 
ATOM     13  C   UNL     1       7.135   4.529  16.613  0.00  0.00    +0.000 A 
ATOM     14  C   UNL     1       6.196   5.230  17.344  0.00  0.00    +0.000 A 
ATOM     15  O   UNL     1       6.610   5.420  18.630  0.00  0.00    +0.000 OA
ATOM     16  C   UNL     1       7.933   4.851  18.598  0.00  0.00    +0.000 C 
ATOM     17  O   UNL     1       8.249   4.227  17.338  0.00  0.00    +0.000 OA
ENDBRANCH   7   9
BRANCH   1  18
ATOM     18  C   UNL     1       2.334   8.028  19.501  0.00  0.00    +0.000 C 
BRANCH  18  23
ATOM     19  C   UNL     1      -0.547   9.767  23.218  0.00  0.00    +0.000 C 
ATOM     20  C   UNL     1       0.025   9.480  21.886  0.00  0.00    +0.000 A 
ATOM     21  C   UNL     1      -0.423   9.873  20.608  0.00  0.00    +0.000 A 
ATOM     22  N   UNL     1       0.342   9.393  19.623  0.00  0.00    +0.000 NA
ATOM     23  N   UNL     1       1.319   8.720  20.272  0.00  0.00    +0.000 N 
ATOM     24  C   UNL     1       1.153   8.740  21.625  0.00  0.00    +0.000 A 
ENDBRANCH  18  23
ENDBRANCH   1  18
TORSDOF 3
ENDMDL
MODEL 3
REMARK VINA RESULT:      -7.4      1.039      1.337
REMARK  Name = 
REMARK  4 active torsions:
REMARK  status: ('A' for Active; 'I' for Inactive)
REMARK    1  A    between atoms: C_1  and  C_2
REMARK    2  A    between atoms: N_5  and  C_6
REMARK    3  A    between atoms: C_6  and  C_7
REMARK    4  A    between atoms: C_13  and  C_15
REMARK                            x       y       z     vdW  Elec       q    Type
REMARK                         _______ _______ _______ _____ _____    ______ ____
ROOT
ATOM      1  C   UNL     1       1.821   5.326  19.572  0.00  0.00    +0.000 C 
ATOM      2  C   UNL     1       1.222   4.204  20.469  0.00  0.00    +0.000 C 
ATOM      3  C   UNL     1       0.831   2.940  19.721  0.00  0.00    +0.000 C 
ATOM      4  C   UNL     1       1.993   2.458  18.879  0.00  0.00    +0.000 C 
ATOM      5  C   UNL     1       2.456   3.548  17.929  0.00  0.00    +0.000 C 
ATOM      6  N   UNL     1       2.839   4.793  18.605  0.00  0.00    +0.000 N 
ATOM      7  C   UNL     1       3.857   5.640  18.096  0.00  0.00    +0.000 C 
ATOM      8  O   UNL     1       4.011   6.802  18.457  0.00  0.00    +0.000 OA
ENDROOT
BRANCH   7   9
ATOM      9  C   UNL     1       4.841   5.140  17.102  0.00  0.00    +0.000 A 
ATOM     10  C   UNL     1       4.512   5.019  15.742  0.00  0.00    +0.000 A 
ATOM     11  C   UNL     1       5.434   4.501  14.819  0.00  0.00    +0.000 A 
ATOM     12  C   UNL     1       6.732   4.186  15.221  0.00  0.00    +0.000 A 
ATOM     13  C   UNL     1       7.063   4.401  16.540  0.00  0.00    +0.000 A 
ATOM     14  C   UNL     1       6.150   4.858  17.470  0.00  0.00    +0.000 A 
ATOM     15  O   UNL     1       6.714   4.961  18.708  0.00  0.00    +0.000 OA
ATOM     16  C   UNL     1       8.085   4.613  18.435  0.00  0.00    +0.000 C 
ATOM     17  O   UNL     1       8.301   4.195  17.073  0.00  0.00    +0.000 OA
ENDBRANCH   7   9
BRANCH   1  18
ATOM     18  C   UNL     1       2.218   6.504  20.507  0.00  0.00    +0.000 C 
BRANCH  18  23
ATOM     19  C   UNL     1       0.448  10.902  18.874  0.00  0.00    +0.000 C 
ATOM     20  C   UNL     1       0.692   9.683  19.672  0.00  0.00    +0.000 A 
ATOM     21  C   UNL     1       0.142   9.289  20.909  0.00  0.00    +0.000 A 
ATOM     22  N   UNL     1       0.631   8.124  21.345  0.00  0.00    +0.000 NA
ATOM     23  N   UNL     1       1.471   7.739  20.358  0.00  0.00    +0.000 N 
ATOM     24  C   UNL     1       1.543   8.653  19.349  0.00  0.00    +0.000 A 
ENDBRANCH  18  23
ENDBRANCH   1  18
TORSDOF 3
ENDMDL
MODEL 4
REMARK VINA RESULT:      -7.4      3.774      7.213
REMARK  Name = 
REMARK  4 active torsions:
REMARK  status: ('A' for Active; 'I' for Inactive)
REMARK    1  A    between atoms: C_1  and  C_2
REMARK    2  A    between atoms: N_5  and  C_6
REMARK    3  A    between atoms: C_6  and  C_7
REMARK    4  A    between atoms: C_13  and  C_15
REMARK                            x       y       z     vdW  Elec       q    Type
REMARK                         _______ _______ _______ _____ _____    ______ ____
ROOT
ATOM      1  C   UNL     1       5.993   4.744  16.661  0.00  0.00    +0.000 C 
ATOM      2  C   UNL     1       7.488   4.953  17.040  0.00  0.00    +0.000 C 
ATOM      3  C   UNL     1       7.717   5.914  18.194  0.00  0.00    +0.000 C 
ATOM      4  C   UNL     1       6.864   5.511  19.378  0.00  0.00    +0.000 C 
ATOM      5  C   UNL     1       5.398   5.449  18.987  0.00  0.00    +0.000 C 
ATOM      6  N   UNL     1       5.127   4.537  17.870  0.00  0.00    +0.000 N 
ATOM      7  C   UNL     1       3.904   3.825  17.763  0.00  0.00    +0.000 C 
ATOM      8  O   UNL     1       3.524   3.287  16.728  0.00  0.00    +0.000 OA
ENDROOT
BRANCH   7   9
ATOM      9  C   UNL     1       3.014   3.655  18.940  0.00  0.00    +0.000 A 
ATOM     10  C   UNL     1       1.711   4.177  18.954  0.00  0.00    +0.000 A 
ATOM     11  C   UNL     1       0.894   4.050  20.089  0.00  0.00    +0.000 A 
ATOM     12  C   UNL     1       1.330   3.318  21.193  0.00  0.00    +0.000 A 
ATOM     13  C   UNL     1       2.576   2.734  21.122  0.00  0.00    +0.000 A 
ATOM     14  C   UNL     1       3.411   2.896  20.033  0.00  0.00    +0.000 A 
ATOM     15  O   UNL     1       4.595   2.244  20.217  0.00  0.00    +0.000 OA
ATOM     16  C   UNL     1       4.375   1.589  21.481  0.00  0.00    +0.000 C 
ATOM     17  O   UNL     1       3.120   1.946  22.092  0.00  0.00    +0.000 OA
ENDBRANCH   7   9
BRANCH   1  18
ATOM     18  C   UNL     1       5.948   3.692  15.516  0.00  0.00    +0.000 C 
BRANCH  18  23
ATOM     19  C   UNL     1       8.311   6.149  11.839  0.00  0.00    +0.000 C 
ATOM     20  C   UNL     1       7.509   5.168  12.597  0.00  0.00    +0.000 A 
ATOM     21  C   UNL     1       6.794   4.042  12.140  0.00  0.00    +0.000 A 
ATOM     22  N   UNL     1       6.154   3.402  13.124  0.00  0.00    +0.000 NA
ATOM     23  N   UNL     1       6.496   4.094  14.234  0.00  0.00    +0.000 N 
ATOM     24  C   UNL     1       7.293   5.164  13.954  0.00  0.00    +0.000 A 
ENDBRANCH  18  23
ENDBRANCH   1  18
TORSDOF 3
ENDMDL
MODEL 5
REMARK VINA RESULT:      -7.2      3.232      6.304
REMARK  Name = 
REMARK  4 active torsions:
REMARK  status: ('A' for Active; 'I' for Inactive)
REMARK    1  A    between atoms: C_1  and  C_2
REMARK    2  A    between atoms: N_5  and  C_6
REMARK    3  A    between atoms: C_6  and  C_7
REMARK    4  A    between atoms: C_13  and  C_15
REMARK                            x       y       z     vdW  Elec       q    Type
REMARK                         _______ _______ _______ _____ _____    ______ ____
ROOT
ATOM      1  C   UNL     1       7.074   4.587  17.118  0.00  0.00    +0.000 C 
ATOM      2  C   UNL     1       7.334   5.347  15.785  0.00  0.00    +0.000 C 
ATOM      3  C   UNL     1       6.706   4.704  14.560  0.00  0.00    +0.000 C 
ATOM      4  C   UNL     1       5.235   4.446  14.809  0.00  0.00    +0.000 C 
ATOM      5  C   UNL     1       5.043   3.591  16.049  0.00  0.00    +0.000 C 
ATOM      6  N   UNL     1       5.639   4.168  17.259  0.00  0.00    +0.000 N 
ATOM      7  C   UNL     1       5.075   3.961  18.544  0.00  0.00    +0.000 C 
ATOM      8  O   UNL     1       5.680   4.177  19.590  0.00  0.00    +0.000 OA
ENDROOT
BRANCH   7   9
ATOM      9  C   UNL     1       3.671   3.499  18.698  0.00  0.00    +0.000 A 
ATOM     10  C   UNL     1       3.248   2.261  18.189  0.00  0.00    +0.000 A 
ATOM     11  C   UNL     1       1.908   1.855  18.299  0.00  0.00    +0.000 A 
ATOM     12  C   UNL     1       0.991   2.634  19.003  0.00  0.00    +0.000 A 
ATOM     13  C   UNL     1       1.449   3.800  19.576  0.00  0.00    +0.000 A 
ATOM     14  C   UNL     1       2.751   4.238  19.430  0.00  0.00    +0.000 A 
ATOM     15  O   UNL     1       2.947   5.430  20.065  0.00  0.00    +0.000 OA
ATOM     16  C   UNL     1       1.668   5.637  20.695  0.00  0.00    +0.000 C 
ATOM     17  O   UNL     1       0.692   4.639  20.337  0.00  0.00    +0.000 OA
ENDBRANCH   7   9
BRANCH   1  18
ATOM     18  C   UNL     1       7.730   5.416  18.259  0.00  0.00    +0.000 C 
BRANCH  18  23
ATOM     19  C   UNL     1       8.897  10.281  18.601  0.00  0.00    +0.000 C 
ATOM     20  C   UNL     1       8.261   9.001  18.227  0.00  0.00    +0.000 A 
ATOM     21  C   UNL     1       7.163   8.753  17.379  0.00  0.00    +0.000 A 
ATOM     22  N   UNL     1       6.848   7.456  17.306  0.00  0.00    +0.000 NA
ATOM     23  N   UNL     1       7.780   6.855  18.079  0.00  0.00    +0.000 N 
ATOM     24  C   UNL     1       8.633   7.749  18.656  0.00  0.00    +0.000 A 
ENDBRANCH  18  23
ENDBRANCH   1  18
TORSDOF 3
ENDMDL
MODEL 6
REMARK VINA RESULT:      -7.0      2.268      6.590
REMARK  Name = 
REMARK  4 active torsions:
REMARK  status: ('A' for Active; 'I' for Inactive)
REMARK    1  A    between atoms: C_1  and  C_2
REMARK    2  A    between atoms: N_5  and  C_6
REMARK    3  A    between atoms: C_6  and  C_7
REMARK    4  A    between atoms: C_13  and  C_15
REMARK                            x       y       z     vdW  Elec       q    Type
REMARK                         _______ _______ _______ _____ _____    ______ ____
ROOT
ATOM      1  C   UNL     1       3.890   3.635  18.789  0.00  0.00    +0.000 C 
ATOM      2  C   UNL     1       3.331   2.575  17.796  0.00  0.00    +0.000 C 
ATOM      3  C   UNL     1       1.930   2.085  18.120  0.00  0.00    +0.000 C 
ATOM      4  C   UNL     1       0.999   3.265  18.302  0.00  0.00    +0.000 C 
ATOM      5  C   UNL     1       1.524   4.202  19.374  0.00  0.00    +0.000 C 
ATOM      6  N   UNL     1       2.879   4.698  19.109  0.00  0.00    +0.000 N 
ATOM      7  C   UNL     1       3.301   5.987  19.527  0.00  0.00    +0.000 C 
ATOM      8  O   UNL     1       4.478   6.327  19.582  0.00  0.00    +0.000 OA
ENDROOT
BRANCH   7   9
ATOM      9  C   UNL     1       2.312   7.033  19.894  0.00  0.00    +0.000 A 
ATOM     10  C   UNL     1       1.632   7.000  21.122  0.00  0.00    +0.000 A 
ATOM     11  C   UNL     1       0.666   7.969  21.439  0.00  0.00    +0.000 A 
ATOM     12  C   UNL     1       0.432   9.039  20.576  0.00  0.00    +0.000 A 
ATOM     13  C   UNL     1       1.177   9.103  19.420  0.00  0.00    +0.000 A 
ATOM     14  C   UNL     1       2.092   8.129  19.070  0.00  0.00    +0.000 A 
ATOM     15  O   UNL     1       2.677   8.408  17.870  0.00  0.00    +0.000 OA
ATOM     16  C   UNL     1       2.105   9.692  17.557  0.00  0.00    +0.000 C 
ATOM     17  O   UNL     1       1.104  10.111  18.505  0.00  0.00    +0.000 OA
ENDBRANCH   7   9
BRANCH   1  18
ATOM     18  C   UNL     1       5.292   4.064  18.269  0.00  0.00    +0.000 C 
BRANCH  18  23
ATOM     19  C   UNL     1       6.273   3.883  13.355  0.00  0.00    +0.000 C 
ATOM     20  C   UNL     1       5.840   4.326  14.696  0.00  0.00    +0.000 A 
ATOM     21  C   UNL     1       5.302   5.562  15.109  0.00  0.00    +0.000 A 
ATOM     22  N   UNL     1       5.058   5.607  16.422  0.00  0.00    +0.000 NA
ATOM     23  N   UNL     1       5.400   4.373  16.856  0.00  0.00    +0.000 N 
ATOM     24  C   UNL     1       5.885   3.585  15.853  0.00  0.00    +0.000 A 
ENDBRANCH  18  23
ENDBRANCH   1  18
TORSDOF 3
ENDMDL
MODEL 7
REMARK VINA RESULT:      -7.0      3.682      7.156
REMARK  Name = 
REMARK  4 active torsions:
REMARK  status: ('A' for Active; 'I' for Inactive)
REMARK    1  A    between atoms: C_1  and  C_2
REMARK    2  A    between atoms: N_5  and  C_6
REMARK    3  A    between atoms: C_6  and  C_7
REMARK    4  A    between atoms: C_13  and  C_15
REMARK                            x       y       z     vdW  Elec       q    Type
REMARK                         _______ _______ _______ _____ _____    ______ ____
ROOT
ATOM      1  C   UNL     1       5.919   4.941  16.089  0.00  0.00    +0.000 C 
ATOM      2  C   UNL     1       7.279   5.648  16.362  0.00  0.00    +0.000 C 
ATOM      3  C   UNL     1       7.174   6.919  17.186  0.00  0.00    +0.000 C 
ATOM      4  C   UNL     1       6.390   6.650  18.453  0.00  0.00    +0.000 C 
ATOM      5  C   UNL     1       5.020   6.083  18.126  0.00  0.00    +0.000 C 
ATOM      6  N   UNL     1       5.069   4.856  17.323  0.00  0.00    +0.000 N 
ATOM      7  C   UNL     1       4.089   3.838  17.450  0.00  0.00    +0.000 C 
ATOM      8  O   UNL     1       3.928   2.948  16.620  0.00  0.00    +0.000 OA
ENDROOT
BRANCH   7   9
ATOM      9  C   UNL     1       3.207   3.771  18.643  0.00  0.00    +0.000 A 
ATOM     10  C   UNL     1       1.938   4.371  18.652  0.00  0.00    +0.000 A 
ATOM     11  C   UNL     1       1.132   4.340  19.801  0.00  0.00    +0.000 A 
ATOM     12  C   UNL     1       1.539   3.628  20.929  0.00  0.00    +0.000 A 
ATOM     13  C   UNL     1       2.746   2.968  20.867  0.00  0.00    +0.000 A 
ATOM     14  C   UNL     1       3.573   3.034  19.762  0.00  0.00    +0.000 A 
ATOM     15  O   UNL     1       4.719   2.320  19.959  0.00  0.00    +0.000 OA
ATOM     16  C   UNL     1       4.478   1.731  21.251  0.00  0.00    +0.000 C 
ATOM     17  O   UNL     1       3.256   2.188  21.862  0.00  0.00    +0.000 OA
ENDBRANCH   7   9
BRANCH   1  18
ATOM     18  C   UNL     1       6.225   3.639  15.295  0.00  0.00    +0.000 C 
BRANCH  18  23
ATOM     19  C   UNL     1       3.949   3.395  10.834  0.00  0.00    +0.000 C 
ATOM     20  C   UNL     1       4.962   3.531  11.900  0.00  0.00    +0.000 A 
ATOM     21  C   UNL     1       6.357   3.714  11.801  0.00  0.00    +0.000 A 
ATOM     22  N   UNL     1       6.958   3.762  12.994  0.00  0.00    +0.000 NA
ATOM     23  N   UNL     1       5.936   3.654  13.874  0.00  0.00    +0.000 N 
ATOM     24  C   UNL     1       4.731   3.501  13.254  0.00  0.00    +0.000 A 
ENDBRANCH  18  23
ENDBRANCH   1  18
TORSDOF 3
ENDMDL
MODEL 8
REMARK VINA RESULT:      -7.0      2.239      6.420
REMARK  Name = 
REMARK  4 active torsions:
REMARK  status: ('A' for Active; 'I' for Inactive)
REMARK    1  A    between atoms: C_1  and  C_2
REMARK    2  A    between atoms: N_5  and  C_6
REMARK    3  A    between atoms: C_6  and  C_7
REMARK    4  A    between atoms: C_13  and  C_15
REMARK                            x       y       z     vdW  Elec       q    Type
REMARK                         _______ _______ _______ _____ _____    ______ ____
ROOT
ATOM      1  C   UNL     1       3.593   3.547  19.469  0.00  0.00    +0.000 C 
ATOM      2  C   UNL     1       3.070   2.300  18.699  0.00  0.00    +0.000 C 
ATOM      3  C   UNL     1       1.559   2.143  18.704  0.00  0.00    +0.000 C 
ATOM      4  C   UNL     1       0.905   3.429  18.247  0.00  0.00    +0.000 C 
ATOM      5  C   UNL     1       1.348   4.594  19.114  0.00  0.00    +0.000 C 
ATOM      6  N   UNL     1       2.803   4.782  19.146  0.00  0.00    +0.000 N 
ATOM      7  C   UNL     1       3.389   6.066  19.288  0.00  0.00    +0.000 C 
ATOM      8  O   UNL     1       4.563   6.242  19.601  0.00  0.00    +0.000 OA
ENDROOT
BRANCH   7   9
ATOM      9  C   UNL     1       2.604   7.299  19.020  0.00  0.00    +0.000 A 
ATOM     10  C   UNL     1       2.547   7.866  17.737  0.00  0.00    +0.000 A 
ATOM     11  C   UNL     1       1.841   9.057  17.504  0.00  0.00    +0.000 A 
ATOM     12  C   UNL     1       1.100   9.649  18.528  0.00  0.00    +0.000 A 
ATOM     13  C   UNL     1       1.093   9.024  19.755  0.00  0.00    +0.000 A 
ATOM     14  C   UNL     1       1.827   7.882  20.012  0.00  0.00    +0.000 A 
ATOM     15  O   UNL     1       1.675   7.476  21.306  0.00  0.00    +0.000 OA
ATOM     16  C   UNL     1       0.705   8.422  21.796  0.00  0.00    +0.000 C 
ATOM     17  O   UNL     1       0.378   9.446  20.836  0.00  0.00    +0.000 OA
ENDBRANCH   7   9
BRANCH   1  18
ATOM     18  C   UNL     1       5.139   3.580  19.304  0.00  0.00    +0.000 C 
BRANCH  18  23
ATOM     19  C   UNL     1       5.696   4.303  14.374  0.00  0.00    +0.000 C 
ATOM     20  C   UNL     1       5.928   4.253  15.832  0.00  0.00    +0.000 A 
ATOM     21  C   UNL     1       7.076   4.597  16.576  0.00  0.00    +0.000 A 
ATOM     22  N   UNL     1       6.924   4.386  17.887  0.00  0.00    +0.000 NA
ATOM     23  N   UNL     1       5.651   3.944  17.997  0.00  0.00    +0.000 N 
ATOM     24  C   UNL     1       5.031   3.839  16.787  0.00  0.00    +0.000 A 
ENDBRANCH  18  23
ENDBRANCH   1  18
TORSDOF 3
ENDMDL
MODEL 9
REMARK VINA RESULT:      -6.9      3.000      7.317
REMARK  Name = 
REMARK  4 active torsions:
REMARK  status: ('A' for Active; 'I' for Inactive)
REMARK    1  A    between atoms: C_1  and  C_2
REMARK    2  A    between atoms: N_5  and  C_6
REMARK    3  A    between atoms: C_6  and  C_7
REMARK    4  A    between atoms: C_13  and  C_15
REMARK                            x       y       z     vdW  Elec       q    Type
REMARK                         _______ _______ _______ _____ _____    ______ ____
ROOT
ATOM      1  C   UNL     1       6.111   4.639  16.748  0.00  0.00    +0.000 C 
ATOM      2  C   UNL     1       7.609   4.673  17.172  0.00  0.00    +0.000 C 
ATOM      3  C   UNL     1       7.909   5.577  18.355  0.00  0.00    +0.000 C 
ATOM      4  C   UNL     1       6.983   5.246  19.506  0.00  0.00    +0.000 C 
ATOM      5  C   UNL     1       5.531   5.355  19.075  0.00  0.00    +0.000 C 
ATOM      6  N   UNL     1       5.193   4.503  17.929  0.00  0.00    +0.000 N 
ATOM      7  C   UNL     1       3.903   3.934  17.773  0.00  0.00    +0.000 C 
ATOM      8  O   UNL     1       3.496   3.464  16.715  0.00  0.00    +0.000 OA
ENDROOT
BRANCH   7   9
ATOM      9  C   UNL     1       2.966   3.838  18.921  0.00  0.00    +0.000 A 
ATOM     10  C   UNL     1       2.673   2.606  19.527  0.00  0.00    +0.000 A 
ATOM     11  C   UNL     1       1.750   2.521  20.581  0.00  0.00    +0.000 A 
ATOM     12  C   UNL     1       1.177   3.677  21.112  0.00  0.00    +0.000 A 
ATOM     13  C   UNL     1       1.550   4.885  20.565  0.00  0.00    +0.000 A 
ATOM     14  C   UNL     1       2.416   4.979  19.492  0.00  0.00    +0.000 A 
ATOM     15  O   UNL     1       2.603   6.278  19.120  0.00  0.00    +0.000 OA
ATOM     16  C   UNL     1       1.845   6.981  20.123  0.00  0.00    +0.000 C 
ATOM     17  O   UNL     1       1.123   6.101  21.006  0.00  0.00    +0.000 OA
ENDBRANCH   7   9
BRANCH   1  18
ATOM     18  C   UNL     1       5.984   3.624  15.577  0.00  0.00    +0.000 C 
BRANCH  18  23
ATOM     19  C   UNL     1       8.259   6.131  11.878  0.00  0.00    +0.000 C 
ATOM     20  C   UNL     1       7.483   5.134  12.644  0.00  0.00    +0.000 A 
ATOM     21  C   UNL     1       6.781   3.998  12.192  0.00  0.00    +0.000 A 
ATOM     22  N   UNL     1       6.165   3.344  13.182  0.00  0.00    +0.000 NA
ATOM     23  N   UNL     1       6.508   4.039  14.290  0.00  0.00    +0.000 N 
ATOM     24  C   UNL     1       7.285   5.123  14.003  0.00  0.00    +0.000 A 
ENDBRANCH  18  23
ENDBRANCH   1  18
TORSDOF 3
ENDMDL
