MODEL 1
REMARK VINA RESULT:      -7.7      0.000      0.000
REMARK  Name = 
REMARK  3 active torsions:
REMARK  status: ('A' for Active; 'I' for Inactive)
REMARK    1  A    between atoms: O_1  and  C_2
REMARK    2  A    between atoms: C_4  and  C_5
REMARK    3  A    between atoms: C_5  and  N_6
REMARK                            x       y       z     vdW  Elec       q    Type
REMARK                         _______ _______ _______ _____ _____    ______ ____
ROOT
ATOM      1  C   UNL     1       5.398   6.267  16.264  0.00  0.00    +0.000 A 
ATOM      2  C   UNL     1       4.682   5.093  16.457  0.00  0.00    +0.000 A 
ATOM      3  C   UNL     1       5.004   4.317  17.556  0.00  0.00    +0.000 A 
ATOM      4  N   UNL     1       6.009   4.647  18.412  0.00  0.00    +0.000 NA
ATOM      5  C   UNL     1       6.709   5.788  18.217  0.00  0.00    +0.000 A 
ATOM      6  C   UNL     1       7.735   6.161  19.089  0.00  0.00    +0.000 A 
ATOM      7  F   UNL     1       8.056   5.367  20.123  0.00  0.00    +0.000 F 
ATOM      8  C   UNL     1       8.458   7.347  18.941  0.00  0.00    +0.000 A 
ATOM      9  C   UNL     1       8.165   8.200  17.890  0.00  0.00    +0.000 A 
ATOM     10  C   UNL     1       7.157   7.854  16.993  0.00  0.00    +0.000 A 
ATOM     11  C   UNL     1       6.426   6.652  17.144  0.00  0.00    +0.000 A 
ENDROOT
BRANCH   1  12
ATOM     12  O   UNL     1       5.092   7.080  15.203  0.00  0.00    +0.000 OA
ATOM     13  H   UNL     1       4.189   7.419  15.310  0.00  0.00    +0.000 HD
ENDBRANCH   1  12
BRANCH   3  14
ATOM     14  C   UNL     1       4.217   3.060  17.880  0.00  0.00    +0.000 C 
BRANCH  14  15
ATOM     15  N   UNL     1       2.964   3.241  18.674  0.00  0.00    +0.000 NA
ATOM     16  C   UNL     1       3.302   4.097  19.832  0.00  0.00    +0.000 C 
ATOM     17  C   UNL     1       2.228   4.176  20.906  0.00  0.00    +0.000 C 
ATOM     18  C   UNL     1       1.787   2.788  21.300  0.00  0.00    +0.000 C 
ATOM     19  F   UNL     1       0.795   2.867  22.220  0.00  0.00    +0.000 F 
ATOM     20  F   UNL     1       2.813   2.133  21.902  0.00  0.00    +0.000 F 
ATOM     21  C   UNL     1       1.312   2.008  20.101  0.00  0.00    +0.000 C 
ATOM     22  C   UNL     1       2.433   1.924  19.077  0.00  0.00    +0.000 C 
ENDBRANCH  14  15
ENDBRANCH   3  14
TORSDOF 3
ENDMDL
MODEL 2
REMARK VINA RESULT:      -7.6      2.487      6.197
REMARK  Name = 
REMARK  3 active torsions:
REMARK  status: ('A' for Active; 'I' for Inactive)
REMARK    1  A    between atoms: O_1  and  C_2
REMARK    2  A    between atoms: C_4  and  C_5
REMARK    3  A    between atoms: C_5  and  N_6
REMARK                            x       y       z     vdW  Elec       q    Type
REMARK                         _______ _______ _______ _____ _____    ______ ____
ROOT
ATOM      1  C   UNL     1       3.418   2.020  18.241  0.00  0.00    +0.000 A 
ATOM      2  C   UNL     1       4.141   2.504  17.159  0.00  0.00    +0.000 A 
ATOM      3  C   UNL     1       4.129   3.870  16.937  0.00  0.00    +0.000 A 
ATOM      4  N   UNL     1       3.411   4.727  17.711  0.00  0.00    +0.000 NA
ATOM      5  C   UNL     1       2.702   4.251  18.761  0.00  0.00    +0.000 A 
ATOM      6  C   UNL     1       1.967   5.110  19.582  0.00  0.00    +0.000 A 
ATOM      7  F   UNL     1       1.939   6.426  19.318  0.00  0.00    +0.000 F 
ATOM      8  C   UNL     1       1.251   4.661  20.694  0.00  0.00    +0.000 A 
ATOM      9  C   UNL     1       1.250   3.313  21.009  0.00  0.00    +0.000 A 
ATOM     10  C   UNL     1       1.960   2.426  20.203  0.00  0.00    +0.000 A 
ATOM     11  C   UNL     1       2.686   2.881  19.077  0.00  0.00    +0.000 A 
ENDROOT
BRANCH   1  12
ATOM     12  O   UNL     1       3.426   0.676  18.514  0.00  0.00    +0.000 OA
ATOM     13  H   UNL     1       3.254   0.541  19.460  0.00  0.00    +0.000 HD
ENDBRANCH   1  12
BRANCH   3  14
ATOM     14  C   UNL     1       4.956   4.485  15.823  0.00  0.00    +0.000 C 
BRANCH  14  15
ATOM     15  N   UNL     1       6.222   5.168  16.227  0.00  0.00    +0.000 NA
ATOM     16  C   UNL     1       6.884   4.301  17.227  0.00  0.00    +0.000 C 
ATOM     17  C   UNL     1       8.050   4.945  17.962  0.00  0.00    +0.000 C 
ATOM     18  C   UNL     1       7.635   6.285  18.516  0.00  0.00    +0.000 C 
ATOM     19  F   UNL     1       8.692   6.875  19.126  0.00  0.00    +0.000 F 
ATOM     20  F   UNL     1       6.689   6.113  19.476  0.00  0.00    +0.000 F 
ATOM     21  C   UNL     1       7.105   7.183  17.428  0.00  0.00    +0.000 C 
ATOM     22  C   UNL     1       5.919   6.513  16.753  0.00  0.00    +0.000 C 
ENDBRANCH  14  15
ENDBRANCH   3  14
TORSDOF 3
ENDMDL
MODEL 3
REMARK VINA RESULT:      -7.6      4.343      8.562
REMARK  Name = 
REMARK  3 active torsions:
REMARK  status: ('A' for Active; 'I' for Inactive)
REMARK    1  A    between atoms: O_1  and  C_2
REMARK    2  A    between atoms: C_4  and  C_5
REMARK    3  A    between atoms: C_5  and  N_6
REMARK                            x       y       z     vdW  Elec       q    Type
REMARK                         _______ _______ _______ _____ _____    ______ ____
ROOT
ATOM      1  C   UNL     1       7.904   6.262  18.895  0.00  0.00    +0.000 A 
ATOM      2  C   UNL     1       8.400   7.557  18.820  0.00  0.00    +0.000 A 
ATOM      3  C   UNL     1       7.841   8.407  17.881  0.00  0.00    +0.000 A 
ATOM      4  N   UNL     1       6.866   8.003  17.023  0.00  0.00    +0.000 NA
ATOM      5  C   UNL     1       6.390   6.739  17.094  0.00  0.00    +0.000 A 
ATOM      6  C   UNL     1       5.378   6.301  16.236  0.00  0.00    +0.000 A 
ATOM      7  F   UNL     1       4.884   7.135  15.305  0.00  0.00    +0.000 F 
ATOM      8  C   UNL     1       4.837   5.015  16.300  0.00  0.00    +0.000 A 
ATOM      9  C   UNL     1       5.313   4.119  17.242  0.00  0.00    +0.000 A 
ATOM     10  C   UNL     1       6.331   4.517  18.106  0.00  0.00    +0.000 A 
ATOM     11  C   UNL     1       6.878   5.820  18.039  0.00  0.00    +0.000 A 
ENDROOT
BRANCH   1  12
ATOM     12  O   UNL     1       8.410   5.396  19.829  0.00  0.00    +0.000 OA
ATOM     13  H   UNL     1       9.353   5.584  19.962  0.00  0.00    +0.000 HD
ENDBRANCH   1  12
BRANCH   3  14
ATOM     14  C   UNL     1       8.274   9.859  17.790  0.00  0.00    +0.000 C 
BRANCH  14  15
ATOM     15  N   UNL     1       9.516  10.235  18.531  0.00  0.00    +0.000 NA
ATOM     16  C   UNL     1       9.092  10.884  19.791  0.00  0.00    +0.000 C 
ATOM     17  C   UNL     1      10.204  11.582  20.559  0.00  0.00    +0.000 C 
ATOM     18  C   UNL     1      10.966  12.504  19.640  0.00  0.00    +0.000 C 
ATOM     19  F   UNL     1      11.986  13.085  20.319  0.00  0.00    +0.000 F 
ATOM     20  F   UNL     1      10.158  13.516  19.231  0.00  0.00    +0.000 F 
ATOM     21  C   UNL     1      11.503  11.760  18.446  0.00  0.00    +0.000 C 
ATOM     22  C   UNL     1      10.351  11.116  17.691  0.00  0.00    +0.000 C 
ENDBRANCH  14  15
ENDBRANCH   3  14
TORSDOF 3
ENDMDL
MODEL 4
REMARK VINA RESULT:      -7.6      5.081      6.400
REMARK  Name = 
REMARK  3 active torsions:
REMARK  status: ('A' for Active; 'I' for Inactive)
REMARK    1  A    between atoms: O_1  and  C_2
REMARK    2  A    between atoms: C_4  and  C_5
REMARK    3  A    between atoms: C_5  and  N_6
REMARK                            x       y       z     vdW  Elec       q    Type
REMARK                         _______ _______ _______ _____ _____    ______ ____
ROOT
ATOM      1  C   UNL     1       0.904   9.926  18.955  0.00  0.00    +0.000 A 
ATOM      2  C   UNL     1       1.659   8.763  18.876  0.00  0.00    +0.000 A 
ATOM      3  C   UNL     1       1.786   8.000  20.023  0.00  0.00    +0.000 A 
ATOM      4  N   UNL     1       1.234   8.371  21.210  0.00  0.00    +0.000 NA
ATOM      5  C   UNL     1       0.505   9.508  21.285  0.00  0.00    +0.000 A 
ATOM      6  C   UNL     1      -0.086   9.907  22.487  0.00  0.00    +0.000 A 
ATOM      7  F   UNL     1       0.090   9.169  23.595  0.00  0.00    +0.000 F 
ATOM      8  C   UNL     1      -0.874  11.055  22.596  0.00  0.00    +0.000 A 
ATOM      9  C   UNL     1      -1.085  11.849  21.482  0.00  0.00    +0.000 A 
ATOM     10  C   UNL     1      -0.499  11.489  20.270  0.00  0.00    +0.000 A 
ATOM     11  C   UNL     1       0.298  10.326  20.160  0.00  0.00    +0.000 A 
ENDROOT
BRANCH   1  12
ATOM     12  O   UNL     1       0.728  10.697  17.835  0.00  0.00    +0.000 OA
ATOM     13  H   UNL     1       1.584  11.070  17.566  0.00  0.00    +0.000 HD
ENDBRANCH   1  12
BRANCH   3  14
ATOM     14  C   UNL     1       2.529   6.677  19.999  0.00  0.00    +0.000 C 
BRANCH  14  15
ATOM     15  N   UNL     1       1.723   5.462  19.673  0.00  0.00    +0.000 NA
ATOM     16  C   UNL     1       1.800   4.561  20.844  0.00  0.00    +0.000 C 
ATOM     17  C   UNL     1       1.271   3.154  20.607  0.00  0.00    +0.000 C 
ATOM     18  C   UNL     1       1.894   2.570  19.363  0.00  0.00    +0.000 C 
ATOM     19  F   UNL     1       1.380   1.337  19.131  0.00  0.00    +0.000 F 
ATOM     20  F   UNL     1       3.227   2.397  19.555  0.00  0.00    +0.000 F 
ATOM     21  C   UNL     1       1.657   3.458  18.169  0.00  0.00    +0.000 C 
ATOM     22  C   UNL     1       2.239   4.836  18.440  0.00  0.00    +0.000 C 
ENDBRANCH  14  15
ENDBRANCH   3  14
TORSDOF 3
ENDMDL
MODEL 5
REMARK VINA RESULT:      -7.5      3.129      3.926
REMARK  Name = 
REMARK  3 active torsions:
REMARK  status: ('A' for Active; 'I' for Inactive)
REMARK    1  A    between atoms: O_1  and  C_2
REMARK    2  A    between atoms: C_4  and  C_5
REMARK    3  A    between atoms: C_5  and  N_6
REMARK                            x       y       z     vdW  Elec       q    Type
REMARK                         _______ _______ _______ _____ _____    ______ ____
ROOT
ATOM      1  C   UNL     1       6.653   5.531  16.011  0.00  0.00    +0.000 A 
ATOM      2  C   UNL     1       5.615   5.064  16.807  0.00  0.00    +0.000 A 
ATOM      3  C   UNL     1       4.747   4.138  16.255  0.00  0.00    +0.000 A 
ATOM      4  N   UNL     1       4.859   3.713  14.969  0.00  0.00    +0.000 NA
ATOM      5  C   UNL     1       5.866   4.174  14.193  0.00  0.00    +0.000 A 
ATOM      6  C   UNL     1       6.015   3.743  12.872  0.00  0.00    +0.000 A 
ATOM      7  F   UNL     1       5.132   2.877  12.349  0.00  0.00    +0.000 F 
ATOM      8  C   UNL     1       7.061   4.170  12.052  0.00  0.00    +0.000 A 
ATOM      9  C   UNL     1       7.997   5.063  12.545  0.00  0.00    +0.000 A 
ATOM     10  C   UNL     1       7.873   5.525  13.854  0.00  0.00    +0.000 A 
ATOM     11  C   UNL     1       6.812   5.091  14.684  0.00  0.00    +0.000 A 
ENDROOT
BRANCH   1  12
ATOM     12  O   UNL     1       7.553   6.427  16.527  0.00  0.00    +0.000 OA
ATOM     13  H   UNL     1       7.633   6.283  17.484  0.00  0.00    +0.000 HD
ENDBRANCH   1  12
BRANCH   3  14
ATOM     14  C   UNL     1       3.635   3.523  17.085  0.00  0.00    +0.000 C 
BRANCH  14  15
ATOM     15  N   UNL     1       3.657   3.807  18.551  0.00  0.00    +0.000 NA
ATOM     16  C   UNL     1       3.722   2.503  19.248  0.00  0.00    +0.000 C 
ATOM     17  C   UNL     1       3.480   2.564  20.748  0.00  0.00    +0.000 C 
ATOM     18  C   UNL     1       2.214   3.332  21.037  0.00  0.00    +0.000 C 
ATOM     19  F   UNL     1       2.031   3.426  22.377  0.00  0.00    +0.000 F 
ATOM     20  F   UNL     1       1.143   2.651  20.554  0.00  0.00    +0.000 F 
ATOM     21  C   UNL     1       2.263   4.710  20.429  0.00  0.00    +0.000 C 
ATOM     22  C   UNL     1       2.465   4.592  18.926  0.00  0.00    +0.000 C 
ENDBRANCH  14  15
ENDBRANCH   3  14
TORSDOF 3
ENDMDL
MODEL 6
REMARK VINA RESULT:      -7.5      4.929      6.178
REMARK  Name = 
REMARK  3 active torsions:
REMARK  status: ('A' for Active; 'I' for Inactive)
REMARK    1  A    between atoms: O_1  and  C_2
REMARK    2  A    between atoms: C_4  and  C_5
REMARK    3  A    between atoms: C_5  and  N_6
REMARK                            x       y       z     vdW  Elec       q    Type
REMARK                         _______ _______ _______ _____ _____    ______ ____
ROOT
ATOM      1  C   UNL     1       1.472   9.566  18.640  0.00  0.00    +0.000 A 
ATOM      2  C   UNL     1       2.061   8.311  18.710  0.00  0.00    +0.000 A 
ATOM      3  C   UNL     1       1.966   7.622  19.906  0.00  0.00    +0.000 A 
ATOM      4  N   UNL     1       1.357   8.148  21.003  0.00  0.00    +0.000 NA
ATOM      5  C   UNL     1       0.791   9.374  20.934  0.00  0.00    +0.000 A 
ATOM      6  C   UNL     1       0.145   9.933  22.040  0.00  0.00    +0.000 A 
ATOM      7  F   UNL     1       0.106   9.260  23.201  0.00  0.00    +0.000 F 
ATOM      8  C   UNL     1      -0.481  11.181  21.997  0.00  0.00    +0.000 A 
ATOM      9  C   UNL     1      -0.468  11.914  20.823  0.00  0.00    +0.000 A 
ATOM     10  C   UNL     1       0.179  11.393  19.704  0.00  0.00    +0.000 A 
ATOM     11  C   UNL     1       0.813  10.129  19.748  0.00  0.00    +0.000 A 
ENDROOT
BRANCH   1  12
ATOM     12  O   UNL     1       1.518  10.272  17.465  0.00  0.00    +0.000 OA
ATOM     13  H   UNL     1       1.568   9.650  16.721  0.00  0.00    +0.000 HD
ENDBRANCH   1  12
BRANCH   3  14
ATOM     14  C   UNL     1       2.515   6.213  20.039  0.00  0.00    +0.000 C 
BRANCH  14  15
ATOM     15  N   UNL     1       2.211   5.267  18.924  0.00  0.00    +0.000 NA
ATOM     16  C   UNL     1       1.475   4.125  19.509  0.00  0.00    +0.000 C 
ATOM     17  C   UNL     1       1.311   2.927  18.587  0.00  0.00    +0.000 C 
ATOM     18  C   UNL     1       2.646   2.539  18.001  0.00  0.00    +0.000 C 
ATOM     19  F   UNL     1       2.485   1.503  17.142  0.00  0.00    +0.000 F 
ATOM     20  F   UNL     1       3.467   2.092  18.986  0.00  0.00    +0.000 F 
ATOM     21  C   UNL     1       3.285   3.702  17.287  0.00  0.00    +0.000 C 
ATOM     22  C   UNL     1       3.464   4.856  18.261  0.00  0.00    +0.000 C 
ENDBRANCH  14  15
ENDBRANCH   3  14
TORSDOF 3
ENDMDL
MODEL 7
REMARK VINA RESULT:      -7.5      1.241      1.616
REMARK  Name = 
REMARK  3 active torsions:
REMARK  status: ('A' for Active; 'I' for Inactive)
REMARK    1  A    between atoms: O_1  and  C_2
REMARK    2  A    between atoms: C_4  and  C_5
REMARK    3  A    between atoms: C_5  and  N_6
REMARK                            x       y       z     vdW  Elec       q    Type
REMARK                         _______ _______ _______ _____ _____    ______ ____
ROOT
ATOM      1  C   UNL     1       5.442   6.117  16.215  0.00  0.00    +0.000 A 
ATOM      2  C   UNL     1       4.868   4.858  16.327  0.00  0.00    +0.000 A 
ATOM      3  C   UNL     1       5.306   4.042  17.356  0.00  0.00    +0.000 A 
ATOM      4  N   UNL     1       6.289   4.419  18.216  0.00  0.00    +0.000 NA
ATOM      5  C   UNL     1       6.850   5.644  18.100  0.00  0.00    +0.000 A 
ATOM      6  C   UNL     1       7.851   6.065  18.979  0.00  0.00    +0.000 A 
ATOM      7  F   UNL     1       8.287   5.236  19.942  0.00  0.00    +0.000 F 
ATOM      8  C   UNL     1       8.431   7.334  18.912  0.00  0.00    +0.000 A 
ATOM      9  C   UNL     1       8.015   8.225  17.938  0.00  0.00    +0.000 A 
ATOM     10  C   UNL     1       7.029   7.835  17.035  0.00  0.00    +0.000 A 
ATOM     11  C   UNL     1       6.442   6.549  17.104  0.00  0.00    +0.000 A 
ENDROOT
BRANCH   1  12
ATOM     12  O   UNL     1       5.017   6.969  15.227  0.00  0.00    +0.000 OA
ATOM     13  H   UNL     1       5.653   7.697  15.138  0.00  0.00    +0.000 HD
ENDBRANCH   1  12
BRANCH   3  14
ATOM     14  C   UNL     1       4.674   2.682  17.593  0.00  0.00    +0.000 C 
BRANCH  14  15
ATOM     15  N   UNL     1       3.558   2.626  18.585  0.00  0.00    +0.000 NA
ATOM     16  C   UNL     1       2.306   2.901  17.847  0.00  0.00    +0.000 C 
ATOM     17  C   UNL     1       1.088   3.157  18.723  0.00  0.00    +0.000 C 
ATOM     18  C   UNL     1       1.410   4.202  19.763  0.00  0.00    +0.000 C 
ATOM     19  F   UNL     1       0.338   4.388  20.571  0.00  0.00    +0.000 F 
ATOM     20  F   UNL     1       1.643   5.396  19.159  0.00  0.00    +0.000 F 
ATOM     21  C   UNL     1       2.607   3.800  20.585  0.00  0.00    +0.000 C 
ATOM     22  C   UNL     1       3.804   3.596  19.669  0.00  0.00    +0.000 C 
ENDBRANCH  14  15
ENDBRANCH   3  14
TORSDOF 3
ENDMDL
MODEL 8
REMARK VINA RESULT:      -7.4      2.965      6.421
REMARK  Name = 
REMARK  3 active torsions:
REMARK  status: ('A' for Active; 'I' for Inactive)
REMARK    1  A    between atoms: O_1  and  C_2
REMARK    2  A    between atoms: C_4  and  C_5
REMARK    3  A    between atoms: C_5  and  N_6
REMARK                            x       y       z     vdW  Elec       q    Type
REMARK                         _______ _______ _______ _____ _____    ______ ____
ROOT
ATOM      1  C   UNL     1       2.696   5.554  20.029  0.00  0.00    +0.000 A 
ATOM      2  C   UNL     1       3.997   5.986  19.807  0.00  0.00    +0.000 A 
ATOM      3  C   UNL     1       4.870   5.106  19.192  0.00  0.00    +0.000 A 
ATOM      4  N   UNL     1       4.504   3.844  18.840  0.00  0.00    +0.000 NA
ATOM      5  C   UNL     1       3.238   3.424  19.064  0.00  0.00    +0.000 A 
ATOM      6  C   UNL     1       2.831   2.139  18.699  0.00  0.00    +0.000 A 
ATOM      7  F   UNL     1       3.711   1.291  18.142  0.00  0.00    +0.000 F 
ATOM      8  C   UNL     1       1.524   1.680  18.882  0.00  0.00    +0.000 A 
ATOM      9  C   UNL     1       0.579   2.517  19.452  0.00  0.00    +0.000 A 
ATOM     10  C   UNL     1       0.954   3.801  19.841  0.00  0.00    +0.000 A 
ATOM     11  C   UNL     1       2.278   4.264  19.655  0.00  0.00    +0.000 A 
ENDROOT
BRANCH   1  12
ATOM     12  O   UNL     1       1.790   6.403  20.611  0.00  0.00    +0.000 OA
ATOM     13  H   UNL     1       1.039   5.888  20.948  0.00  0.00    +0.000 HD
ENDBRANCH   1  12
BRANCH   3  14
ATOM     14  C   UNL     1       6.285   5.530  18.845  0.00  0.00    +0.000 C 
BRANCH  14  15
ATOM     15  N   UNL     1       6.590   5.726  17.395  0.00  0.00    +0.000 NA
ATOM     16  C   UNL     1       5.333   6.152  16.740  0.00  0.00    +0.000 C 
ATOM     17  C   UNL     1       5.367   6.140  15.219  0.00  0.00    +0.000 C 
ATOM     18  C   UNL     1       5.877   4.810  14.723  0.00  0.00    +0.000 C 
ATOM     19  F   UNL     1       5.951   4.825  13.370  0.00  0.00    +0.000 F 
ATOM     20  F   UNL     1       4.993   3.830  15.044  0.00  0.00    +0.000 F 
ATOM     21  C   UNL     1       7.229   4.494  15.307  0.00  0.00    +0.000 C 
ATOM     22  C   UNL     1       7.132   4.477  16.825  0.00  0.00    +0.000 C 
ENDBRANCH  14  15
ENDBRANCH   3  14
TORSDOF 3
ENDMDL
MODEL 9
REMARK VINA RESULT:      -7.3      2.663      6.375
REMARK  Name = 
REMARK  3 active torsions:
REMARK  status: ('A' for Active; 'I' for Inactive)
REMARK    1  A    between atoms: O_1  and  C_2
REMARK    2  A    between atoms: C_4  and  C_5
REMARK    3  A    between atoms: C_5  and  N_6
REMARK                            x       y       z     vdW  Elec       q    Type
REMARK                         _______ _______ _______ _____ _____    ______ ____
ROOT
ATOM      1  C   UNL     1       2.099   6.322  19.958  0.00  0.00    +0.000 A 
ATOM      2  C   UNL     1       2.918   7.028  19.087  0.00  0.00    +0.000 A 
ATOM      3  C   UNL     1       3.362   6.377  17.949  0.00  0.00    +0.000 A 
ATOM      4  N   UNL     1       3.054   5.078  17.688  0.00  0.00    +0.000 NA
ATOM      5  C   UNL     1       2.262   4.390  18.542  0.00  0.00    +0.000 A 
ATOM      6  C   UNL     1       1.917   3.059  18.292  0.00  0.00    +0.000 A 
ATOM      7  F   UNL     1       2.397   2.438  17.202  0.00  0.00    +0.000 F 
ATOM      8  C   UNL     1       1.075   2.327  19.131  0.00  0.00    +0.000 A 
ATOM      9  C   UNL     1       0.554   2.923  20.267  0.00  0.00    +0.000 A 
ATOM     10  C   UNL     1       0.888   4.244  20.556  0.00  0.00    +0.000 A 
ATOM     11  C   UNL     1       1.741   4.985  19.705  0.00  0.00    +0.000 A 
ENDROOT
BRANCH   1  12
ATOM     12  O   UNL     1       1.614   6.938  21.082  0.00  0.00    +0.000 OA
ATOM     13  H   UNL     1       1.943   6.473  21.868  0.00  0.00    +0.000 HD
ENDBRANCH   1  12
BRANCH   3  14
ATOM     14  C   UNL     1       4.195   7.104  16.910  0.00  0.00    +0.000 C 
BRANCH  14  15
ATOM     15  N   UNL     1       5.616   6.664  16.764  0.00  0.00    +0.000 NA
ATOM     16  C   UNL     1       5.592   5.284  16.230  0.00  0.00    +0.000 C 
ATOM     17  C   UNL     1       6.929   4.560  16.265  0.00  0.00    +0.000 C 
ATOM     18  C   UNL     1       7.532   4.655  17.644  0.00  0.00    +0.000 C 
ATOM     19  F   UNL     1       8.746   4.051  17.655  0.00  0.00    +0.000 F 
ATOM     20  F   UNL     1       6.762   3.975  18.532  0.00  0.00    +0.000 F 
ATOM     21  C   UNL     1       7.672   6.091  18.079  0.00  0.00    +0.000 C 
ATOM     22  C   UNL     1       6.305   6.757  18.066  0.00  0.00    +0.000 C 
ENDBRANCH  14  15
ENDBRANCH   3  14
TORSDOF 3
ENDMDL
