MODEL 1
REMARK VINA RESULT:      -7.8      0.000      0.000
REMARK  Name = 
REMARK  7 active torsions:
REMARK  status: ('A' for Active; 'I' for Inactive)
REMARK    1  A    between atoms: C_1  and  O_2
REMARK    2  A    between atoms: O_2  and  C_3
REMARK    3  A    between atoms: C_3  and  C_5
REMARK    4  A    between atoms: C_10  and  N_11
REMARK    5  A    between atoms: C_12  and  C_14
REMARK    6  A    between atoms: C_14  and  S_15
REMARK    7  A    between atoms: S_15  and  C_16
REMARK                            x       y       z     vdW  Elec       q    Type
REMARK                         _______ _______ _______ _____ _____    ______ ____
ROOT
ATOM      1  N   UNL     1       2.780   6.961  18.590  0.00  0.00    +0.000 N 
ATOM      2  C   UNL     1       2.279   8.203  18.226  0.00  0.00    +0.000 C 
ATOM      3  O   UNL     1       2.371   8.718  17.113  0.00  0.00    +0.000 OA
ATOM      4  H   UNL     1       2.394   6.536  19.433  0.00  0.00    +0.000 HD
ENDROOT
BRANCH   1  10
ATOM      5  C   UNL     1       3.261   4.724  17.649  0.00  0.00    +0.000 A 
ATOM      6  C   UNL     1       4.052   3.919  16.799  0.00  0.00    +0.000 A 
ATOM      7  C   UNL     1       5.142   4.444  16.109  0.00  0.00    +0.000 A 
ATOM      8  C   UNL     1       5.472   5.779  16.276  0.00  0.00    +0.000 A 
ATOM      9  C   UNL     1       4.703   6.590  17.113  0.00  0.00    +0.000 A 
ATOM     10  C   UNL     1       3.572   6.097  17.788  0.00  0.00    +0.000 A 
BRANCH   5  11
ATOM     11  C   UNL     1       2.129   4.001  18.305  0.00  0.00    +0.000 C 
ATOM     12  O   UNL     1       1.211   3.499  17.670  0.00  0.00    +0.000 OA
BRANCH  11  14
ATOM     13  C   UNL     1       0.987   4.100  20.329  0.00  0.00    +0.000 C 
ATOM     14  O   UNL     1       2.243   3.960  19.657  0.00  0.00    +0.000 OA
ENDBRANCH  11  14
ENDBRANCH   5  11
ENDBRANCH   1  10
BRANCH   2  15
ATOM     15  C   UNL     1       1.546   8.924  19.348  0.00  0.00    +0.000 C 
BRANCH  15  16
ATOM     16  S   UNL     1       1.279  10.666  18.914  0.00  0.00    +0.000 S 
BRANCH  16  17
ATOM     17  C   UNL     1       0.287  11.176  20.242  0.00  0.00    +0.000 A 
ATOM     18  N   UNL     1       0.771  11.517  21.417  0.00  0.00    +0.000 NA
ATOM     19  N   UNL     1      -0.237  12.124  22.122  0.00  0.00    +0.000 NA
ATOM     20  C   UNL     1      -1.304  12.136  21.354  0.00  0.00    +0.000 A 
ATOM     21  N   UNL     1      -1.059  11.471  20.173  0.00  0.00    +0.000 N 
ATOM     22  C   UNL     1      -2.045  11.201  19.190  0.00  0.00    +0.000 A 
ATOM     23  C   UNL     1      -1.925  10.109  18.334  0.00  0.00    +0.000 A 
ATOM     24  C   UNL     1      -2.928   9.879  17.394  0.00  0.00    +0.000 A 
ATOM     25  C   UNL     1      -4.014  10.742  17.325  0.00  0.00    +0.000 A 
ATOM     26  C   UNL     1      -4.073  11.791  18.225  0.00  0.00    +0.000 A 
ATOM     27  N   UNL     1      -3.129  12.024  19.168  0.00  0.00    +0.000 NA
ENDBRANCH  16  17
ENDBRANCH  15  16
ENDBRANCH   2  15
TORSDOF 6
ENDMDL
MODEL 2
REMARK VINA RESULT:      -7.7      3.797      8.239
REMARK  Name = 
REMARK  7 active torsions:
REMARK  status: ('A' for Active; 'I' for Inactive)
REMARK    1  A    between atoms: C_1  and  O_2
REMARK    2  A    between atoms: O_2  and  C_3
REMARK    3  A    between atoms: C_3  and  C_5
REMARK    4  A    between atoms: C_10  and  N_11
REMARK    5  A    between atoms: C_12  and  C_14
REMARK    6  A    between atoms: C_14  and  S_15
REMARK    7  A    between atoms: S_15  and  C_16
REMARK                            x       y       z     vdW  Elec       q    Type
REMARK                         _______ _______ _______ _____ _____    ______ ____
ROOT
ATOM      1  N   UNL     1       2.555   6.819  19.826  0.00  0.00    +0.000 N 
ATOM      2  C   UNL     1       2.568   5.625  19.119  0.00  0.00    +0.000 C 
ATOM      3  O   UNL     1       2.204   5.474  17.953  0.00  0.00    +0.000 OA
ATOM      4  H   UNL     1       3.140   6.867  20.661  0.00  0.00    +0.000 HD
ENDROOT
BRANCH   1  10
ATOM      5  C   UNL     1       1.095   8.789  20.151  0.00  0.00    +0.000 A 
ATOM      6  C   UNL     1       0.646  10.046  19.687  0.00  0.00    +0.000 A 
ATOM      7  C   UNL     1       1.094  10.576  18.480  0.00  0.00    +0.000 A 
ATOM      8  C   UNL     1       1.982   9.847  17.706  0.00  0.00    +0.000 A 
ATOM      9  C   UNL     1       2.436   8.603  18.147  0.00  0.00    +0.000 A 
ATOM     10  C   UNL     1       2.034   8.063  19.382  0.00  0.00    +0.000 A 
BRANCH   5  11
ATOM     11  C   UNL     1       0.519   8.376  21.468  0.00  0.00    +0.000 C 
ATOM     12  O   UNL     1      -0.304   7.476  21.575  0.00  0.00    +0.000 OA
BRANCH  11  14
ATOM     13  C   UNL     1      -0.006   9.619  23.362  0.00  0.00    +0.000 C 
ATOM     14  O   UNL     1       1.015   9.094  22.508  0.00  0.00    +0.000 OA
ENDBRANCH  11  14
ENDBRANCH   5  11
ENDBRANCH   1  10
BRANCH   2  15
ATOM     15  C   UNL     1       3.113   4.445  19.911  0.00  0.00    +0.000 C 
BRANCH  15  16
ATOM     16  S   UNL     1       4.305   3.508  18.913  0.00  0.00    +0.000 S 
BRANCH  16  17
ATOM     17  C   UNL     1       5.674   4.572  18.970  0.00  0.00    +0.000 A 
ATOM     18  N   UNL     1       6.184   5.033  20.092  0.00  0.00    +0.000 NA
ATOM     19  N   UNL     1       7.398   5.599  19.794  0.00  0.00    +0.000 NA
ATOM     20  C   UNL     1       7.591   5.463  18.501  0.00  0.00    +0.000 A 
ATOM     21  N   UNL     1       6.489   4.890  17.904  0.00  0.00    +0.000 N 
ATOM     22  C   UNL     1       6.336   4.726  16.504  0.00  0.00    +0.000 A 
ATOM     23  C   UNL     1       5.071   4.680  15.921  0.00  0.00    +0.000 A 
ATOM     24  C   UNL     1       4.973   4.531  14.539  0.00  0.00    +0.000 A 
ATOM     25  C   UNL     1       6.130   4.424  13.778  0.00  0.00    +0.000 A 
ATOM     26  C   UNL     1       7.349   4.503  14.426  0.00  0.00    +0.000 A 
ATOM     27  N   UNL     1       7.476   4.675  15.764  0.00  0.00    +0.000 NA
ENDBRANCH  16  17
ENDBRANCH  15  16
ENDBRANCH   2  15
TORSDOF 6
ENDMDL
MODEL 3
REMARK VINA RESULT:      -7.7      2.826      3.976
REMARK  Name = 
REMARK  7 active torsions:
REMARK  status: ('A' for Active; 'I' for Inactive)
REMARK    1  A    between atoms: C_1  and  O_2
REMARK    2  A    between atoms: O_2  and  C_3
REMARK    3  A    between atoms: C_3  and  C_5
REMARK    4  A    between atoms: C_10  and  N_11
REMARK    5  A    between atoms: C_12  and  C_14
REMARK    6  A    between atoms: C_14  and  S_15
REMARK    7  A    between atoms: S_15  and  C_16
REMARK                            x       y       z     vdW  Elec       q    Type
REMARK                         _______ _______ _______ _____ _____    ______ ____
ROOT
ATOM      1  N   UNL     1       2.838   6.315  18.136  0.00  0.00    +0.000 N 
ATOM      2  C   UNL     1       2.506   7.502  18.773  0.00  0.00    +0.000 C 
ATOM      3  O   UNL     1       2.305   7.640  19.979  0.00  0.00    +0.000 OA
ATOM      4  H   UNL     1       3.253   6.390  17.207  0.00  0.00    +0.000 HD
ENDROOT
BRANCH   1  10
ATOM      5  C   UNL     1       4.153   4.441  19.074  0.00  0.00    +0.000 A 
ATOM      6  C   UNL     1       4.168   3.178  19.706  0.00  0.00    +0.000 A 
ATOM      7  C   UNL     1       2.990   2.487  19.978  0.00  0.00    +0.000 A 
ATOM      8  C   UNL     1       1.777   3.040  19.601  0.00  0.00    +0.000 A 
ATOM      9  C   UNL     1       1.741   4.287  18.974  0.00  0.00    +0.000 A 
ATOM     10  C   UNL     1       2.912   5.025  18.727  0.00  0.00    +0.000 A 
BRANCH   5  11
ATOM     11  C   UNL     1       5.505   5.043  18.866  0.00  0.00    +0.000 C 
ATOM     12  O   UNL     1       6.378   5.018  19.723  0.00  0.00    +0.000 OA
BRANCH  11  14
ATOM     13  C   UNL     1       6.315   4.736  16.707  0.00  0.00    +0.000 C 
ATOM     14  O   UNL     1       5.650   5.599  17.636  0.00  0.00    +0.000 OA
ENDBRANCH  11  14
ENDBRANCH   5  11
ENDBRANCH   1  10
BRANCH   2  15
ATOM     15  C   UNL     1       2.421   8.700  17.839  0.00  0.00    +0.000 C 
BRANCH  15  16
ATOM     16  S   UNL     1       0.897   9.637  18.145  0.00  0.00    +0.000 S 
BRANCH  16  17
ATOM     17  C   UNL     1       1.552  11.106  18.794  0.00  0.00    +0.000 A 
ATOM     18  N   UNL     1       2.359  11.897  18.120  0.00  0.00    +0.000 NA
ATOM     19  N   UNL     1       2.453  13.080  18.810  0.00  0.00    +0.000 NA
ATOM     20  C   UNL     1       1.699  12.973  19.882  0.00  0.00    +0.000 A 
ATOM     21  N   UNL     1       1.163  11.707  19.973  0.00  0.00    +0.000 N 
ATOM     22  C   UNL     1       0.409  11.239  21.079  0.00  0.00    +0.000 A 
ATOM     23  C   UNL     1       0.368   9.883  21.396  0.00  0.00    +0.000 A 
ATOM     24  C   UNL     1      -0.377   9.474  22.502  0.00  0.00    +0.000 A 
ATOM     25  C   UNL     1      -1.064  10.419  23.253  0.00  0.00    +0.000 A 
ATOM     26  C   UNL     1      -0.955  11.749  22.888  0.00  0.00    +0.000 A 
ATOM     27  N   UNL     1      -0.217  12.180  21.837  0.00  0.00    +0.000 NA
ENDBRANCH  16  17
ENDBRANCH  15  16
ENDBRANCH   2  15
TORSDOF 6
ENDMDL
MODEL 4
REMARK VINA RESULT:      -7.6      2.966      8.443
REMARK  Name = 
REMARK  7 active torsions:
REMARK  status: ('A' for Active; 'I' for Inactive)
REMARK    1  A    between atoms: C_1  and  O_2
REMARK    2  A    between atoms: O_2  and  C_3
REMARK    3  A    between atoms: C_3  and  C_5
REMARK    4  A    between atoms: C_10  and  N_11
REMARK    5  A    between atoms: C_12  and  C_14
REMARK    6  A    between atoms: C_14  and  S_15
REMARK    7  A    between atoms: S_15  and  C_16
REMARK                            x       y       z     vdW  Elec       q    Type
REMARK                         _______ _______ _______ _____ _____    ______ ____
ROOT
ATOM      1  N   UNL     1       0.816   8.975  18.596  0.00  0.00    +0.000 N 
ATOM      2  C   UNL     1       2.027   9.137  17.940  0.00  0.00    +0.000 C 
ATOM      3  O   UNL     1       2.465  10.194  17.487  0.00  0.00    +0.000 OA
ATOM      4  H   UNL     1       0.707   8.135  19.165  0.00  0.00    +0.000 HD
ENDROOT
BRANCH   1  10
ATOM      5  C   UNL     1      -0.357  10.620  20.026  0.00  0.00    +0.000 A 
ATOM      6  C   UNL     1      -1.337  11.631  20.144  0.00  0.00    +0.000 A 
ATOM      7  C   UNL     1      -2.150  11.983  19.070  0.00  0.00    +0.000 A 
ATOM      8  C   UNL     1      -2.013  11.313  17.865  0.00  0.00    +0.000 A 
ATOM      9  C   UNL     1      -1.051  10.309  17.729  0.00  0.00    +0.000 A 
ATOM     10  C   UNL     1      -0.187   9.964  18.784  0.00  0.00    +0.000 A 
BRANCH   5  11
ATOM     11  C   UNL     1       0.431  10.375  21.272  0.00  0.00    +0.000 C 
ATOM     12  O   UNL     1       1.408   9.640  21.301  0.00  0.00    +0.000 OA
BRANCH  11  14
ATOM     13  C   UNL     1      -0.741  10.225  23.276  0.00  0.00    +0.000 C 
ATOM     14  O   UNL     1      -0.049  11.061  22.341  0.00  0.00    +0.000 OA
ENDBRANCH  11  14
ENDBRANCH   5  11
ENDBRANCH   1  10
BRANCH   2  15
ATOM     15  C   UNL     1       2.842   7.857  17.826  0.00  0.00    +0.000 C 
BRANCH  15  16
ATOM     16  S   UNL     1       2.536   6.782  19.256  0.00  0.00    +0.000 S 
BRANCH  16  17
ATOM     17  C   UNL     1       2.523   5.227  18.487  0.00  0.00    +0.000 A 
ATOM     18  N   UNL     1       1.419   4.580  18.183  0.00  0.00    +0.000 NA
ATOM     19  N   UNL     1       1.759   3.543  17.351  0.00  0.00    +0.000 NA
ATOM     20  C   UNL     1       3.061   3.592  17.173  0.00  0.00    +0.000 A 
ATOM     21  N   UNL     1       3.618   4.593  17.937  0.00  0.00    +0.000 N 
ATOM     22  C   UNL     1       5.013   4.819  18.062  0.00  0.00    +0.000 A 
ATOM     23  C   UNL     1       5.543   5.418  19.203  0.00  0.00    +0.000 A 
ATOM     24  C   UNL     1       6.922   5.605  19.283  0.00  0.00    +0.000 A 
ATOM     25  C   UNL     1       7.731   5.203  18.229  0.00  0.00    +0.000 A 
ATOM     26  C   UNL     1       7.132   4.595  17.140  0.00  0.00    +0.000 A 
ATOM     27  N   UNL     1       5.799   4.374  17.045  0.00  0.00    +0.000 NA
ENDBRANCH  16  17
ENDBRANCH  15  16
ENDBRANCH   2  15
TORSDOF 6
ENDMDL
MODEL 5
REMARK VINA RESULT:      -7.5      2.733      4.092
REMARK  Name = 
REMARK  7 active torsions:
REMARK  status: ('A' for Active; 'I' for Inactive)
REMARK    1  A    between atoms: C_1  and  O_2
REMARK    2  A    between atoms: O_2  and  C_3
REMARK    3  A    between atoms: C_3  and  C_5
REMARK    4  A    between atoms: C_10  and  N_11
REMARK    5  A    between atoms: C_12  and  C_14
REMARK    6  A    between atoms: C_14  and  S_15
REMARK    7  A    between atoms: S_15  and  C_16
REMARK                            x       y       z     vdW  Elec       q    Type
REMARK                         _______ _______ _______ _____ _____    ______ ____
ROOT
ATOM      1  N   UNL     1       2.841   6.526  19.560  0.00  0.00    +0.000 N 
ATOM      2  C   UNL     1       2.347   7.038  18.368  0.00  0.00    +0.000 C 
ATOM      3  O   UNL     1       1.674   6.421  17.544  0.00  0.00    +0.000 OA
ATOM      4  H   UNL     1       3.124   7.202  20.270  0.00  0.00    +0.000 HD
ENDROOT
BRANCH   1  10
ATOM      5  C   UNL     1       3.765   4.236  19.717  0.00  0.00    +0.000 A 
ATOM      6  C   UNL     1       3.652   2.925  20.230  0.00  0.00    +0.000 A 
ATOM      7  C   UNL     1       2.557   2.537  20.998  0.00  0.00    +0.000 A 
ATOM      8  C   UNL     1       1.545   3.449  21.247  0.00  0.00    +0.000 A 
ATOM      9  C   UNL     1       1.638   4.750  20.749  0.00  0.00    +0.000 A 
ATOM     10  C   UNL     1       2.753   5.181  20.007  0.00  0.00    +0.000 A 
BRANCH   5  11
ATOM     11  C   UNL     1       5.006   4.483  18.921  0.00  0.00    +0.000 C 
ATOM     12  O   UNL     1       6.128   4.368  19.396  0.00  0.00    +0.000 OA
BRANCH  11  14
ATOM     13  C   UNL     1       5.651   5.818  17.129  0.00  0.00    +0.000 C 
ATOM     14  O   UNL     1       4.745   4.832  17.635  0.00  0.00    +0.000 OA
ENDBRANCH  11  14
ENDBRANCH   5  11
ENDBRANCH   1  10
BRANCH   2  15
ATOM     15  C   UNL     1       2.688   8.503  18.138  0.00  0.00    +0.000 C 
BRANCH  15  16
ATOM     16  S   UNL     1       1.173   9.493  18.000  0.00  0.00    +0.000 S 
BRANCH  16  17
ATOM     17  C   UNL     1       1.714  10.997  18.672  0.00  0.00    +0.000 A 
ATOM     18  N   UNL     1       2.444  11.866  18.006  0.00  0.00    +0.000 NA
ATOM     19  N   UNL     1       2.451  13.038  18.719  0.00  0.00    +0.000 NA
ATOM     20  C   UNL     1       1.723  12.848  19.798  0.00  0.00    +0.000 A 
ATOM     21  N   UNL     1       1.294  11.541  19.869  0.00  0.00    +0.000 N 
ATOM     22  C   UNL     1       0.596  10.989  20.973  0.00  0.00    +0.000 A 
ATOM     23  C   UNL     1       0.670   9.629  21.262  0.00  0.00    +0.000 A 
ATOM     24  C   UNL     1      -0.023   9.138  22.367  0.00  0.00    +0.000 A 
ATOM     25  C   UNL     1      -0.775  10.008  23.146  0.00  0.00    +0.000 A 
ATOM     26  C   UNL     1      -0.780  11.349  22.809  0.00  0.00    +0.000 A 
ATOM     27  N   UNL     1      -0.094  11.860  21.758  0.00  0.00    +0.000 NA
ENDBRANCH  16  17
ENDBRANCH  15  16
ENDBRANCH   2  15
TORSDOF 6
ENDMDL
MODEL 6
REMARK VINA RESULT:      -7.5      1.827      2.156
REMARK  Name = 
REMARK  7 active torsions:
REMARK  status: ('A' for Active; 'I' for Inactive)
REMARK    1  A    between atoms: C_1  and  O_2
REMARK    2  A    between atoms: O_2  and  C_3
REMARK    3  A    between atoms: C_3  and  C_5
REMARK    4  A    between atoms: C_10  and  N_11
REMARK    5  A    between atoms: C_12  and  C_14
REMARK    6  A    between atoms: C_14  and  S_15
REMARK    7  A    between atoms: S_15  and  C_16
REMARK                            x       y       z     vdW  Elec       q    Type
REMARK                         _______ _______ _______ _____ _____    ______ ____
ROOT
ATOM      1  N   UNL     1       2.878   6.260  18.972  0.00  0.00    +0.000 N 
ATOM      2  C   UNL     1       2.412   5.798  20.195  0.00  0.00    +0.000 C 
ATOM      3  O   UNL     1       2.791   4.780  20.772  0.00  0.00    +0.000 OA
ATOM      4  H   UNL     1       2.700   7.240  18.750  0.00  0.00    +0.000 HD
ENDROOT
BRANCH   1  10
ATOM      5  C   UNL     1       3.432   4.454  17.374  0.00  0.00    +0.000 A 
ATOM      6  C   UNL     1       4.370   3.869  16.495  0.00  0.00    +0.000 A 
ATOM      7  C   UNL     1       5.654   4.390  16.352  0.00  0.00    +0.000 A 
ATOM      8  C   UNL     1       6.027   5.491  17.105  0.00  0.00    +0.000 A 
ATOM      9  C   UNL     1       5.114   6.082  17.980  0.00  0.00    +0.000 A 
ATOM     10  C   UNL     1       3.798   5.604  18.112  0.00  0.00    +0.000 A 
BRANCH   5  11
ATOM     11  C   UNL     1       2.101   3.772  17.398  0.00  0.00    +0.000 C 
ATOM     12  O   UNL     1       1.044   4.385  17.318  0.00  0.00    +0.000 OA
BRANCH  11  14
ATOM     13  C   UNL     1       2.150   1.965  18.862  0.00  0.00    +0.000 C 
ATOM     14  O   UNL     1       2.203   2.423  17.507  0.00  0.00    +0.000 OA
ENDBRANCH  11  14
ENDBRANCH   5  11
ENDBRANCH   1  10
BRANCH   2  15
ATOM     15  C   UNL     1       1.357   6.692  20.829  0.00  0.00    +0.000 C 
BRANCH  15  16
ATOM     16  S   UNL     1       1.571   8.410  20.285  0.00  0.00    +0.000 S 
BRANCH  16  17
ATOM     17  C   UNL     1       0.596   9.239  21.456  0.00  0.00    +0.000 A 
ATOM     18  N   UNL     1       0.738   9.084  22.755  0.00  0.00    +0.000 NA
ATOM     19  N   UNL     1       0.020  10.076  23.373  0.00  0.00    +0.000 NA
ATOM     20  C   UNL     1      -0.536  10.806  22.431  0.00  0.00    +0.000 A 
ATOM     21  N   UNL     1      -0.275  10.275  21.188  0.00  0.00    +0.000 N 
ATOM     22  C   UNL     1      -0.838  10.759  19.979  0.00  0.00    +0.000 A 
ATOM     23  C   UNL     1      -1.010   9.919  18.882  0.00  0.00    +0.000 A 
ATOM     24  C   UNL     1      -1.581  10.439  17.721  0.00  0.00    +0.000 A 
ATOM     25  C   UNL     1      -1.955  11.776  17.681  0.00  0.00    +0.000 A 
ATOM     26  C   UNL     1      -1.773  12.540  18.820  0.00  0.00    +0.000 A 
ATOM     27  N   UNL     1      -1.248  12.056  19.971  0.00  0.00    +0.000 NA
ENDBRANCH  16  17
ENDBRANCH  15  16
ENDBRANCH   2  15
TORSDOF 6
ENDMDL
MODEL 7
REMARK VINA RESULT:      -7.5      1.930      3.216
REMARK  Name = 
REMARK  7 active torsions:
REMARK  status: ('A' for Active; 'I' for Inactive)
REMARK    1  A    between atoms: C_1  and  O_2
REMARK    2  A    between atoms: O_2  and  C_3
REMARK    3  A    between atoms: C_3  and  C_5
REMARK    4  A    between atoms: C_10  and  N_11
REMARK    5  A    between atoms: C_12  and  C_14
REMARK    6  A    between atoms: C_14  and  S_15
REMARK    7  A    between atoms: S_15  and  C_16
REMARK                            x       y       z     vdW  Elec       q    Type
REMARK                         _______ _______ _______ _____ _____    ______ ____
ROOT
ATOM      1  N   UNL     1       3.127   6.206  19.636  0.00  0.00    +0.000 N 
ATOM      2  C   UNL     1       2.641   6.710  18.437  0.00  0.00    +0.000 C 
ATOM      3  O   UNL     1       1.902   6.116  17.654  0.00  0.00    +0.000 OA
ATOM      4  H   UNL     1       3.479   6.884  20.313  0.00  0.00    +0.000 HD
ENDROOT
BRANCH   1  10
ATOM      5  C   UNL     1       3.789   3.824  19.732  0.00  0.00    +0.000 A 
ATOM      6  C   UNL     1       3.603   2.544  20.299  0.00  0.00    +0.000 A 
ATOM      7  C   UNL     1       2.599   2.304  21.235  0.00  0.00    +0.000 A 
ATOM      8  C   UNL     1       1.751   3.336  21.601  0.00  0.00    +0.000 A 
ATOM      9  C   UNL     1       1.919   4.608  21.050  0.00  0.00    +0.000 A 
ATOM     10  C   UNL     1       2.951   4.889  20.137  0.00  0.00    +0.000 A 
BRANCH   5  11
ATOM     11  C   UNL     1       4.916   3.907  18.752  0.00  0.00    +0.000 C 
ATOM     12  O   UNL     1       6.012   4.364  19.045  0.00  0.00    +0.000 OA
BRANCH  11  14
ATOM     13  C   UNL     1       4.818   4.349  16.471  0.00  0.00    +0.000 C 
ATOM     14  O   UNL     1       4.587   3.414  17.530  0.00  0.00    +0.000 OA
ENDBRANCH  11  14
ENDBRANCH   5  11
ENDBRANCH   1  10
BRANCH   2  15
ATOM     15  C   UNL     1       3.085   8.135  18.143  0.00  0.00    +0.000 C 
BRANCH  15  16
ATOM     16  S   UNL     1       1.651   9.178  17.755  0.00  0.00    +0.000 S 
BRANCH  16  17
ATOM     17  C   UNL     1       0.924   9.316  19.324  0.00  0.00    +0.000 A 
ATOM     18  N   UNL     1       1.538   8.978  20.438  0.00  0.00    +0.000 NA
ATOM     19  N   UNL     1       0.802   9.470  21.485  0.00  0.00    +0.000 NA
ATOM     20  C   UNL     1      -0.238  10.095  20.977  0.00  0.00    +0.000 A 
ATOM     21  N   UNL     1      -0.263   9.961  19.607  0.00  0.00    +0.000 N 
ATOM     22  C   UNL     1      -1.323  10.413  18.780  0.00  0.00    +0.000 A 
ATOM     23  C   UNL     1      -1.587   9.803  17.555  0.00  0.00    +0.000 A 
ATOM     24  C   UNL     1      -2.648  10.276  16.785  0.00  0.00    +0.000 A 
ATOM     25  C   UNL     1      -3.410  11.341  17.248  0.00  0.00    +0.000 A 
ATOM     26  C   UNL     1      -3.100  11.878  18.485  0.00  0.00    +0.000 A 
ATOM     27  N   UNL     1      -2.092  11.422  19.268  0.00  0.00    +0.000 NA
ENDBRANCH  16  17
ENDBRANCH  15  16
ENDBRANCH   2  15
TORSDOF 6
ENDMDL
MODEL 8
REMARK VINA RESULT:      -7.4      2.765      3.873
REMARK  Name = 
REMARK  7 active torsions:
REMARK  status: ('A' for Active; 'I' for Inactive)
REMARK    1  A    between atoms: C_1  and  O_2
REMARK    2  A    between atoms: O_2  and  C_3
REMARK    3  A    between atoms: C_3  and  C_5
REMARK    4  A    between atoms: C_10  and  N_11
REMARK    5  A    between atoms: C_12  and  C_14
REMARK    6  A    between atoms: C_14  and  S_15
REMARK    7  A    between atoms: S_15  and  C_16
REMARK                            x       y       z     vdW  Elec       q    Type
REMARK                         _______ _______ _______ _____ _____    ______ ____
ROOT
ATOM      1  N   UNL     1       2.561   6.055  17.596  0.00  0.00    +0.000 N 
ATOM      2  C   UNL     1       2.660   7.131  18.467  0.00  0.00    +0.000 C 
ATOM      3  O   UNL     1       2.813   7.059  19.685  0.00  0.00    +0.000 OA
ATOM      4  H   UNL     1       2.727   6.244  16.607  0.00  0.00    +0.000 HD
ENDROOT
BRANCH   1  10
ATOM      5  C   UNL     1       3.674   3.866  17.901  0.00  0.00    +0.000 A 
ATOM      6  C   UNL     1       3.586   2.517  18.309  0.00  0.00    +0.000 A 
ATOM      7  C   UNL     1       2.381   1.965  18.738  0.00  0.00    +0.000 A 
ATOM      8  C   UNL     1       1.239   2.749  18.744  0.00  0.00    +0.000 A 
ATOM      9  C   UNL     1       1.306   4.084  18.343  0.00  0.00    +0.000 A 
ATOM     10  C   UNL     1       2.517   4.679  17.947  0.00  0.00    +0.000 A 
BRANCH   5  11
ATOM     11  C   UNL     1       5.042   4.295  17.479  0.00  0.00    +0.000 C 
ATOM     12  O   UNL     1       5.292   4.682  16.345  0.00  0.00    +0.000 OA
BRANCH  11  14
ATOM     13  C   UNL     1       7.198   4.844  18.159  0.00  0.00    +0.000 C 
ATOM     14  O   UNL     1       5.952   4.218  18.484  0.00  0.00    +0.000 OA
ENDBRANCH  11  14
ENDBRANCH   5  11
ENDBRANCH   1  10
BRANCH   2  15
ATOM     15  C   UNL     1       2.586   8.487  17.781  0.00  0.00    +0.000 C 
BRANCH  15  16
ATOM     16  S   UNL     1       1.016   9.310  18.171  0.00  0.00    +0.000 S 
BRANCH  16  17
ATOM     17  C   UNL     1       1.596  10.832  18.769  0.00  0.00    +0.000 A 
ATOM     18  N   UNL     1       2.374  11.633  18.073  0.00  0.00    +0.000 NA
ATOM     19  N   UNL     1       2.406  12.844  18.717  0.00  0.00    +0.000 NA
ATOM     20  C   UNL     1       1.645  12.744  19.785  0.00  0.00    +0.000 A 
ATOM     21  N   UNL     1       1.166  11.460  19.920  0.00  0.00    +0.000 N 
ATOM     22  C   UNL     1       0.420  11.000  21.035  0.00  0.00    +0.000 A 
ATOM     23  C   UNL     1       0.437   9.657  21.404  0.00  0.00    +0.000 A 
ATOM     24  C   UNL     1      -0.301   9.257  22.517  0.00  0.00    +0.000 A 
ATOM     25  C   UNL     1      -1.039  10.197  23.223  0.00  0.00    +0.000 A 
ATOM     26  C   UNL     1      -0.987  11.516  22.809  0.00  0.00    +0.000 A 
ATOM     27  N   UNL     1      -0.256  11.940  21.749  0.00  0.00    +0.000 NA
ENDBRANCH  16  17
ENDBRANCH  15  16
ENDBRANCH   2  15
TORSDOF 6
ENDMDL
MODEL 9
REMARK VINA RESULT:      -7.4      1.873      2.207
REMARK  Name = 
REMARK  7 active torsions:
REMARK  status: ('A' for Active; 'I' for Inactive)
REMARK    1  A    between atoms: C_1  and  O_2
REMARK    2  A    between atoms: O_2  and  C_3
REMARK    3  A    between atoms: C_3  and  C_5
REMARK    4  A    between atoms: C_10  and  N_11
REMARK    5  A    between atoms: C_12  and  C_14
REMARK    6  A    between atoms: C_14  and  S_15
REMARK    7  A    between atoms: S_15  and  C_16
REMARK                            x       y       z     vdW  Elec       q    Type
REMARK                         _______ _______ _______ _____ _____    ______ ____
ROOT
ATOM      1  N   UNL     1       3.248   5.947  17.972  0.00  0.00    +0.000 N 
ATOM      2  C   UNL     1       3.303   5.933  19.359  0.00  0.00    +0.000 C 
ATOM      3  O   UNL     1       4.224   5.482  20.038  0.00  0.00    +0.000 OA
ATOM      4  H   UNL     1       2.586   6.594  17.542  0.00  0.00    +0.000 HD
ENDROOT
BRANCH   1  10
ATOM      5  C   UNL     1       4.197   3.970  16.825  0.00  0.00    +0.000 A 
ATOM      6  C   UNL     1       5.117   3.447  15.890  0.00  0.00    +0.000 A 
ATOM      7  C   UNL     1       6.025   4.269  15.226  0.00  0.00    +0.000 A 
ATOM      8  C   UNL     1       6.042   5.625  15.505  0.00  0.00    +0.000 A 
ATOM      9  C   UNL     1       5.141   6.161  16.427  0.00  0.00    +0.000 A 
ATOM     10  C   UNL     1       4.185   5.362  17.079  0.00  0.00    +0.000 A 
BRANCH   5  11
ATOM     11  C   UNL     1       3.292   2.950  17.437  0.00  0.00    +0.000 C 
ATOM     12  O   UNL     1       3.710   1.925  17.959  0.00  0.00    +0.000 OA
BRANCH  11  14
ATOM     13  C   UNL     1       1.230   2.905  18.513  0.00  0.00    +0.000 C 
ATOM     14  O   UNL     1       1.981   3.295  17.358  0.00  0.00    +0.000 OA
ENDBRANCH  11  14
ENDBRANCH   5  11
ENDBRANCH   1  10
BRANCH   2  15
ATOM     15  C   UNL     1       2.094   6.567  20.029  0.00  0.00    +0.000 C 
BRANCH  15  16
ATOM     16  S   UNL     1       1.844   8.258  19.419  0.00  0.00    +0.000 S 
BRANCH  16  17
ATOM     17  C   UNL     1       1.026   8.968  20.774  0.00  0.00    +0.000 A 
ATOM     18  N   UNL     1       1.360   8.733  22.024  0.00  0.00    +0.000 NA
ATOM     19  N   UNL     1       0.711   9.652  22.809  0.00  0.00    +0.000 NA
ATOM     20  C   UNL     1       0.002  10.420  22.011  0.00  0.00    +0.000 A 
ATOM     21  N   UNL     1       0.094   9.983  20.708  0.00  0.00    +0.000 N 
ATOM     22  C   UNL     1      -0.654  10.522  19.631  0.00  0.00    +0.000 A 
ATOM     23  C   UNL     1      -0.960   9.751  18.512  0.00  0.00    +0.000 A 
ATOM     24  C   UNL     1      -1.710  10.323  17.486  0.00  0.00    +0.000 A 
ATOM     25  C   UNL     1      -2.126  11.644  17.596  0.00  0.00    +0.000 A 
ATOM     26  C   UNL     1      -1.802  12.337  18.748  0.00  0.00    +0.000 A 
ATOM     27  N   UNL     1      -1.099  11.800  19.774  0.00  0.00    +0.000 NA
ENDBRANCH  16  17
ENDBRANCH  15  16
ENDBRANCH   2  15
TORSDOF 6
ENDMDL
