MODEL 1
REMARK VINA RESULT:      -8.7      0.000      0.000
REMARK  Name = 
REMARK  4 active torsions:
REMARK  status: ('A' for Active; 'I' for Inactive)
REMARK    1  A    between atoms: C_1  and  N_2
REMARK    2  A    between atoms: C_12  and  O_13
REMARK    3  A    between atoms: O_13  and  C_14
REMARK    4  A    between atoms: C_14  and  C_15
REMARK                            x       y       z     vdW  Elec       q    Type
REMARK                         _______ _______ _______ _____ _____    ______ ____
ROOT
ATOM      1  C   UNL     1       2.659  13.926  18.166  0.00  0.00    +0.000 C 
ATOM      2  N   UNL     1       1.666  13.673  19.180  0.00  0.00    +0.000 N 
ATOM      3  C   UNL     1       0.952  14.629  19.890  0.00  0.00    +0.000 A 
ATOM      4  C   UNL     1      -0.314  14.104  20.051  0.00  0.00    +0.000 A 
ATOM      5  C   UNL     1      -0.125  12.681  20.037  0.00  0.00    +0.000 A 
ATOM      6  C   UNL     1      -0.825  11.535  20.455  0.00  0.00    +0.000 A 
ATOM      7  C   UNL     1      -0.211  10.282  20.273  0.00  0.00    +0.000 A 
ATOM      8  C   UNL     1       0.989  10.179  19.558  0.00  0.00    +0.000 A 
ATOM      9  N   UNL     1       1.518   8.875  19.270  0.00  0.00    +0.000 N 
ATOM     10  C   UNL     1       1.887   8.545  17.969  0.00  0.00    +0.000 A 
ATOM     11  C   UNL     1       2.318   7.322  17.642  0.00  0.00    +0.000 A 
ATOM     12  C   UNL     1       2.454   6.301  18.653  0.00  0.00    +0.000 A 
ATOM     13  C   UNL     1       2.218   6.614  19.941  0.00  0.00    +0.000 A 
ATOM     14  C   UNL     1       1.694   7.958  20.321  0.00  0.00    +0.000 A 
ATOM     15  O   UNL     1       1.469   8.169  21.512  0.00  0.00    +0.000 OA
ATOM     16  N   UNL     1       1.634  11.255  19.043  0.00  0.00    +0.000 NA
ATOM     17  C   UNL     1       1.101  12.443  19.399  0.00  0.00    +0.000 A 
ATOM     18  C   UNL     1      -1.522  14.945  20.313  0.00  0.00    +0.000 C 
ATOM     19  N   UNL     1      -1.251  16.222  21.015  0.00  0.00    +0.000 NA
ATOM     20  C   UNL     1      -0.719  17.323  20.204  0.00  0.00    +0.000 C 
ATOM     21  C   UNL     1       0.777  17.401  20.097  0.00  0.00    +0.000 C 
ATOM     22  C   UNL     1       1.495  16.043  20.356  0.00  0.00    +0.000 C 
ATOM     23  C   UNL     1       1.107  15.888  21.850  0.00  0.00    +0.000 C 
ATOM     24  C   UNL     1      -0.409  16.023  22.192  0.00  0.00    +0.000 C 
ENDROOT
BRANCH  12  25
ATOM     25  O   UNL     1       2.860   5.023  18.320  0.00  0.00    +0.000 OA
BRANCH  25  26
ATOM     26  C   UNL     1       3.903   4.927  17.344  0.00  0.00    +0.000 C 
BRANCH  26  27
ATOM     27  C   UNL     1       5.176   5.553  17.815  0.00  0.00    +0.000 A 
ATOM     28  C   UNL     1       5.863   5.142  18.976  0.00  0.00    +0.000 A 
ATOM     29  C   UNL     1       7.096   5.701  19.326  0.00  0.00    +0.000 A 
ATOM     30  C   UNL     1       7.652   6.686  18.503  0.00  0.00    +0.000 A 
ATOM     31  F   UNL     1       8.832   7.219  18.828  0.00  0.00    +0.000 F 
ATOM     32  C   UNL     1       7.001   7.113  17.346  0.00  0.00    +0.000 A 
ATOM     33  C   UNL     1       5.783   6.545  17.023  0.00  0.00    +0.000 A 
ATOM     34  F   UNL     1       5.168   6.945  15.895  0.00  0.00    +0.000 F 
ENDBRANCH  26  27
ENDBRANCH  25  26
ENDBRANCH  12  25
TORSDOF 3
ENDMDL
MODEL 2
REMARK VINA RESULT:      -8.7      0.819      1.164
REMARK  Name = 
REMARK  4 active torsions:
REMARK  status: ('A' for Active; 'I' for Inactive)
REMARK    1  A    between atoms: C_1  and  N_2
REMARK    2  A    between atoms: C_12  and  O_13
REMARK    3  A    between atoms: O_13  and  C_14
REMARK    4  A    between atoms: C_14  and  C_15
REMARK                            x       y       z     vdW  Elec       q    Type
REMARK                         _______ _______ _______ _____ _____    ______ ____
ROOT
ATOM      1  C   UNL     1       2.381  14.078  18.280  0.00  0.00    +0.000 C 
ATOM      2  N   UNL     1       1.390  13.773  19.282  0.00  0.00    +0.000 N 
ATOM      3  C   UNL     1       0.627  14.690  19.992  0.00  0.00    +0.000 A 
ATOM      4  C   UNL     1      -0.616  14.108  20.136  0.00  0.00    +0.000 A 
ATOM      5  C   UNL     1      -0.363  12.695  20.112  0.00  0.00    +0.000 A 
ATOM      6  C   UNL     1      -1.016  11.516  20.513  0.00  0.00    +0.000 A 
ATOM      7  C   UNL     1      -0.346  10.293  20.328  0.00  0.00    +0.000 A 
ATOM      8  C   UNL     1       0.866  10.249  19.625  0.00  0.00    +0.000 A 
ATOM      9  N   UNL     1       1.455   8.973  19.333  0.00  0.00    +0.000 N 
ATOM     10  C   UNL     1       1.851   8.670  18.034  0.00  0.00    +0.000 A 
ATOM     11  C   UNL     1       2.340   7.470  17.701  0.00  0.00    +0.000 A 
ATOM     12  C   UNL     1       2.511   6.448  18.706  0.00  0.00    +0.000 A 
ATOM     13  C   UNL     1       2.248   6.739  19.993  0.00  0.00    +0.000 A 
ATOM     14  C   UNL     1       1.660   8.055  20.378  0.00  0.00    +0.000 A 
ATOM     15  O   UNL     1       1.415   8.247  21.568  0.00  0.00    +0.000 OA
ATOM     16  N   UNL     1       1.467  11.357  19.126  0.00  0.00    +0.000 NA
ATOM     17  C   UNL     1       0.878  12.517  19.485  0.00  0.00    +0.000 A 
ATOM     18  C   UNL     1      -1.863  14.893  20.391  0.00  0.00    +0.000 C 
ATOM     19  N   UNL     1      -1.656  16.174  21.106  0.00  0.00    +0.000 NA
ATOM     20  C   UNL     1      -1.166  17.305  20.310  0.00  0.00    +0.000 C 
ATOM     21  C   UNL     1       0.326  17.450  20.219  0.00  0.00    +0.000 C 
ATOM     22  C   UNL     1       1.102  16.123  20.475  0.00  0.00    +0.000 C 
ATOM     23  C   UNL     1       0.706  15.939  21.963  0.00  0.00    +0.000 C 
ATOM     24  C   UNL     1      -0.819  16.003  22.290  0.00  0.00    +0.000 C 
ENDROOT
BRANCH  12  25
ATOM     25  O   UNL     1       2.976   5.192  18.367  0.00  0.00    +0.000 OA
BRANCH  25  26
ATOM     26  C   UNL     1       3.895   5.135  17.269  0.00  0.00    +0.000 C 
BRANCH  26  27
ATOM     27  C   UNL     1       5.239   5.678  17.630  0.00  0.00    +0.000 A 
ATOM     28  C   UNL     1       5.838   6.774  16.973  0.00  0.00    +0.000 A 
ATOM     29  C   UNL     1       7.059   7.300  17.405  0.00  0.00    +0.000 A 
ATOM     30  C   UNL     1       7.692   6.724  18.511  0.00  0.00    +0.000 A 
ATOM     31  F   UNL     1       8.855   7.226  18.934  0.00  0.00    +0.000 F 
ATOM     32  C   UNL     1       7.125   5.643  19.186  0.00  0.00    +0.000 A 
ATOM     33  C   UNL     1       5.918   5.140  18.738  0.00  0.00    +0.000 A 
ATOM     34  F   UNL     1       5.366   4.110  19.404  0.00  0.00    +0.000 F 
ENDBRANCH  26  27
ENDBRANCH  25  26
ENDBRANCH  12  25
TORSDOF 3
ENDMDL
MODEL 3
REMARK VINA RESULT:      -8.7      3.300      4.697
REMARK  Name = 
REMARK  4 active torsions:
REMARK  status: ('A' for Active; 'I' for Inactive)
REMARK    1  A    between atoms: C_1  and  N_2
REMARK    2  A    between atoms: C_12  and  O_13
REMARK    3  A    between atoms: O_13  and  C_14
REMARK    4  A    between atoms: C_14  and  C_15
REMARK                            x       y       z     vdW  Elec       q    Type
REMARK                         _______ _______ _______ _____ _____    ______ ____
ROOT
ATOM      1  C   UNL     1      -0.854  15.814  20.678  0.00  0.00    +0.000 C 
ATOM      2  N   UNL     1      -1.514  15.248  21.829  0.00  0.00    +0.000 N 
ATOM      3  C   UNL     1      -2.331  15.924  22.724  0.00  0.00    +0.000 A 
ATOM      4  C   UNL     1      -3.328  15.032  23.065  0.00  0.00    +0.000 A 
ATOM      5  C   UNL     1      -2.729  13.737  22.909  0.00  0.00    +0.000 A 
ATOM      6  C   UNL     1      -2.962  12.424  23.353  0.00  0.00    +0.000 A 
ATOM      7  C   UNL     1      -2.049  11.424  22.971  0.00  0.00    +0.000 A 
ATOM      8  C   UNL     1      -1.032  11.709  22.050  0.00  0.00    +0.000 A 
ATOM      9  N   UNL     1      -0.203  10.637  21.575  0.00  0.00    +0.000 N 
ATOM     10  C   UNL     1      -0.008  10.461  20.208  0.00  0.00    +0.000 A 
ATOM     11  C   UNL     1       0.697   9.436  19.717  0.00  0.00    +0.000 A 
ATOM     12  C   UNL     1       1.322   8.488  20.608  0.00  0.00    +0.000 A 
ATOM     13  C   UNL     1       1.254   8.688  21.937  0.00  0.00    +0.000 A 
ATOM     14  C   UNL     1       0.435   9.798  22.505  0.00  0.00    +0.000 A 
ATOM     15  O   UNL     1       0.389   9.907  23.730  0.00  0.00    +0.000 OA
ATOM     16  N   UNL     1      -0.849  12.941  21.514  0.00  0.00    +0.000 NA
ATOM     17  C   UNL     1      -1.634  13.900  22.049  0.00  0.00    +0.000 A 
ATOM     18  C   UNL     1      -4.658  15.457  23.599  0.00  0.00    +0.000 C 
ATOM     19  N   UNL     1      -4.652  16.741  24.338  0.00  0.00    +0.000 NA
ATOM     20  C   UNL     1      -4.638  17.968  23.534  0.00  0.00    +0.000 C 
ATOM     21  C   UNL     1      -3.283  18.504  23.171  0.00  0.00    +0.000 C 
ATOM     22  C   UNL     1      -2.156  17.428  23.195  0.00  0.00    +0.000 C 
ATOM     23  C   UNL     1      -2.188  17.132  24.718  0.00  0.00    +0.000 C 
ATOM     24  C   UNL     1      -3.581  16.787  25.330  0.00  0.00    +0.000 C 
ENDROOT
BRANCH  12  25
ATOM     25  O   UNL     1       2.019   7.402  20.111  0.00  0.00    +0.000 OA
BRANCH  25  26
ATOM     26  C   UNL     1       1.751   6.142  20.737  0.00  0.00    +0.000 C 
BRANCH  26  27
ATOM     27  C   UNL     1       1.860   5.002  19.778  0.00  0.00    +0.000 A 
ATOM     28  C   UNL     1       2.159   5.161  18.409  0.00  0.00    +0.000 A 
ATOM     29  C   UNL     1       2.336   4.057  17.570  0.00  0.00    +0.000 A 
ATOM     30  C   UNL     1       2.215   2.771  18.108  0.00  0.00    +0.000 A 
ATOM     31  F   UNL     1       2.390   1.711  17.315  0.00  0.00    +0.000 F 
ATOM     32  C   UNL     1       1.925   2.577  19.458  0.00  0.00    +0.000 A 
ATOM     33  C   UNL     1       1.752   3.686  20.265  0.00  0.00    +0.000 A 
ATOM     34  F   UNL     1       1.492   3.495  21.572  0.00  0.00    +0.000 F 
ENDBRANCH  26  27
ENDBRANCH  25  26
ENDBRANCH  12  25
TORSDOF 3
ENDMDL
MODEL 4
REMARK VINA RESULT:      -8.6      1.281      1.761
REMARK  Name = 
REMARK  4 active torsions:
REMARK  status: ('A' for Active; 'I' for Inactive)
REMARK    1  A    between atoms: C_1  and  N_2
REMARK    2  A    between atoms: C_12  and  O_13
REMARK    3  A    between atoms: O_13  and  C_14
REMARK    4  A    between atoms: C_14  and  C_15
REMARK                            x       y       z     vdW  Elec       q    Type
REMARK                         _______ _______ _______ _____ _____    ______ ____
ROOT
ATOM      1  C   UNL     1       3.199  13.988  18.021  0.00  0.00    +0.000 C 
ATOM      2  N   UNL     1       2.069  13.910  18.914  0.00  0.00    +0.000 N 
ATOM      3  C   UNL     1       1.357  14.981  19.436  0.00  0.00    +0.000 A 
ATOM      4  C   UNL     1       0.040  14.569  19.475  0.00  0.00    +0.000 A 
ATOM      5  C   UNL     1       0.108  13.141  19.612  0.00  0.00    +0.000 A 
ATOM      6  C   UNL     1      -0.734  12.097  20.033  0.00  0.00    +0.000 A 
ATOM      7  C   UNL     1      -0.213  10.791  20.046  0.00  0.00    +0.000 A 
ATOM      8  C   UNL     1       1.055  10.530  19.507  0.00  0.00    +0.000 A 
ATOM      9  N   UNL     1       1.502   9.168  19.408  0.00  0.00    +0.000 N 
ATOM     10  C   UNL     1       1.999   8.685  18.201  0.00  0.00    +0.000 A 
ATOM     11  C   UNL     1       2.362   7.408  18.043  0.00  0.00    +0.000 A 
ATOM     12  C   UNL     1       2.283   6.485  19.150  0.00  0.00    +0.000 A 
ATOM     13  C   UNL     1       1.916   6.939  20.362  0.00  0.00    +0.000 A 
ATOM     14  C   UNL     1       1.466   8.349  20.549  0.00  0.00    +0.000 A 
ATOM     15  O   UNL     1       1.114   8.693  21.677  0.00  0.00    +0.000 OA
ATOM     16  N   UNL     1       1.847  11.499  18.988  0.00  0.00    +0.000 NA
ATOM     17  C   UNL     1       1.378  12.753  19.165  0.00  0.00    +0.000 A 
ATOM     18  C   UNL     1      -1.114  15.519  19.500  0.00  0.00    +0.000 C 
ATOM     19  N   UNL     1      -0.824  16.835  20.116  0.00  0.00    +0.000 NA
ATOM     20  C   UNL     1      -0.104  17.809  19.289  0.00  0.00    +0.000 C 
ATOM     21  C   UNL     1       1.395  17.766  19.373  0.00  0.00    +0.000 C 
ATOM     22  C   UNL     1       1.957  16.391  19.844  0.00  0.00    +0.000 C 
ATOM     23  C   UNL     1       1.374  16.413  21.281  0.00  0.00    +0.000 C 
ATOM     24  C   UNL     1      -0.156  16.692  21.407  0.00  0.00    +0.000 C 
ENDROOT
BRANCH  12  25
ATOM     25  O   UNL     1       2.616   5.153  18.987  0.00  0.00    +0.000 OA
BRANCH  25  26
ATOM     26  C   UNL     1       3.934   4.778  19.404  0.00  0.00    +0.000 C 
BRANCH  26  27
ATOM     27  C   UNL     1       4.867   4.616  18.248  0.00  0.00    +0.000 A 
ATOM     28  C   UNL     1       4.448   4.226  16.959  0.00  0.00    +0.000 A 
ATOM     29  C   UNL     1       5.346   4.173  15.889  0.00  0.00    +0.000 A 
ATOM     30  C   UNL     1       6.684   4.517  16.109  0.00  0.00    +0.000 A 
ATOM     31  F   UNL     1       7.546   4.476  15.090  0.00  0.00    +0.000 F 
ATOM     32  C   UNL     1       7.131   4.910  17.370  0.00  0.00    +0.000 A 
ATOM     33  C   UNL     1       6.223   4.953  18.412  0.00  0.00    +0.000 A 
ATOM     34  F   UNL     1       6.653   5.352  19.622  0.00  0.00    +0.000 F 
ENDBRANCH  26  27
ENDBRANCH  25  26
ENDBRANCH  12  25
TORSDOF 3
ENDMDL
MODEL 5
REMARK VINA RESULT:      -8.6      3.865      9.974
REMARK  Name = 
REMARK  4 active torsions:
REMARK  status: ('A' for Active; 'I' for Inactive)
REMARK    1  A    between atoms: C_1  and  N_2
REMARK    2  A    between atoms: C_12  and  O_13
REMARK    3  A    between atoms: O_13  and  C_14
REMARK    4  A    between atoms: C_14  and  C_15
REMARK                            x       y       z     vdW  Elec       q    Type
REMARK                         _______ _______ _______ _____ _____    ______ ____
ROOT
ATOM      1  C   UNL     1       3.887   7.019  17.212  0.00  0.00    +0.000 C 
ATOM      2  N   UNL     1       2.910   6.640  18.202  0.00  0.00    +0.000 N 
ATOM      3  C   UNL     1       2.708   5.366  18.714  0.00  0.00    +0.000 A 
ATOM      4  C   UNL     1       2.399   5.546  20.047  0.00  0.00    +0.000 A 
ATOM      5  C   UNL     1       1.798   6.848  20.112  0.00  0.00    +0.000 A 
ATOM      6  C   UNL     1       0.967   7.567  20.989  0.00  0.00    +0.000 A 
ATOM      7  C   UNL     1       0.570   8.862  20.611  0.00  0.00    +0.000 A 
ATOM      8  C   UNL     1       1.115   9.465  19.470  0.00  0.00    +0.000 A 
ATOM      9  N   UNL     1       0.796  10.837  19.187  0.00  0.00    +0.000 N 
ATOM     10  C   UNL     1       1.814  11.749  18.923  0.00  0.00    +0.000 A 
ATOM     11  C   UNL     1       1.569  13.048  18.724  0.00  0.00    +0.000 A 
ATOM     12  C   UNL     1       0.215  13.546  18.738  0.00  0.00    +0.000 A 
ATOM     13  C   UNL     1      -0.805  12.679  18.876  0.00  0.00    +0.000 A 
ATOM     14  C   UNL     1      -0.552  11.233  19.144  0.00  0.00    +0.000 A 
ATOM     15  O   UNL     1      -1.528  10.499  19.291  0.00  0.00    +0.000 OA
ATOM     16  N   UNL     1       2.007   8.840  18.663  0.00  0.00    +0.000 NA
ATOM     17  C   UNL     1       2.216   7.542  18.967  0.00  0.00    +0.000 A 
ATOM     18  C   UNL     1       2.578   4.479  21.080  0.00  0.00    +0.000 C 
ATOM     19  N   UNL     1       2.473   3.093  20.567  0.00  0.00    +0.000 NA
ATOM     20  C   UNL     1       3.649   2.552  19.876  0.00  0.00    +0.000 C 
ATOM     21  C   UNL     1       3.708   2.786  18.393  0.00  0.00    +0.000 C 
ATOM     22  C   UNL     1       2.862   4.005  17.917  0.00  0.00    +0.000 C 
ATOM     23  C   UNL     1       1.464   3.438  18.280  0.00  0.00    +0.000 C 
ATOM     24  C   UNL     1       1.285   2.912  19.738  0.00  0.00    +0.000 C 
ENDROOT
BRANCH  12  25
ATOM     25  O   UNL     1      -0.047  14.893  18.574  0.00  0.00    +0.000 OA
BRANCH  25  26
ATOM     26  C   UNL     1       0.307  15.742  19.672  0.00  0.00    +0.000 C 
BRANCH  26  27
ATOM     27  C   UNL     1      -0.561  15.511  20.866  0.00  0.00    +0.000 A 
ATOM     28  C   UNL     1      -1.926  15.864  20.917  0.00  0.00    +0.000 A 
ATOM     29  C   UNL     1      -2.717  15.548  22.026  0.00  0.00    +0.000 A 
ATOM     30  C   UNL     1      -2.136  14.866  23.100  0.00  0.00    +0.000 A 
ATOM     31  F   UNL     1      -2.888  14.554  24.159  0.00  0.00    +0.000 F 
ATOM     32  C   UNL     1      -0.791  14.499  23.081  0.00  0.00    +0.000 A 
ATOM     33  C   UNL     1      -0.031  14.825  21.974  0.00  0.00    +0.000 A 
ATOM     34  F   UNL     1       1.262  14.450  21.951  0.00  0.00    +0.000 F 
ENDBRANCH  26  27
ENDBRANCH  25  26
ENDBRANCH  12  25
TORSDOF 3
ENDMDL
MODEL 6
REMARK VINA RESULT:      -8.5      4.342     10.548
REMARK  Name = 
REMARK  4 active torsions:
REMARK  status: ('A' for Active; 'I' for Inactive)
REMARK    1  A    between atoms: C_1  and  N_2
REMARK    2  A    between atoms: C_12  and  O_13
REMARK    3  A    between atoms: O_13  and  C_14
REMARK    4  A    between atoms: C_14  and  C_15
REMARK                            x       y       z     vdW  Elec       q    Type
REMARK                         _______ _______ _______ _____ _____    ______ ____
ROOT
ATOM      1  C   UNL     1       3.875   7.155  17.286  0.00  0.00    +0.000 C 
ATOM      2  N   UNL     1       2.864   6.824  18.260  0.00  0.00    +0.000 N 
ATOM      3  C   UNL     1       2.610   5.566  18.788  0.00  0.00    +0.000 A 
ATOM      4  C   UNL     1       2.277   5.777  20.110  0.00  0.00    +0.000 A 
ATOM      5  C   UNL     1       1.717   7.099  20.140  0.00  0.00    +0.000 A 
ATOM      6  C   UNL     1       0.891   7.859  20.987  0.00  0.00    +0.000 A 
ATOM      7  C   UNL     1       0.544   9.160  20.580  0.00  0.00    +0.000 A 
ATOM      8  C   UNL     1       1.135   9.726  19.442  0.00  0.00    +0.000 A 
ATOM      9  N   UNL     1       0.866  11.102  19.130  0.00  0.00    +0.000 N 
ATOM     10  C   UNL     1       1.919  11.976  18.875  0.00  0.00    +0.000 A 
ATOM     11  C   UNL     1       1.722  13.279  18.650  0.00  0.00    +0.000 A 
ATOM     12  C   UNL     1       0.384  13.821  18.625  0.00  0.00    +0.000 A 
ATOM     13  C   UNL     1      -0.666  12.989  18.753  0.00  0.00    +0.000 A 
ATOM     14  C   UNL     1      -0.467  11.541  19.049  0.00  0.00    +0.000 A 
ATOM     15  O   UNL     1      -1.469  10.841  19.186  0.00  0.00    +0.000 OA
ATOM     16  N   UNL     1       2.024   9.059  18.665  0.00  0.00    +0.000 NA
ATOM     17  C   UNL     1       2.183   7.760  18.995  0.00  0.00    +0.000 A 
ATOM     18  C   UNL     1       2.398   4.723  21.163  0.00  0.00    +0.000 C 
ATOM     19  N   UNL     1       2.260   3.332  20.670  0.00  0.00    +0.000 NA
ATOM     20  C   UNL     1       3.432   2.743  20.014  0.00  0.00    +0.000 C 
ATOM     21  C   UNL     1       3.532   2.950  18.530  0.00  0.00    +0.000 C 
ATOM     22  C   UNL     1       2.737   4.187  18.015  0.00  0.00    +0.000 C 
ATOM     23  C   UNL     1       1.314   3.672  18.355  0.00  0.00    +0.000 C 
ATOM     24  C   UNL     1       1.085   3.176  19.817  0.00  0.00    +0.000 C 
ENDROOT
BRANCH  12  25
ATOM     25  O   UNL     1       0.170  15.173  18.434  0.00  0.00    +0.000 OA
BRANCH  25  26
ATOM     26  C   UNL     1      -0.016  15.955  19.619  0.00  0.00    +0.000 C 
BRANCH  26  27
ATOM     27  C   UNL     1      -1.379  16.565  19.685  0.00  0.00    +0.000 A 
ATOM     28  C   UNL     1      -2.374  16.151  20.595  0.00  0.00    +0.000 A 
ATOM     29  C   UNL     1      -3.604  16.811  20.676  0.00  0.00    +0.000 A 
ATOM     30  C   UNL     1      -3.843  17.904  19.836  0.00  0.00    +0.000 A 
ATOM     31  F   UNL     1      -5.013  18.544  19.913  0.00  0.00    +0.000 F 
ATOM     32  C   UNL     1      -2.879  18.342  18.928  0.00  0.00    +0.000 A 
ATOM     33  C   UNL     1      -1.673  17.671  18.867  0.00  0.00    +0.000 A 
ATOM     34  F   UNL     1      -0.738  18.110  18.004  0.00  0.00    +0.000 F 
ENDBRANCH  26  27
ENDBRANCH  25  26
ENDBRANCH  12  25
TORSDOF 3
ENDMDL
MODEL 7
REMARK VINA RESULT:      -8.5      4.301     10.582
REMARK  Name = 
REMARK  4 active torsions:
REMARK  status: ('A' for Active; 'I' for Inactive)
REMARK    1  A    between atoms: C_1  and  N_2
REMARK    2  A    between atoms: C_12  and  O_13
REMARK    3  A    between atoms: O_13  and  C_14
REMARK    4  A    between atoms: C_14  and  C_15
REMARK                            x       y       z     vdW  Elec       q    Type
REMARK                         _______ _______ _______ _____ _____    ______ ____
ROOT
ATOM      1  C   UNL     1       3.875   7.127  17.250  0.00  0.00    +0.000 C 
ATOM      2  N   UNL     1       2.882   6.783  18.237  0.00  0.00    +0.000 N 
ATOM      3  C   UNL     1       2.661   5.524  18.779  0.00  0.00    +0.000 A 
ATOM      4  C   UNL     1       2.337   5.740  20.103  0.00  0.00    +0.000 A 
ATOM      5  C   UNL     1       1.749   7.050  20.127  0.00  0.00    +0.000 A 
ATOM      6  C   UNL     1       0.915   7.799  20.975  0.00  0.00    +0.000 A 
ATOM      7  C   UNL     1       0.535   9.088  20.560  0.00  0.00    +0.000 A 
ATOM      8  C   UNL     1       1.101   9.657  19.410  0.00  0.00    +0.000 A 
ATOM      9  N   UNL     1       0.799  11.023  19.089  0.00  0.00    +0.000 N 
ATOM     10  C   UNL     1       1.829  11.918  18.815  0.00  0.00    +0.000 A 
ATOM     11  C   UNL     1       1.601  13.214  18.580  0.00  0.00    +0.000 A 
ATOM     12  C   UNL     1       0.251  13.726  18.565  0.00  0.00    +0.000 A 
ATOM     13  C   UNL     1      -0.779  12.873  18.711  0.00  0.00    +0.000 A 
ATOM     14  C   UNL     1      -0.544  11.432  19.019  0.00  0.00    +0.000 A 
ATOM     15  O   UNL     1      -1.530  10.711  19.172  0.00  0.00    +0.000 OA
ATOM     16  N   UNL     1       1.996   9.003  18.631  0.00  0.00    +0.000 NA
ATOM     17  C   UNL     1       2.188   7.710  18.971  0.00  0.00    +0.000 A 
ATOM     18  C   UNL     1       2.492   4.699  21.164  0.00  0.00    +0.000 C 
ATOM     19  N   UNL     1       2.380   3.301  20.685  0.00  0.00    +0.000 NA
ATOM     20  C   UNL     1       3.558   2.731  20.022  0.00  0.00    +0.000 C 
ATOM     21  C   UNL     1       3.638   2.927  18.535  0.00  0.00    +0.000 C 
ATOM     22  C   UNL     1       2.810   4.142  18.018  0.00  0.00    +0.000 C 
ATOM     23  C   UNL     1       1.403   3.598  18.378  0.00  0.00    +0.000 C 
ATOM     24  C   UNL     1       1.200   3.111  19.846  0.00  0.00    +0.000 C 
ENDROOT
BRANCH  12  25
ATOM     25  O   UNL     1       0.005  15.071  18.363  0.00  0.00    +0.000 OA
BRANCH  25  26
ATOM     26  C   UNL     1      -0.052  15.885  19.541  0.00  0.00    +0.000 C 
BRANCH  26  27
ATOM     27  C   UNL     1      -1.311  16.686  19.613  0.00  0.00    +0.000 A 
ATOM     28  C   UNL     1      -1.575  17.797  18.785  0.00  0.00    +0.000 A 
ATOM     29  C   UNL     1      -2.805  18.461  18.831  0.00  0.00    +0.000 A 
ATOM     30  C   UNL     1      -3.787  18.006  19.716  0.00  0.00    +0.000 A 
ATOM     31  F   UNL     1      -4.967  18.631  19.760  0.00  0.00    +0.000 F 
ATOM     32  C   UNL     1      -3.561  16.909  20.545  0.00  0.00    +0.000 A 
ATOM     33  C   UNL     1      -2.336  16.271  20.482  0.00  0.00    +0.000 A 
ATOM     34  F   UNL     1      -2.129  15.200  21.269  0.00  0.00    +0.000 F 
ENDBRANCH  26  27
ENDBRANCH  25  26
ENDBRANCH  12  25
TORSDOF 3
ENDMDL
MODEL 8
REMARK VINA RESULT:      -8.4      4.174     10.051
REMARK  Name = 
REMARK  4 active torsions:
REMARK  status: ('A' for Active; 'I' for Inactive)
REMARK    1  A    between atoms: C_1  and  N_2
REMARK    2  A    between atoms: C_12  and  O_13
REMARK    3  A    between atoms: O_13  and  C_14
REMARK    4  A    between atoms: C_14  and  C_15
REMARK                            x       y       z     vdW  Elec       q    Type
REMARK                         _______ _______ _______ _____ _____    ______ ____
ROOT
ATOM      1  C   UNL     1       3.856   7.196  17.254  0.00  0.00    +0.000 C 
ATOM      2  N   UNL     1       2.859   6.836  18.231  0.00  0.00    +0.000 N 
ATOM      3  C   UNL     1       2.632   5.567  18.746  0.00  0.00    +0.000 A 
ATOM      4  C   UNL     1       2.306   5.757  20.073  0.00  0.00    +0.000 A 
ATOM      5  C   UNL     1       1.723   7.068  20.123  0.00  0.00    +0.000 A 
ATOM      6  C   UNL     1       0.890   7.802  20.985  0.00  0.00    +0.000 A 
ATOM      7  C   UNL     1       0.516   9.101  20.596  0.00  0.00    +0.000 A 
ATOM      8  C   UNL     1       1.087   9.692  19.460  0.00  0.00    +0.000 A 
ATOM      9  N   UNL     1       0.791  11.066  19.168  0.00  0.00    +0.000 N 
ATOM     10  C   UNL     1       1.826  11.962  18.914  0.00  0.00    +0.000 A 
ATOM     11  C   UNL     1       1.603  13.264  18.706  0.00  0.00    +0.000 A 
ATOM     12  C   UNL     1       0.256  13.781  18.698  0.00  0.00    +0.000 A 
ATOM     13  C   UNL     1      -0.779  12.929  18.825  0.00  0.00    +0.000 A 
ATOM     14  C   UNL     1      -0.550  11.482  19.102  0.00  0.00    +0.000 A 
ATOM     15  O   UNL     1      -1.539  10.762  19.238  0.00  0.00    +0.000 OA
ATOM     16  N   UNL     1       1.982   9.050  18.669  0.00  0.00    +0.000 NA
ATOM     17  C   UNL     1       2.167   7.750  18.982  0.00  0.00    +0.000 A 
ATOM     18  C   UNL     1       2.455   4.692  21.113  0.00  0.00    +0.000 C 
ATOM     19  N   UNL     1       2.338   3.305  20.604  0.00  0.00    +0.000 NA
ATOM     20  C   UNL     1       3.515   2.745  19.933  0.00  0.00    +0.000 C 
ATOM     21  C   UNL     1       3.600   2.971  18.450  0.00  0.00    +0.000 C 
ATOM     22  C   UNL     1       2.778   4.200  17.956  0.00  0.00    +0.000 C 
ATOM     23  C   UNL     1       1.367   3.655  18.302  0.00  0.00    +0.000 C 
ATOM     24  C   UNL     1       1.159   3.138  19.759  0.00  0.00    +0.000 C 
ENDROOT
BRANCH  12  25
ATOM     25  O   UNL     1       0.015  15.131  18.525  0.00  0.00    +0.000 OA
BRANCH  25  26
ATOM     26  C   UNL     1       0.416  15.986  19.602  0.00  0.00    +0.000 C 
BRANCH  26  27
ATOM     27  C   UNL     1      -0.405  15.767  20.831  0.00  0.00    +0.000 A 
ATOM     28  C   UNL     1       0.112  15.226  22.027  0.00  0.00    +0.000 A 
ATOM     29  C   UNL     1      -0.676  15.122  23.177  0.00  0.00    +0.000 A 
ATOM     30  C   UNL     1      -2.001  15.568  23.134  0.00  0.00    +0.000 A 
ATOM     31  F   UNL     1      -2.757  15.479  24.231  0.00  0.00    +0.000 F 
ATOM     32  C   UNL     1      -2.542  16.112  21.970  0.00  0.00    +0.000 A 
ATOM     33  C   UNL     1      -1.743  16.202  20.846  0.00  0.00    +0.000 A 
ATOM     34  F   UNL     1      -2.263  16.747  19.731  0.00  0.00    +0.000 F 
ENDBRANCH  26  27
ENDBRANCH  25  26
ENDBRANCH  12  25
TORSDOF 3
ENDMDL
MODEL 9
REMARK VINA RESULT:      -8.4      2.447      3.503
REMARK  Name = 
REMARK  4 active torsions:
REMARK  status: ('A' for Active; 'I' for Inactive)
REMARK    1  A    between atoms: C_1  and  N_2
REMARK    2  A    between atoms: C_12  and  O_13
REMARK    3  A    between atoms: O_13  and  C_14
REMARK    4  A    between atoms: C_14  and  C_15
REMARK                            x       y       z     vdW  Elec       q    Type
REMARK                         _______ _______ _______ _____ _____    ______ ____
ROOT
ATOM      1  C   UNL     1       0.386  15.639  21.070  0.00  0.00    +0.000 C 
ATOM      2  N   UNL     1      -0.188  14.854  22.134  0.00  0.00    +0.000 N 
ATOM      3  C   UNL     1      -0.808  15.342  23.276  0.00  0.00    +0.000 A 
ATOM      4  C   UNL     1      -1.851  14.476  23.534  0.00  0.00    +0.000 A 
ATOM      5  C   UNL     1      -1.426  13.219  22.983  0.00  0.00    +0.000 A 
ATOM      6  C   UNL     1      -1.752  11.859  23.127  0.00  0.00    +0.000 A 
ATOM      7  C   UNL     1      -1.012  10.920  22.386  0.00  0.00    +0.000 A 
ATOM      8  C   UNL     1      -0.089  11.347  21.422  0.00  0.00    +0.000 A 
ATOM      9  N   UNL     1       0.548  10.369  20.586  0.00  0.00    +0.000 N 
ATOM     10  C   UNL     1       0.554  10.531  19.204  0.00  0.00    +0.000 A 
ATOM     11  C   UNL     1       1.073   9.613  18.383  0.00  0.00    +0.000 A 
ATOM     12  C   UNL     1       1.689   8.422  18.916  0.00  0.00    +0.000 A 
ATOM     13  C   UNL     1       1.807   8.282  20.250  0.00  0.00    +0.000 A 
ATOM     14  C   UNL     1       1.195   9.273  21.183  0.00  0.00    +0.000 A 
ATOM     15  O   UNL     1       1.312   9.070  22.390  0.00  0.00    +0.000 OA
ATOM     16  N   UNL     1       0.166  12.656  21.178  0.00  0.00    +0.000 NA
ATOM     17  C   UNL     1      -0.433  13.508  22.037  0.00  0.00    +0.000 A 
ATOM     18  C   UNL     1      -3.049  14.855  24.343  0.00  0.00    +0.000 C 
ATOM     19  N   UNL     1      -2.806  15.904  25.361  0.00  0.00    +0.000 NA
ATOM     20  C   UNL     1      -2.751  17.290  24.883  0.00  0.00    +0.000 C 
ATOM     21  C   UNL     1      -1.398  17.791  24.466  0.00  0.00    +0.000 C 
ATOM     22  C   UNL     1      -0.406  16.658  24.064  0.00  0.00    +0.000 C 
ATOM     23  C   UNL     1      -0.286  15.988  25.459  0.00  0.00    +0.000 C 
ATOM     24  C   UNL     1      -1.624  15.611  26.167  0.00  0.00    +0.000 C 
ENDROOT
BRANCH  12  25
ATOM     25  O   UNL     1       2.193   7.447  18.077  0.00  0.00    +0.000 OA
BRANCH  25  26
ATOM     26  C   UNL     1       3.193   6.588  18.637  0.00  0.00    +0.000 C 
BRANCH  26  27
ATOM     27  C   UNL     1       3.955   5.849  17.585  0.00  0.00    +0.000 A 
ATOM     28  C   UNL     1       4.786   6.481  16.637  0.00  0.00    +0.000 A 
ATOM     29  C   UNL     1       5.547   5.739  15.728  0.00  0.00    +0.000 A 
ATOM     30  C   UNL     1       5.478   4.342  15.770  0.00  0.00    +0.000 A 
ATOM     31  F   UNL     1       6.208   3.626  14.910  0.00  0.00    +0.000 F 
ATOM     32  C   UNL     1       4.671   3.685  16.697  0.00  0.00    +0.000 A 
ATOM     33  C   UNL     1       3.928   4.442  17.583  0.00  0.00    +0.000 A 
ATOM     34  F   UNL     1       3.165   3.804  18.490  0.00  0.00    +0.000 F 
ENDBRANCH  26  27
ENDBRANCH  25  26
ENDBRANCH  12  25
TORSDOF 3
ENDMDL
