MODEL 1
REMARK VINA RESULT:      -7.7      0.000      0.000
REMARK  Name = 
REMARK  14 active torsions:
REMARK  status: ('A' for Active; 'I' for Inactive)
REMARK    1  A    between atoms: C_1  and  C_2
REMARK    2  A    between atoms: C_2  and  C_3
REMARK    3  A    between atoms: C_3  and  N_4
REMARK    4  A    between atoms: C_3  and  C_19
REMARK    5  A    between atoms: C_5  and  S_6
REMARK    6  A    between atoms: N_7  and  C_8
REMARK    7  A    between atoms: C_8  and  C_9
REMARK    8  A    between atoms: C_12  and  C_13
REMARK    9  A    between atoms: C_13  and  C_14
REMARK   10  A    between atoms: C_13  and  C_15
REMARK   11  A    between atoms: C_13  and  C_16
REMARK   12  A    between atoms: C_22  and  N_23
REMARK   13  A    between atoms: N_23  and  S_24
REMARK   14  A    between atoms: S_24  and  C_25
REMARK                            x       y       z     vdW  Elec       q    Type
REMARK                         _______ _______ _______ _____ _____    ______ ____
ROOT
ATOM      1  N   UNL     1       6.872   6.635  16.577  0.00  0.00    +0.000 NA
ATOM      2  C   UNL     1       7.344   6.912  17.740  0.00  0.00    +0.000 C 
ATOM      3  N   UNL     1       7.737   8.197  17.984  0.00  0.00    +0.000 N 
ATOM      4  H   UNL     1       7.533   8.798  17.194  0.00  0.00    +0.000 HD
ENDROOT
BRANCH   2   5
ATOM      5  S   UNL     1       7.473   5.811  19.105  0.00  0.00    +0.000 S 
ATOM      6  H   UNL     1       7.933   4.753  18.431  0.00  0.00    +0.000 HD
ENDBRANCH   2   5
BRANCH   1   7
ATOM      7  C   UNL     1       6.394   5.345  16.072  0.00  0.00    +0.000 C 
BRANCH   7   8
ATOM      8  C   UNL     1       5.032   4.945  16.639  0.00  0.00    +0.000 A 
ATOM      9  C   UNL     1       4.146   5.901  17.163  0.00  0.00    +0.000 A 
ATOM     10  C   UNL     1       3.029   5.517  17.896  0.00  0.00    +0.000 A 
ATOM     11  C   UNL     1       2.759   4.169  18.089  0.00  0.00    +0.000 A 
ATOM     12  C   UNL     1       3.565   3.197  17.503  0.00  0.00    +0.000 A 
ATOM     13  C   UNL     1       4.697   3.584  16.771  0.00  0.00    +0.000 A 
BRANCH  11  14
ATOM     14  N   UNL     1       1.628   3.826  18.874  0.00  0.00    +0.000 N 
ATOM     15  H   UNL     1       0.750   4.296  18.650  0.00  0.00    +0.000 HD
BRANCH  14  16
ATOM     16  S   UNL     1       1.853   3.704  20.540  0.00  0.00    +0.000 S 
ATOM     17  C   UNL     1       3.337   2.720  20.618  0.00  0.00    +0.000 C 
ATOM     18  O   UNL     1       2.119   5.008  21.108  0.00  0.00    +0.000 OA
ATOM     19  O   UNL     1       0.759   2.884  21.016  0.00  0.00    +0.000 OA
ENDBRANCH  14  16
ENDBRANCH  11  14
ENDBRANCH   7   8
BRANCH   7  21
ATOM     20  C   UNL     1       6.275   3.918  13.899  0.00  0.00    +0.000 C 
ATOM     21  C   UNL     1       6.482   5.285  14.530  0.00  0.00    +0.000 C 
ENDBRANCH   7  21
ENDBRANCH   1   7
BRANCH   3  22
ATOM     22  C   UNL     1       8.944   8.592  18.685  0.00  0.00    +0.000 C 
BRANCH  22  23
ATOM     23  C   UNL     1       8.994  10.094  18.774  0.00  0.00    +0.000 A 
ATOM     24  C   UNL     1       8.544  10.866  17.696  0.00  0.00    +0.000 A 
ATOM     25  C   UNL     1       8.563  12.259  17.755  0.00  0.00    +0.000 A 
ATOM     26  C   UNL     1       9.020  12.935  18.895  0.00  0.00    +0.000 A 
ATOM     27  C   UNL     1       9.470  12.148  19.975  0.00  0.00    +0.000 A 
ATOM     28  C   UNL     1       9.454  10.750  19.918  0.00  0.00    +0.000 A 
BRANCH  26  29
ATOM     29  C   UNL     1       9.016  14.470  18.992  0.00  0.00    +0.000 C 
ATOM     30  C   UNL     1       7.626  15.096  18.739  0.00  0.00    +0.000 C 
ATOM     31  C   UNL     1       9.461  14.893  20.407  0.00  0.00    +0.000 C 
ATOM     32  C   UNL     1       9.985  15.073  17.953  0.00  0.00    +0.000 C 
ENDBRANCH  26  29
ENDBRANCH  22  23
ENDBRANCH   3  22
TORSDOF 9
ENDMDL
MODEL 2
REMARK VINA RESULT:      -7.5      8.211     10.325
REMARK  Name = 
REMARK  14 active torsions:
REMARK  status: ('A' for Active; 'I' for Inactive)
REMARK    1  A    between atoms: C_1  and  C_2
REMARK    2  A    between atoms: C_2  and  C_3
REMARK    3  A    between atoms: C_3  and  N_4
REMARK    4  A    between atoms: C_3  and  C_19
REMARK    5  A    between atoms: C_5  and  S_6
REMARK    6  A    between atoms: N_7  and  C_8
REMARK    7  A    between atoms: C_8  and  C_9
REMARK    8  A    between atoms: C_12  and  C_13
REMARK    9  A    between atoms: C_13  and  C_14
REMARK   10  A    between atoms: C_13  and  C_15
REMARK   11  A    between atoms: C_13  and  C_16
REMARK   12  A    between atoms: C_22  and  N_23
REMARK   13  A    between atoms: N_23  and  S_24
REMARK   14  A    between atoms: S_24  and  C_25
REMARK                            x       y       z     vdW  Elec       q    Type
REMARK                         _______ _______ _______ _____ _____    ______ ____
ROOT
ATOM      1  N   UNL     1       0.122  10.507  20.269  0.00  0.00    +0.000 NA
ATOM      2  C   UNL     1       0.348  11.570  20.955  0.00  0.00    +0.000 C 
ATOM      3  N   UNL     1      -0.329  11.731  22.131  0.00  0.00    +0.000 N 
ATOM      4  H   UNL     1      -0.898  10.918  22.339  0.00  0.00    +0.000 HD
ENDROOT
BRANCH   2   5
ATOM      5  S   UNL     1       1.512  12.832  20.577  0.00  0.00    +0.000 S 
ATOM      6  H   UNL     1       1.218  13.649  21.591  0.00  0.00    +0.000 HD
ENDBRANCH   2   5
BRANCH   1   7
ATOM      7  C   UNL     1       0.710  10.109  18.986  0.00  0.00    +0.000 C 
BRANCH   7   8
ATOM      8  C   UNL     1       1.546   8.834  19.078  0.00  0.00    +0.000 A 
ATOM      9  C   UNL     1       2.282   8.358  17.980  0.00  0.00    +0.000 A 
ATOM     10  C   UNL     1       2.835   7.083  17.986  0.00  0.00    +0.000 A 
ATOM     11  C   UNL     1       2.693   6.273  19.104  0.00  0.00    +0.000 A 
ATOM     12  C   UNL     1       2.052   6.751  20.244  0.00  0.00    +0.000 A 
ATOM     13  C   UNL     1       1.486   8.034  20.234  0.00  0.00    +0.000 A 
BRANCH  11  14
ATOM     14  N   UNL     1       3.244   4.966  19.051  0.00  0.00    +0.000 N 
ATOM     15  H   UNL     1       4.257   4.889  19.146  0.00  0.00    +0.000 HD
BRANCH  14  16
ATOM     16  S   UNL     1       2.656   3.929  17.861  0.00  0.00    +0.000 S 
ATOM     17  C   UNL     1       2.709   2.362  18.709  0.00  0.00    +0.000 C 
ATOM     18  O   UNL     1       1.281   4.251  17.546  0.00  0.00    +0.000 OA
ATOM     19  O   UNL     1       3.677   3.904  16.835  0.00  0.00    +0.000 OA
ENDBRANCH  14  16
ENDBRANCH  11  14
ENDBRANCH   7   8
BRANCH   7  21
ATOM     20  C   UNL     1      -1.802  10.221  18.319  0.00  0.00    +0.000 C 
ATOM     21  C   UNL     1      -0.357  10.090  17.868  0.00  0.00    +0.000 C 
ENDBRANCH   7  21
ENDBRANCH   1   7
BRANCH   3  22
ATOM     22  C   UNL     1      -0.934  12.964  22.595  0.00  0.00    +0.000 C 
BRANCH  22  23
ATOM     23  C   UNL     1      -2.421  12.900  22.371  0.00  0.00    +0.000 A 
ATOM     24  C   UNL     1      -2.920  12.774  21.070  0.00  0.00    +0.000 A 
ATOM     25  C   UNL     1      -4.292  12.696  20.832  0.00  0.00    +0.000 A 
ATOM     26  C   UNL     1      -5.218  12.730  21.884  0.00  0.00    +0.000 A 
ATOM     27  C   UNL     1      -4.705  12.857  23.191  0.00  0.00    +0.000 A 
ATOM     28  C   UNL     1      -3.328  12.937  23.432  0.00  0.00    +0.000 A 
BRANCH  26  29
ATOM     29  C   UNL     1      -6.732  12.610  21.645  0.00  0.00    +0.000 C 
ATOM     30  C   UNL     1      -7.530  12.278  22.926  0.00  0.00    +0.000 C 
ATOM     31  C   UNL     1      -7.270  13.949  21.101  0.00  0.00    +0.000 C 
ATOM     32  C   UNL     1      -7.024  11.492  20.622  0.00  0.00    +0.000 C 
ENDBRANCH  26  29
ENDBRANCH  22  23
ENDBRANCH   3  22
TORSDOF 9
ENDMDL
MODEL 3
REMARK VINA RESULT:      -7.4      8.055     10.140
REMARK  Name = 
REMARK  14 active torsions:
REMARK  status: ('A' for Active; 'I' for Inactive)
REMARK    1  A    between atoms: C_1  and  C_2
REMARK    2  A    between atoms: C_2  and  C_3
REMARK    3  A    between atoms: C_3  and  N_4
REMARK    4  A    between atoms: C_3  and  C_19
REMARK    5  A    between atoms: C_5  and  S_6
REMARK    6  A    between atoms: N_7  and  C_8
REMARK    7  A    between atoms: C_8  and  C_9
REMARK    8  A    between atoms: C_12  and  C_13
REMARK    9  A    between atoms: C_13  and  C_14
REMARK   10  A    between atoms: C_13  and  C_15
REMARK   11  A    between atoms: C_13  and  C_16
REMARK   12  A    between atoms: C_22  and  N_23
REMARK   13  A    between atoms: N_23  and  S_24
REMARK   14  A    between atoms: S_24  and  C_25
REMARK                            x       y       z     vdW  Elec       q    Type
REMARK                         _______ _______ _______ _____ _____    ______ ____
ROOT
ATOM      1  N   UNL     1       0.339  10.439  20.115  0.00  0.00    +0.000 NA
ATOM      2  C   UNL     1       0.549  11.574  20.681  0.00  0.00    +0.000 C 
ATOM      3  N   UNL     1      -0.015  11.796  21.905  0.00  0.00    +0.000 N 
ATOM      4  H   UNL     1      -0.493  10.968  22.242  0.00  0.00    +0.000 HD
ENDROOT
BRANCH   2   5
ATOM      5  S   UNL     1       1.565  12.874  20.072  0.00  0.00    +0.000 S 
ATOM      6  H   UNL     1       1.309  12.700  18.773  0.00  0.00    +0.000 HD
ENDBRANCH   2   5
BRANCH   1   7
ATOM      7  C   UNL     1       0.822   9.967  18.815  0.00  0.00    +0.000 C 
BRANCH   7   8
ATOM      8  C   UNL     1       1.714   8.731  18.918  0.00  0.00    +0.000 A 
ATOM      9  C   UNL     1       2.546   8.335  17.856  0.00  0.00    +0.000 A 
ATOM     10  C   UNL     1       3.162   7.089  17.855  0.00  0.00    +0.000 A 
ATOM     11  C   UNL     1       2.986   6.230  18.930  0.00  0.00    +0.000 A 
ATOM     12  C   UNL     1       2.245   6.629  20.039  0.00  0.00    +0.000 A 
ATOM     13  C   UNL     1       1.616   7.883  20.037  0.00  0.00    +0.000 A 
BRANCH  11  14
ATOM     14  N   UNL     1       3.605   4.954  18.868  0.00  0.00    +0.000 N 
ATOM     15  H   UNL     1       4.625   4.933  18.920  0.00  0.00    +0.000 HD
BRANCH  14  16
ATOM     16  S   UNL     1       3.026   3.870  17.715  0.00  0.00    +0.000 S 
ATOM     17  C   UNL     1       3.233   2.317  18.565  0.00  0.00    +0.000 C 
ATOM     18  O   UNL     1       1.616   4.095  17.476  0.00  0.00    +0.000 OA
ATOM     19  O   UNL     1       3.988   3.908  16.634  0.00  0.00    +0.000 OA
ENDBRANCH  14  16
ENDBRANCH  11  14
ENDBRANCH   7   8
BRANCH   7  21
ATOM     20  C   UNL     1      -1.669  10.436  18.228  0.00  0.00    +0.000 C 
ATOM     21  C   UNL     1      -0.342   9.828  17.807  0.00  0.00    +0.000 C 
ENDBRANCH   7  21
ENDBRANCH   1   7
BRANCH   3  22
ATOM     22  C   UNL     1      -0.665  13.022  22.326  0.00  0.00    +0.000 C 
BRANCH  22  23
ATOM     23  C   UNL     1      -2.144  12.911  22.068  0.00  0.00    +0.000 A 
ATOM     24  C   UNL     1      -3.021  12.726  23.142  0.00  0.00    +0.000 A 
ATOM     25  C   UNL     1      -4.398  12.636  22.936  0.00  0.00    +0.000 A 
ATOM     26  C   UNL     1      -4.952  12.739  21.652  0.00  0.00    +0.000 A 
ATOM     27  C   UNL     1      -4.059  12.925  20.578  0.00  0.00    +0.000 A 
ATOM     28  C   UNL     1      -2.677  13.014  20.781  0.00  0.00    +0.000 A 
BRANCH  26  29
ATOM     29  C   UNL     1      -6.469  12.676  21.409  0.00  0.00    +0.000 C 
ATOM     30  C   UNL     1      -6.904  11.459  20.562  0.00  0.00    +0.000 C 
ATOM     31  C   UNL     1      -7.200  12.579  22.764  0.00  0.00    +0.000 C 
ATOM     32  C   UNL     1      -6.942  13.943  20.665  0.00  0.00    +0.000 C 
ENDBRANCH  26  29
ENDBRANCH  22  23
ENDBRANCH   3  22
TORSDOF 9
ENDMDL
MODEL 4
REMARK VINA RESULT:      -7.3      7.377     10.992
REMARK  Name = 
REMARK  14 active torsions:
REMARK  status: ('A' for Active; 'I' for Inactive)
REMARK    1  A    between atoms: C_1  and  C_2
REMARK    2  A    between atoms: C_2  and  C_3
REMARK    3  A    between atoms: C_3  and  N_4
REMARK    4  A    between atoms: C_3  and  C_19
REMARK    5  A    between atoms: C_5  and  S_6
REMARK    6  A    between atoms: N_7  and  C_8
REMARK    7  A    between atoms: C_8  and  C_9
REMARK    8  A    between atoms: C_12  and  C_13
REMARK    9  A    between atoms: C_13  and  C_14
REMARK   10  A    between atoms: C_13  and  C_15
REMARK   11  A    between atoms: C_13  and  C_16
REMARK   12  A    between atoms: C_22  and  N_23
REMARK   13  A    between atoms: N_23  and  S_24
REMARK   14  A    between atoms: S_24  and  C_25
REMARK                            x       y       z     vdW  Elec       q    Type
REMARK                         _______ _______ _______ _____ _____    ______ ____
ROOT
ATOM      1  N   UNL     1       1.120  11.518  19.712  0.00  0.00    +0.000 NA
ATOM      2  C   UNL     1       0.851  10.441  19.065  0.00  0.00    +0.000 C 
ATOM      3  N   UNL     1       1.684   9.370  19.226  0.00  0.00    +0.000 N 
ATOM      4  H   UNL     1       2.399   9.564  19.917  0.00  0.00    +0.000 HD
ENDROOT
BRANCH   2   5
ATOM      5  S   UNL     1      -0.543  10.163  18.029  0.00  0.00    +0.000 S 
ATOM      6  H   UNL     1       0.125   9.953  16.892  0.00  0.00    +0.000 HD
ENDBRANCH   2   5
BRANCH   1   7
ATOM      7  C   UNL     1       0.393  12.791  19.704  0.00  0.00    +0.000 C 
BRANCH   7   8
ATOM      8  C   UNL     1      -0.433  13.019  20.969  0.00  0.00    +0.000 A 
ATOM      9  C   UNL     1      -0.630  11.995  21.912  0.00  0.00    +0.000 A 
ATOM     10  C   UNL     1      -1.573  12.124  22.924  0.00  0.00    +0.000 A 
ATOM     11  C   UNL     1      -2.312  13.293  23.035  0.00  0.00    +0.000 A 
ATOM     12  C   UNL     1      -2.075  14.363  22.174  0.00  0.00    +0.000 A 
ATOM     13  C   UNL     1      -1.130  14.228  21.147  0.00  0.00    +0.000 A 
BRANCH  11  14
ATOM     14  N   UNL     1      -3.289  13.366  24.062  0.00  0.00    +0.000 N 
ATOM     15  H   UNL     1      -3.010  13.038  24.987  0.00  0.00    +0.000 HD
BRANCH  14  16
ATOM     16  S   UNL     1      -4.852  12.868  23.677  0.00  0.00    +0.000 S 
ATOM     17  C   UNL     1      -5.741  14.411  23.773  0.00  0.00    +0.000 C 
ATOM     18  O   UNL     1      -4.904  12.376  22.317  0.00  0.00    +0.000 OA
ATOM     19  O   UNL     1      -5.280  12.049  24.791  0.00  0.00    +0.000 OA
ENDBRANCH  14  16
ENDBRANCH  11  14
ENDBRANCH   7   8
BRANCH   7  21
ATOM     20  C   UNL     1       2.774  13.834  19.789  0.00  0.00    +0.000 C 
ATOM     21  C   UNL     1       1.329  13.964  19.337  0.00  0.00    +0.000 C 
ENDBRANCH   7  21
ENDBRANCH   1   7
BRANCH   3  22
ATOM     22  C   UNL     1       2.159   8.503  18.165  0.00  0.00    +0.000 C 
BRANCH  22  23
ATOM     23  C   UNL     1       2.221   7.087  18.675  0.00  0.00    +0.000 A 
ATOM     24  C   UNL     1       1.977   6.829  20.029  0.00  0.00    +0.000 A 
ATOM     25  C   UNL     1       2.012   5.527  20.528  0.00  0.00    +0.000 A 
ATOM     26  C   UNL     1       2.278   4.432  19.693  0.00  0.00    +0.000 A 
ATOM     27  C   UNL     1       2.521   4.704  18.331  0.00  0.00    +0.000 A 
ATOM     28  C   UNL     1       2.489   6.010  17.828  0.00  0.00    +0.000 A 
BRANCH  26  29
ATOM     29  C   UNL     1       2.286   2.987  20.217  0.00  0.00    +0.000 C 
ATOM     30  C   UNL     1       1.655   2.841  21.621  0.00  0.00    +0.000 C 
ATOM     31  C   UNL     1       1.480   2.090  19.255  0.00  0.00    +0.000 C 
ATOM     32  C   UNL     1       3.734   2.461  20.310  0.00  0.00    +0.000 C 
ENDBRANCH  26  29
ENDBRANCH  22  23
ENDBRANCH   3  22
TORSDOF 9
ENDMDL
MODEL 5
REMARK VINA RESULT:      -7.3      7.215     10.614
REMARK  Name = 
REMARK  14 active torsions:
REMARK  status: ('A' for Active; 'I' for Inactive)
REMARK    1  A    between atoms: C_1  and  C_2
REMARK    2  A    between atoms: C_2  and  C_3
REMARK    3  A    between atoms: C_3  and  N_4
REMARK    4  A    between atoms: C_3  and  C_19
REMARK    5  A    between atoms: C_5  and  S_6
REMARK    6  A    between atoms: N_7  and  C_8
REMARK    7  A    between atoms: C_8  and  C_9
REMARK    8  A    between atoms: C_12  and  C_13
REMARK    9  A    between atoms: C_13  and  C_14
REMARK   10  A    between atoms: C_13  and  C_15
REMARK   11  A    between atoms: C_13  and  C_16
REMARK   12  A    between atoms: C_22  and  N_23
REMARK   13  A    between atoms: N_23  and  S_24
REMARK   14  A    between atoms: S_24  and  C_25
REMARK                            x       y       z     vdW  Elec       q    Type
REMARK                         _______ _______ _______ _____ _____    ______ ____
ROOT
ATOM      1  N   UNL     1       0.221  10.020  19.641  0.00  0.00    +0.000 NA
ATOM      2  C   UNL     1       1.175  10.071  18.780  0.00  0.00    +0.000 C 
ATOM      3  N   UNL     1       1.451   8.943  18.061  0.00  0.00    +0.000 N 
ATOM      4  H   UNL     1       0.792   8.203  18.274  0.00  0.00    +0.000 HD
ENDROOT
BRANCH   2   5
ATOM      5  S   UNL     1       2.133  11.485  18.364  0.00  0.00    +0.000 S 
ATOM      6  H   UNL     1       1.379  11.913  17.348  0.00  0.00    +0.000 HD
ENDBRANCH   2   5
BRANCH   1   7
ATOM      7  C   UNL     1      -0.260  11.081  20.530  0.00  0.00    +0.000 C 
BRANCH   7   8
ATOM      8  C   UNL     1      -1.552  11.734  20.042  0.00  0.00    +0.000 A 
ATOM      9  C   UNL     1      -2.250  12.662  20.833  0.00  0.00    +0.000 A 
ATOM     10  C   UNL     1      -3.538  13.063  20.500  0.00  0.00    +0.000 A 
ATOM     11  C   UNL     1      -4.139  12.571  19.350  0.00  0.00    +0.000 A 
ATOM     12  C   UNL     1      -3.439  11.723  18.495  0.00  0.00    +0.000 A 
ATOM     13  C   UNL     1      -2.143  11.312  18.836  0.00  0.00    +0.000 A 
BRANCH  11  14
ATOM     14  N   UNL     1      -5.469  12.981  19.069  0.00  0.00    +0.000 N 
ATOM     15  H   UNL     1      -5.669  13.979  19.142  0.00  0.00    +0.000 HD
BRANCH  14  16
ATOM     16  S   UNL     1      -6.716  12.053  19.720  0.00  0.00    +0.000 S 
ATOM     17  C   UNL     1      -6.833  10.739  18.521  0.00  0.00    +0.000 C 
ATOM     18  O   UNL     1      -6.317  11.496  20.995  0.00  0.00    +0.000 OA
ATOM     19  O   UNL     1      -7.907  12.867  19.593  0.00  0.00    +0.000 OA
ENDBRANCH  14  16
ENDBRANCH  11  14
ENDBRANCH   7   8
BRANCH   7  21
ATOM     20  C   UNL     1       0.084   9.149  22.238  0.00  0.00    +0.000 C 
ATOM     21  C   UNL     1      -0.307  10.597  21.997  0.00  0.00    +0.000 C 
ENDBRANCH   7  21
ENDBRANCH   1   7
BRANCH   3  22
ATOM     22  C   UNL     1       2.777   8.435  17.764  0.00  0.00    +0.000 C 
BRANCH  22  23
ATOM     23  C   UNL     1       2.831   6.969  18.099  0.00  0.00    +0.000 A 
ATOM     24  C   UNL     1       3.791   6.155  17.488  0.00  0.00    +0.000 A 
ATOM     25  C   UNL     1       3.877   4.796  17.789  0.00  0.00    +0.000 A 
ATOM     26  C   UNL     1       3.015   4.200  18.722  0.00  0.00    +0.000 A 
ATOM     27  C   UNL     1       2.053   5.029  19.332  0.00  0.00    +0.000 A 
ATOM     28  C   UNL     1       1.963   6.393  19.029  0.00  0.00    +0.000 A 
BRANCH  26  29
ATOM     29  C   UNL     1       3.117   2.712  19.093  0.00  0.00    +0.000 C 
ATOM     30  C   UNL     1       1.871   2.180  19.838  0.00  0.00    +0.000 C 
ATOM     31  C   UNL     1       3.277   1.874  17.808  0.00  0.00    +0.000 C 
ATOM     32  C   UNL     1       4.334   2.472  20.011  0.00  0.00    +0.000 C 
ENDBRANCH  26  29
ENDBRANCH  22  23
ENDBRANCH   3  22
TORSDOF 9
ENDMDL
MODEL 6
REMARK VINA RESULT:      -7.3      7.820     11.257
REMARK  Name = 
REMARK  14 active torsions:
REMARK  status: ('A' for Active; 'I' for Inactive)
REMARK    1  A    between atoms: C_1  and  C_2
REMARK    2  A    between atoms: C_2  and  C_3
REMARK    3  A    between atoms: C_3  and  N_4
REMARK    4  A    between atoms: C_3  and  C_19
REMARK    5  A    between atoms: C_5  and  S_6
REMARK    6  A    between atoms: N_7  and  C_8
REMARK    7  A    between atoms: C_8  and  C_9
REMARK    8  A    between atoms: C_12  and  C_13
REMARK    9  A    between atoms: C_13  and  C_14
REMARK   10  A    between atoms: C_13  and  C_15
REMARK   11  A    between atoms: C_13  and  C_16
REMARK   12  A    between atoms: C_22  and  N_23
REMARK   13  A    between atoms: N_23  and  S_24
REMARK   14  A    between atoms: S_24  and  C_25
REMARK                            x       y       z     vdW  Elec       q    Type
REMARK                         _______ _______ _______ _____ _____    ______ ____
ROOT
ATOM      1  N   UNL     1       0.458  11.582  19.901  0.00  0.00    +0.000 NA
ATOM      2  C   UNL     1       0.424  10.510  19.191  0.00  0.00    +0.000 C 
ATOM      3  N   UNL     1       1.359   9.546  19.441  0.00  0.00    +0.000 N 
ATOM      4  H   UNL     1       1.940   9.796  20.233  0.00  0.00    +0.000 HD
ENDROOT
BRANCH   2   5
ATOM      5  S   UNL     1      -0.764  10.109  17.959  0.00  0.00    +0.000 S 
ATOM      6  H   UNL     1      -0.445  11.073  17.091  0.00  0.00    +0.000 HD
ENDBRANCH   2   5
BRANCH   1   7
ATOM      7  C   UNL     1      -0.421  12.752  19.824  0.00  0.00    +0.000 C 
BRANCH   7   8
ATOM      8  C   UNL     1      -1.789  12.520  20.464  0.00  0.00    +0.000 A 
ATOM      9  C   UNL     1      -2.974  12.602  19.714  0.00  0.00    +0.000 A 
ATOM     10  C   UNL     1      -4.216  12.636  20.337  0.00  0.00    +0.000 A 
ATOM     11  C   UNL     1      -4.298  12.554  21.720  0.00  0.00    +0.000 A 
ATOM     12  C   UNL     1      -3.148  12.377  22.486  0.00  0.00    +0.000 A 
ATOM     13  C   UNL     1      -1.895  12.351  21.858  0.00  0.00    +0.000 A 
BRANCH  11  14
ATOM     14  N   UNL     1      -5.584  12.629  22.314  0.00  0.00    +0.000 N 
ATOM     15  H   UNL     1      -6.325  13.059  21.758  0.00  0.00    +0.000 HD
BRANCH  14  16
ATOM     16  S   UNL     1      -5.664  13.118  23.925  0.00  0.00    +0.000 S 
ATOM     17  C   UNL     1      -7.424  13.277  24.153  0.00  0.00    +0.000 C 
ATOM     18  O   UNL     1      -5.167  12.072  24.793  0.00  0.00    +0.000 OA
ATOM     19  O   UNL     1      -5.098  14.450  23.951  0.00  0.00    +0.000 OA
ENDBRANCH  14  16
ENDBRANCH  11  14
ENDBRANCH   7   8
BRANCH   7  21
ATOM     20  C   UNL     1       0.409  15.166  19.322  0.00  0.00    +0.000 C 
ATOM     21  C   UNL     1       0.304  14.024  20.318  0.00  0.00    +0.000 C 
ENDBRANCH   7  21
ENDBRANCH   1   7
BRANCH   3  22
ATOM     22  C   UNL     1       2.086   8.795  18.435  0.00  0.00    +0.000 C 
BRANCH  22  23
ATOM     23  C   UNL     1       2.131   7.345  18.839  0.00  0.00    +0.000 A 
ATOM     24  C   UNL     1       1.872   6.989  20.167  0.00  0.00    +0.000 A 
ATOM     25  C   UNL     1       1.892   5.653  20.568  0.00  0.00    +0.000 A 
ATOM     26  C   UNL     1       2.158   4.621  19.656  0.00  0.00    +0.000 A 
ATOM     27  C   UNL     1       2.417   4.991  18.321  0.00  0.00    +0.000 A 
ATOM     28  C   UNL     1       2.400   6.331  17.917  0.00  0.00    +0.000 A 
BRANCH  26  29
ATOM     29  C   UNL     1       2.149   3.141  20.071  0.00  0.00    +0.000 C 
ATOM     30  C   UNL     1       1.501   2.896  21.453  0.00  0.00    +0.000 C 
ATOM     31  C   UNL     1       1.349   2.325  19.036  0.00  0.00    +0.000 C 
ATOM     32  C   UNL     1       3.592   2.598  20.141  0.00  0.00    +0.000 C 
ENDBRANCH  26  29
ENDBRANCH  22  23
ENDBRANCH   3  22
TORSDOF 9
ENDMDL
MODEL 7
REMARK VINA RESULT:      -7.3      1.070      1.492
REMARK  Name = 
REMARK  14 active torsions:
REMARK  status: ('A' for Active; 'I' for Inactive)
REMARK    1  A    between atoms: C_1  and  C_2
REMARK    2  A    between atoms: C_2  and  C_3
REMARK    3  A    between atoms: C_3  and  N_4
REMARK    4  A    between atoms: C_3  and  C_19
REMARK    5  A    between atoms: C_5  and  S_6
REMARK    6  A    between atoms: N_7  and  C_8
REMARK    7  A    between atoms: C_8  and  C_9
REMARK    8  A    between atoms: C_12  and  C_13
REMARK    9  A    between atoms: C_13  and  C_14
REMARK   10  A    between atoms: C_13  and  C_15
REMARK   11  A    between atoms: C_13  and  C_16
REMARK   12  A    between atoms: C_22  and  N_23
REMARK   13  A    between atoms: N_23  and  S_24
REMARK   14  A    between atoms: S_24  and  C_25
REMARK                            x       y       z     vdW  Elec       q    Type
REMARK                         _______ _______ _______ _____ _____    ______ ____
ROOT
ATOM      1  N   UNL     1       7.134   6.818  16.671  0.00  0.00    +0.000 NA
ATOM      2  C   UNL     1       7.612   7.125  17.824  0.00  0.00    +0.000 C 
ATOM      3  N   UNL     1       7.955   8.428  18.050  0.00  0.00    +0.000 N 
ATOM      4  H   UNL     1       7.715   9.012  17.257  0.00  0.00    +0.000 HD
ENDROOT
BRANCH   2   5
ATOM      5  S   UNL     1       7.808   6.044  19.196  0.00  0.00    +0.000 S 
ATOM      6  H   UNL     1       7.379   4.929  18.601  0.00  0.00    +0.000 HD
ENDBRANCH   2   5
BRANCH   1   7
ATOM      7  C   UNL     1       6.703   5.504  16.185  0.00  0.00    +0.000 C 
BRANCH   7   8
ATOM      8  C   UNL     1       5.390   5.034  16.810  0.00  0.00    +0.000 A 
ATOM      9  C   UNL     1       4.997   3.685  16.765  0.00  0.00    +0.000 A 
ATOM     10  C   UNL     1       3.706   3.304  17.108  0.00  0.00    +0.000 A 
ATOM     11  C   UNL     1       2.793   4.258  17.536  0.00  0.00    +0.000 A 
ATOM     12  C   UNL     1       3.179   5.588  17.681  0.00  0.00    +0.000 A 
ATOM     13  C   UNL     1       4.479   5.975  17.326  0.00  0.00    +0.000 A 
BRANCH  11  14
ATOM     14  N   UNL     1       1.476   3.826  17.841  0.00  0.00    +0.000 N 
ATOM     15  H   UNL     1       0.726   4.506  17.711  0.00  0.00    +0.000 HD
BRANCH  14  16
ATOM     16  S   UNL     1       1.263   2.941  19.259  0.00  0.00    +0.000 S 
ATOM     17  C   UNL     1       0.961   4.242  20.439  0.00  0.00    +0.000 C 
ATOM     18  O   UNL     1       0.084   2.108  19.160  0.00  0.00    +0.000 OA
ATOM     19  O   UNL     1       2.562   2.375  19.558  0.00  0.00    +0.000 OA
ENDBRANCH  14  16
ENDBRANCH  11  14
ENDBRANCH   7   8
BRANCH   7  21
ATOM     20  C   UNL     1       6.301   4.132  14.011  0.00  0.00    +0.000 C 
ATOM     21  C   UNL     1       6.728   5.447  14.641  0.00  0.00    +0.000 C 
ENDBRANCH   7  21
ENDBRANCH   1   7
BRANCH   3  22
ATOM     22  C   UNL     1       9.155   8.880  18.728  0.00  0.00    +0.000 C 
BRANCH  22  23
ATOM     23  C   UNL     1       9.111  10.379  18.864  0.00  0.00    +0.000 A 
ATOM     24  C   UNL     1       8.767  11.163  17.757  0.00  0.00    +0.000 A 
ATOM     25  C   UNL     1       8.703  12.553  17.855  0.00  0.00    +0.000 A 
ATOM     26  C   UNL     1       8.966  13.212  19.065  0.00  0.00    +0.000 A 
ATOM     27  C   UNL     1       9.311  12.412  20.173  0.00  0.00    +0.000 A 
ATOM     28  C   UNL     1       9.378  11.017  20.076  0.00  0.00    +0.000 A 
BRANCH  26  29
ATOM     29  C   UNL     1       8.866  14.740  19.202  0.00  0.00    +0.000 C 
ATOM     30  C   UNL     1       8.161  15.418  18.004  0.00  0.00    +0.000 C 
ATOM     31  C   UNL     1       8.058  15.087  20.469  0.00  0.00    +0.000 C 
ATOM     32  C   UNL     1      10.275  15.359  19.312  0.00  0.00    +0.000 C 
ENDBRANCH  26  29
ENDBRANCH  22  23
ENDBRANCH   3  22
TORSDOF 9
ENDMDL
MODEL 8
REMARK VINA RESULT:      -7.2      4.483      6.452
REMARK  Name = 
REMARK  14 active torsions:
REMARK  status: ('A' for Active; 'I' for Inactive)
REMARK    1  A    between atoms: C_1  and  C_2
REMARK    2  A    between atoms: C_2  and  C_3
REMARK    3  A    between atoms: C_3  and  N_4
REMARK    4  A    between atoms: C_3  and  C_19
REMARK    5  A    between atoms: C_5  and  S_6
REMARK    6  A    between atoms: N_7  and  C_8
REMARK    7  A    between atoms: C_8  and  C_9
REMARK    8  A    between atoms: C_12  and  C_13
REMARK    9  A    between atoms: C_13  and  C_14
REMARK   10  A    between atoms: C_13  and  C_15
REMARK   11  A    between atoms: C_13  and  C_16
REMARK   12  A    between atoms: C_22  and  N_23
REMARK   13  A    between atoms: N_23  and  S_24
REMARK   14  A    between atoms: S_24  and  C_25
REMARK                            x       y       z     vdW  Elec       q    Type
REMARK                         _______ _______ _______ _____ _____    ______ ____
ROOT
ATOM      1  N   UNL     1       1.793   6.668  20.536  0.00  0.00    +0.000 NA
ATOM      2  C   UNL     1       1.647   7.715  19.804  0.00  0.00    +0.000 C 
ATOM      3  N   UNL     1       1.447   8.913  20.429  0.00  0.00    +0.000 N 
ATOM      4  H   UNL     1       1.506   8.814  21.435  0.00  0.00    +0.000 HD
ENDROOT
BRANCH   2   5
ATOM      5  S   UNL     1       1.753   7.787  18.050  0.00  0.00    +0.000 S 
ATOM      6  H   UNL     1       2.466   8.913  17.966  0.00  0.00    +0.000 HD
ENDBRANCH   2   5
BRANCH   1   7
ATOM      7  C   UNL     1       2.010   5.283  20.110  0.00  0.00    +0.000 C 
BRANCH   7   8
ATOM      8  C   UNL     1       3.095   5.146  19.043  0.00  0.00    +0.000 A 
ATOM      9  C   UNL     1       2.846   4.493  17.823  0.00  0.00    +0.000 A 
ATOM     10  C   UNL     1       3.887   4.153  16.967  0.00  0.00    +0.000 A 
ATOM     11  C   UNL     1       5.191   4.491  17.297  0.00  0.00    +0.000 A 
ATOM     12  C   UNL     1       5.461   5.222  18.452  0.00  0.00    +0.000 A 
ATOM     13  C   UNL     1       4.412   5.556  19.320  0.00  0.00    +0.000 A 
BRANCH  11  14
ATOM     14  N   UNL     1       6.224   4.093  16.409  0.00  0.00    +0.000 N 
ATOM     15  H   UNL     1       7.121   3.843  16.828  0.00  0.00    +0.000 HD
BRANCH  14  16
ATOM     16  S   UNL     1       6.433   5.004  15.007  0.00  0.00    +0.000 S 
ATOM     17  C   UNL     1       5.964   3.826  13.754  0.00  0.00    +0.000 C 
ATOM     18  O   UNL     1       5.503   6.113  14.985  0.00  0.00    +0.000 OA
ATOM     19  O   UNL     1       7.860   5.216  14.895  0.00  0.00    +0.000 OA
ENDBRANCH  14  16
ENDBRANCH  11  14
ENDBRANCH   7   8
BRANCH   7  21
ATOM     20  C   UNL     1       1.457   3.024  21.277  0.00  0.00    +0.000 C 
ATOM     21  C   UNL     1       2.196   4.350  21.329  0.00  0.00    +0.000 C 
ENDBRANCH   7  21
ENDBRANCH   1   7
BRANCH   3  22
ATOM     22  C   UNL     1       0.490   9.926  20.027  0.00  0.00    +0.000 C 
BRANCH  22  23
ATOM     23  C   UNL     1       1.211  11.231  19.817  0.00  0.00    +0.000 A 
ATOM     24  C   UNL     1       1.781  11.513  18.570  0.00  0.00    +0.000 A 
ATOM     25  C   UNL     1       2.441  12.719  18.340  0.00  0.00    +0.000 A 
ATOM     26  C   UNL     1       2.547  13.695  19.341  0.00  0.00    +0.000 A 
ATOM     27  C   UNL     1       1.969  13.402  20.592  0.00  0.00    +0.000 A 
ATOM     28  C   UNL     1       1.308  12.190  20.826  0.00  0.00    +0.000 A 
BRANCH  26  29
ATOM     29  C   UNL     1       3.241  15.046  19.096  0.00  0.00    +0.000 C 
ATOM     30  C   UNL     1       4.634  15.148  19.758  0.00  0.00    +0.000 C 
ATOM     31  C   UNL     1       3.435  15.252  17.579  0.00  0.00    +0.000 C 
ATOM     32  C   UNL     1       2.382  16.197  19.660  0.00  0.00    +0.000 C 
ENDBRANCH  26  29
ENDBRANCH  22  23
ENDBRANCH   3  22
TORSDOF 9
ENDMDL
MODEL 9
REMARK VINA RESULT:      -7.2      8.621     10.802
REMARK  Name = 
REMARK  14 active torsions:
REMARK  status: ('A' for Active; 'I' for Inactive)
REMARK    1  A    between atoms: C_1  and  C_2
REMARK    2  A    between atoms: C_2  and  C_3
REMARK    3  A    between atoms: C_3  and  N_4
REMARK    4  A    between atoms: C_3  and  C_19
REMARK    5  A    between atoms: C_5  and  S_6
REMARK    6  A    between atoms: N_7  and  C_8
REMARK    7  A    between atoms: C_8  and  C_9
REMARK    8  A    between atoms: C_12  and  C_13
REMARK    9  A    between atoms: C_13  and  C_14
REMARK   10  A    between atoms: C_13  and  C_15
REMARK   11  A    between atoms: C_13  and  C_16
REMARK   12  A    between atoms: C_22  and  N_23
REMARK   13  A    between atoms: N_23  and  S_24
REMARK   14  A    between atoms: S_24  and  C_25
REMARK                            x       y       z     vdW  Elec       q    Type
REMARK                         _______ _______ _______ _____ _____    ______ ____
ROOT
ATOM      1  N   UNL     1      -0.209  10.963  20.723  0.00  0.00    +0.000 NA
ATOM      2  C   UNL     1      -0.088  12.065  21.373  0.00  0.00    +0.000 C 
ATOM      3  N   UNL     1      -0.787  12.203  22.538  0.00  0.00    +0.000 N 
ATOM      4  H   UNL     1      -1.280  11.349  22.772  0.00  0.00    +0.000 HD
ENDROOT
BRANCH   2   5
ATOM      5  S   UNL     1       0.958  13.415  20.956  0.00  0.00    +0.000 S 
ATOM      6  H   UNL     1       2.116  12.751  20.979  0.00  0.00    +0.000 HD
ENDBRANCH   2   5
BRANCH   1   7
ATOM      7  C   UNL     1       0.423  10.578  19.458  0.00  0.00    +0.000 C 
BRANCH   7   8
ATOM      8  C   UNL     1       1.043   9.181  19.497  0.00  0.00    +0.000 A 
ATOM      9  C   UNL     1       1.005   8.394  20.660  0.00  0.00    +0.000 A 
ATOM     10  C   UNL     1       1.775   7.242  20.771  0.00  0.00    +0.000 A 
ATOM     11  C   UNL     1       2.570   6.837  19.708  0.00  0.00    +0.000 A 
ATOM     12  C   UNL     1       2.557   7.543  18.508  0.00  0.00    +0.000 A 
ATOM     13  C   UNL     1       1.787   8.710  18.399  0.00  0.00    +0.000 A 
BRANCH  11  14
ATOM     14  N   UNL     1       3.366   5.675  19.880  0.00  0.00    +0.000 N 
ATOM     15  H   UNL     1       4.288   5.679  19.444  0.00  0.00    +0.000 HD
BRANCH  14  16
ATOM     16  S   UNL     1       2.604   4.183  19.694  0.00  0.00    +0.000 S 
ATOM     17  C   UNL     1       2.238   3.767  21.389  0.00  0.00    +0.000 C 
ATOM     18  O   UNL     1       1.363   4.339  18.966  0.00  0.00    +0.000 OA
ATOM     19  O   UNL     1       3.637   3.278  19.237  0.00  0.00    +0.000 OA
ENDBRANCH  14  16
ENDBRANCH  11  14
ENDBRANCH   7   8
BRANCH   7  21
ATOM     20  C   UNL     1      -1.988  11.066  18.611  0.00  0.00    +0.000 C 
ATOM     21  C   UNL     1      -0.530  10.817  18.265  0.00  0.00    +0.000 C 
ENDBRANCH   7  21
ENDBRANCH   1   7
BRANCH   3  22
ATOM     22  C   UNL     1      -1.507  13.391  22.956  0.00  0.00    +0.000 C 
BRANCH  22  23
ATOM     23  C   UNL     1      -2.977  13.194  22.698  0.00  0.00    +0.000 A 
ATOM     24  C   UNL     1      -3.431  13.027  21.385  0.00  0.00    +0.000 A 
ATOM     25  C   UNL     1      -4.785  12.827  21.115  0.00  0.00    +0.000 A 
ATOM     26  C   UNL     1      -5.734  12.775  22.145  0.00  0.00    +0.000 A 
ATOM     27  C   UNL     1      -5.266  12.944  23.464  0.00  0.00    +0.000 A 
ATOM     28  C   UNL     1      -3.908  13.147  23.737  0.00  0.00    +0.000 A 
BRANCH  26  29
ATOM     29  C   UNL     1      -7.226  12.521  21.870  0.00  0.00    +0.000 C 
ATOM     30  C   UNL     1      -7.475  11.444  20.789  0.00  0.00    +0.000 C 
ATOM     31  C   UNL     1      -7.909  12.039  23.166  0.00  0.00    +0.000 C 
ATOM     32  C   UNL     1      -7.908  13.818  21.388  0.00  0.00    +0.000 C 
ENDBRANCH  26  29
ENDBRANCH  22  23
ENDBRANCH   3  22
TORSDOF 9
ENDMDL
