MODEL 1
REMARK VINA RESULT:      -8.8      0.000      0.000
REMARK  Name = 
REMARK  7 active torsions:
REMARK  status: ('A' for Active; 'I' for Inactive)
REMARK    1  A    between atoms: C_2  and  O_3
REMARK    2  A    between atoms: C_2  and  C_4
REMARK    3  A    between atoms: C_12  and  N_13
REMARK    4  A    between atoms: N_14  and  C_15
REMARK    5  A    between atoms: C_18  and  S_19
REMARK    6  A    between atoms: S_19  and  N_22
REMARK    7  A    between atoms: C_30  and  O_31
REMARK                            x       y       z     vdW  Elec       q    Type
REMARK                         _______ _______ _______ _____ _____    ______ ____
ROOT
ATOM      1  N   UNL     1       2.394   6.762  17.964  0.00  0.00    +0.000 NA
ATOM      2  N   UNL     1       2.653   7.498  18.939  0.00  0.00    +0.000 NA
ENDROOT
BRANCH   1  11
ATOM      3  C   UNL     1       5.527   4.854  17.153  0.00  0.00    +0.000 A 
ATOM      4  C   UNL     1       5.088   3.545  17.377  0.00  0.00    +0.000 A 
ATOM      5  C   UNL     1       3.776   3.281  17.789  0.00  0.00    +0.000 A 
ATOM      6  C   UNL     1       3.349   1.956  17.958  0.00  0.00    +0.000 A 
ATOM      7  C   UNL     1       2.047   1.669  18.364  0.00  0.00    +0.000 A 
ATOM      8  C   UNL     1       1.159   2.709  18.614  0.00  0.00    +0.000 A 
ATOM      9  C   UNL     1       1.570   4.033  18.445  0.00  0.00    +0.000 A 
ATOM     10  C   UNL     1       2.877   4.357  18.024  0.00  0.00    +0.000 A 
ATOM     11  C   UNL     1       3.320   5.693  17.813  0.00  0.00    +0.000 A 
ATOM     12  C   UNL     1       4.639   5.914  17.360  0.00  0.00    +0.000 A 
BRANCH   3  14
ATOM     13  O   UNL     1       7.239   5.787  15.796  0.00  0.00    +0.000 OA
ATOM     14  C   UNL     1       6.932   5.029  16.702  0.00  0.00    +0.000 C 
BRANCH  14  15
ATOM     15  O   UNL     1       7.842   4.349  17.430  0.00  0.00    +0.000 OA
ATOM     16  H   UNL     1       8.596   4.035  16.884  0.00  0.00    +0.000 HD
ENDBRANCH  14  15
ENDBRANCH   3  14
BRANCH  12  17
ATOM     17  O   UNL     1       5.067   7.195  17.080  0.00  0.00    +0.000 OA
ATOM     18  H   UNL     1       4.266   7.759  17.127  0.00  0.00    +0.000 HD
ENDBRANCH  12  17
ENDBRANCH   1  11
BRANCH   2  19
ATOM     19  C   UNL     1       1.709   8.537  19.127  0.00  0.00    +0.000 A 
ATOM     20  C   UNL     1       1.294   9.237  17.984  0.00  0.00    +0.000 A 
ATOM     21  C   UNL     1       0.379  10.291  18.072  0.00  0.00    +0.000 A 
ATOM     22  C   UNL     1      -0.153  10.644  19.314  0.00  0.00    +0.000 A 
ATOM     23  C   UNL     1       0.240   9.962  20.466  0.00  0.00    +0.000 A 
ATOM     24  C   UNL     1       1.158   8.908  20.366  0.00  0.00    +0.000 A 
BRANCH  22  25
ATOM     25  S   UNL     1      -1.235  12.054  19.426  0.00  0.00    +0.000 S 
ATOM     26  O   UNL     1      -2.563  11.602  19.078  0.00  0.00    +0.000 OA
ATOM     27  O   UNL     1      -0.973  12.698  20.695  0.00  0.00    +0.000 OA
BRANCH  25  28
ATOM     28  N   UNL     1      -0.711  13.001  18.126  0.00  0.00    +0.000 N 
ATOM     29  C   UNL     1       0.188  14.011  18.534  0.00  0.00    +0.000 A 
ATOM     30  N   UNL     1      -0.244  15.242  18.631  0.00  0.00    +0.000 NA
ATOM     31  C   UNL     1       0.798  16.045  19.058  0.00  0.00    +0.000 A 
ATOM     32  C   UNL     1       2.027  15.425  19.160  0.00  0.00    +0.000 A 
ATOM     33  S   UNL     1       1.862  13.762  18.767  0.00  0.00    +0.000 S 
ATOM     34  H   UNL     1      -1.549  13.444  17.745  0.00  0.00    +0.000 HD
ENDBRANCH  25  28
ENDBRANCH  22  25
ENDBRANCH   2  19
TORSDOF 7
ENDMDL
MODEL 2
REMARK VINA RESULT:      -8.8      2.540      3.130
REMARK  Name = 
REMARK  7 active torsions:
REMARK  status: ('A' for Active; 'I' for Inactive)
REMARK    1  A    between atoms: C_2  and  O_3
REMARK    2  A    between atoms: C_2  and  C_4
REMARK    3  A    between atoms: C_12  and  N_13
REMARK    4  A    between atoms: N_14  and  C_15
REMARK    5  A    between atoms: C_18  and  S_19
REMARK    6  A    between atoms: S_19  and  N_22
REMARK    7  A    between atoms: C_30  and  O_31
REMARK                            x       y       z     vdW  Elec       q    Type
REMARK                         _______ _______ _______ _____ _____    ______ ____
ROOT
ATOM      1  N   UNL     1       2.589   6.877  19.278  0.00  0.00    +0.000 NA
ATOM      2  N   UNL     1       1.987   7.715  18.575  0.00  0.00    +0.000 NA
ENDROOT
BRANCH   1  11
ATOM      3  C   UNL     1       4.719   5.011  16.808  0.00  0.00    +0.000 A 
ATOM      4  C   UNL     1       4.157   3.734  16.908  0.00  0.00    +0.000 A 
ATOM      5  C   UNL     1       3.087   3.478  17.775  0.00  0.00    +0.000 A 
ATOM      6  C   UNL     1       2.513   2.200  17.818  0.00  0.00    +0.000 A 
ATOM      7  C   UNL     1       1.445   1.924  18.670  0.00  0.00    +0.000 A 
ATOM      8  C   UNL     1       0.946   2.924  19.495  0.00  0.00    +0.000 A 
ATOM      9  C   UNL     1       1.506   4.203  19.460  0.00  0.00    +0.000 A 
ATOM     10  C   UNL     1       2.580   4.519  18.600  0.00  0.00    +0.000 A 
ATOM     11  C   UNL     1       3.156   5.818  18.516  0.00  0.00    +0.000 A 
ATOM     12  C   UNL     1       4.208   6.043  17.601  0.00  0.00    +0.000 A 
BRANCH   3  14
ATOM     13  O   UNL     1       6.748   4.375  15.749  0.00  0.00    +0.000 OA
ATOM     14  C   UNL     1       5.840   5.185  15.849  0.00  0.00    +0.000 C 
BRANCH  14  15
ATOM     15  O   UNL     1       5.725   6.261  15.044  0.00  0.00    +0.000 OA
ATOM     16  H   UNL     1       5.496   7.075  15.542  0.00  0.00    +0.000 HD
ENDBRANCH  14  15
ENDBRANCH   3  14
BRANCH  12  17
ATOM     17  O   UNL     1       4.732   7.310  17.450  0.00  0.00    +0.000 OA
ATOM     18  H   UNL     1       3.958   7.911  17.387  0.00  0.00    +0.000 HD
ENDBRANCH  12  17
ENDBRANCH   1  11
BRANCH   2  19
ATOM     19  C   UNL     1       1.460   8.799  19.318  0.00  0.00    +0.000 A 
ATOM     20  C   UNL     1       1.235   8.586  20.687  0.00  0.00    +0.000 A 
ATOM     21  C   UNL     1       0.700   9.591  21.499  0.00  0.00    +0.000 A 
ATOM     22  C   UNL     1       0.403  10.840  20.949  0.00  0.00    +0.000 A 
ATOM     23  C   UNL     1       0.620  11.081  19.593  0.00  0.00    +0.000 A 
ATOM     24  C   UNL     1       1.157  10.066  18.788  0.00  0.00    +0.000 A 
BRANCH  22  25
ATOM     25  S   UNL     1      -0.375  12.075  21.970  0.00  0.00    +0.000 S 
ATOM     26  O   UNL     1      -0.640  11.462  23.253  0.00  0.00    +0.000 OA
ATOM     27  O   UNL     1       0.417  13.281  21.867  0.00  0.00    +0.000 OA
BRANCH  25  28
ATOM     28  N   UNL     1      -1.881  12.250  21.220  0.00  0.00    +0.000 N 
ATOM     29  C   UNL     1      -2.792  12.972  22.023  0.00  0.00    +0.000 A 
ATOM     30  N   UNL     1      -3.727  12.318  22.664  0.00  0.00    +0.000 NA
ATOM     31  C   UNL     1      -4.482  13.222  23.389  0.00  0.00    +0.000 A 
ATOM     32  C   UNL     1      -4.175  14.553  23.189  0.00  0.00    +0.000 A 
ATOM     33  S   UNL     1      -2.855  14.677  22.099  0.00  0.00    +0.000 S 
ATOM     34  H   UNL     1      -2.241  11.304  21.088  0.00  0.00    +0.000 HD
ENDBRANCH  25  28
ENDBRANCH  22  25
ENDBRANCH   2  19
TORSDOF 7
ENDMDL
MODEL 3
REMARK VINA RESULT:      -8.7      2.189      2.685
REMARK  Name = 
REMARK  7 active torsions:
REMARK  status: ('A' for Active; 'I' for Inactive)
REMARK    1  A    between atoms: C_2  and  O_3
REMARK    2  A    between atoms: C_2  and  C_4
REMARK    3  A    between atoms: C_12  and  N_13
REMARK    4  A    between atoms: N_14  and  C_15
REMARK    5  A    between atoms: C_18  and  S_19
REMARK    6  A    between atoms: S_19  and  N_22
REMARK    7  A    between atoms: C_30  and  O_31
REMARK                            x       y       z     vdW  Elec       q    Type
REMARK                         _______ _______ _______ _____ _____    ______ ____
ROOT
ATOM      1  N   UNL     1       2.630   6.876  17.927  0.00  0.00    +0.000 NA
ATOM      2  N   UNL     1       2.763   7.388  19.059  0.00  0.00    +0.000 NA
ENDROOT
BRANCH   1  11
ATOM      3  C   UNL     1       5.586   4.765  16.964  0.00  0.00    +0.000 A 
ATOM      4  C   UNL     1       5.066   3.488  17.194  0.00  0.00    +0.000 A 
ATOM      5  C   UNL     1       3.757   3.310  17.660  0.00  0.00    +0.000 A 
ATOM      6  C   UNL     1       3.247   2.016  17.836  0.00  0.00    +0.000 A 
ATOM      7  C   UNL     1       1.946   1.815  18.294  0.00  0.00    +0.000 A 
ATOM      8  C   UNL     1       1.145   2.910  18.592  0.00  0.00    +0.000 A 
ATOM      9  C   UNL     1       1.639   4.205  18.418  0.00  0.00    +0.000 A 
ATOM     10  C   UNL     1       2.947   4.443  17.944  0.00  0.00    +0.000 A 
ATOM     11  C   UNL     1       3.473   5.748  17.727  0.00  0.00    +0.000 A 
ATOM     12  C   UNL     1       4.784   5.882  17.219  0.00  0.00    +0.000 A 
BRANCH   3  14
ATOM     13  O   UNL     1       7.291   5.562  15.515  0.00  0.00    +0.000 OA
ATOM     14  C   UNL     1       6.979   4.848  16.455  0.00  0.00    +0.000 C 
BRANCH  14  15
ATOM     15  O   UNL     1       7.878   4.139  17.168  0.00  0.00    +0.000 OA
ATOM     16  H   UNL     1       7.561   3.942  18.076  0.00  0.00    +0.000 HD
ENDBRANCH  14  15
ENDBRANCH   3  14
BRANCH  12  17
ATOM     17  O   UNL     1       5.288   7.133  16.933  0.00  0.00    +0.000 OA
ATOM     18  H   UNL     1       6.264   7.044  16.982  0.00  0.00    +0.000 HD
ENDBRANCH  12  17
ENDBRANCH   1  11
BRANCH   2  19
ATOM     19  C   UNL     1       1.894   8.483  19.286  0.00  0.00    +0.000 A 
ATOM     20  C   UNL     1       1.396   8.644  20.588  0.00  0.00    +0.000 A 
ATOM     21  C   UNL     1       0.517   9.685  20.905  0.00  0.00    +0.000 A 
ATOM     22  C   UNL     1       0.141  10.598  19.917  0.00  0.00    +0.000 A 
ATOM     23  C   UNL     1       0.624  10.463  18.615  0.00  0.00    +0.000 A 
ATOM     24  C   UNL     1       1.504   9.416  18.309  0.00  0.00    +0.000 A 
BRANCH  22  25
ATOM     25  S   UNL     1      -1.059  11.854  20.308  0.00  0.00    +0.000 S 
ATOM     26  O   UNL     1      -0.378  13.128  20.254  0.00  0.00    +0.000 OA
ATOM     27  O   UNL     1      -2.230  11.598  19.498  0.00  0.00    +0.000 OA
BRANCH  25  28
ATOM     28  N   UNL     1      -1.357  11.556  21.946  0.00  0.00    +0.000 N 
ATOM     29  C   UNL     1      -1.737  12.727  22.638  0.00  0.00    +0.000 A 
ATOM     30  N   UNL     1      -0.859  13.324  23.402  0.00  0.00    +0.000 NA
ATOM     31  C   UNL     1      -1.446  14.446  23.959  0.00  0.00    +0.000 A 
ATOM     32  C   UNL     1      -2.791  14.608  23.697  0.00  0.00    +0.000 A 
ATOM     33  S   UNL     1      -3.330  13.345  22.668  0.00  0.00    +0.000 S 
ATOM     34  H   UNL     1      -0.475  11.218  22.335  0.00  0.00    +0.000 HD
ENDBRANCH  25  28
ENDBRANCH  22  25
ENDBRANCH   2  19
TORSDOF 7
ENDMDL
MODEL 4
REMARK VINA RESULT:      -8.6      2.664      3.118
REMARK  Name = 
REMARK  7 active torsions:
REMARK  status: ('A' for Active; 'I' for Inactive)
REMARK    1  A    between atoms: C_2  and  O_3
REMARK    2  A    between atoms: C_2  and  C_4
REMARK    3  A    between atoms: C_12  and  N_13
REMARK    4  A    between atoms: N_14  and  C_15
REMARK    5  A    between atoms: C_18  and  S_19
REMARK    6  A    between atoms: S_19  and  N_22
REMARK    7  A    between atoms: C_30  and  O_31
REMARK                            x       y       z     vdW  Elec       q    Type
REMARK                         _______ _______ _______ _____ _____    ______ ____
ROOT
ATOM      1  N   UNL     1       2.311   6.830  19.500  0.00  0.00    +0.000 NA
ATOM      2  N   UNL     1       1.836   7.793  18.862  0.00  0.00    +0.000 NA
ENDROOT
BRANCH   1  11
ATOM      3  C   UNL     1       4.512   5.298  16.868  0.00  0.00    +0.000 A 
ATOM      4  C   UNL     1       4.071   3.972  16.914  0.00  0.00    +0.000 A 
ATOM      5  C   UNL     1       3.059   3.575  17.797  0.00  0.00    +0.000 A 
ATOM      6  C   UNL     1       2.603   2.249  17.787  0.00  0.00    +0.000 A 
ATOM      7  C   UNL     1       1.595   1.832  18.654  0.00  0.00    +0.000 A 
ATOM      8  C   UNL     1       1.037   2.737  19.548  0.00  0.00    +0.000 A 
ATOM      9  C   UNL     1       1.479   4.063  19.566  0.00  0.00    +0.000 A 
ATOM     10  C   UNL     1       2.490   4.520  18.693  0.00  0.00    +0.000 A 
ATOM     11  C   UNL     1       2.943   5.869  18.664  0.00  0.00    +0.000 A 
ATOM     12  C   UNL     1       3.938   6.236  17.732  0.00  0.00    +0.000 A 
BRANCH   3  14
ATOM     13  O   UNL     1       5.561   6.642  15.213  0.00  0.00    +0.000 OA
ATOM     14  C   UNL     1       5.579   5.624  15.886  0.00  0.00    +0.000 C 
BRANCH  14  15
ATOM     15  O   UNL     1       6.604   4.748  15.863  0.00  0.00    +0.000 OA
ATOM     16  H   UNL     1       7.355   5.068  15.318  0.00  0.00    +0.000 HD
ENDBRANCH  14  15
ENDBRANCH   3  14
BRANCH  12  17
ATOM     17  O   UNL     1       4.341   7.552  17.635  0.00  0.00    +0.000 OA
ATOM     18  H   UNL     1       3.985   7.998  18.434  0.00  0.00    +0.000 HD
ENDBRANCH  12  17
ENDBRANCH   1  11
BRANCH   2  19
ATOM     19  C   UNL     1       1.246   8.780  19.690  0.00  0.00    +0.000 A 
ATOM     20  C   UNL     1       0.716   9.913  19.054  0.00  0.00    +0.000 A 
ATOM     21  C   UNL     1       0.130  10.949  19.789  0.00  0.00    +0.000 A 
ATOM     22  C   UNL     1       0.047  10.850  21.180  0.00  0.00    +0.000 A 
ATOM     23  C   UNL     1       0.564   9.733  21.837  0.00  0.00    +0.000 A 
ATOM     24  C   UNL     1       1.149   8.701  21.090  0.00  0.00    +0.000 A 
BRANCH  22  25
ATOM     25  S   UNL     1      -0.604  12.222  22.110  0.00  0.00    +0.000 S 
ATOM     26  O   UNL     1      -0.991  11.713  23.406  0.00  0.00    +0.000 OA
ATOM     27  O   UNL     1       0.337  13.313  21.986  0.00  0.00    +0.000 OA
BRANCH  25  28
ATOM     28  N   UNL     1      -2.048  12.547  21.289  0.00  0.00    +0.000 N 
ATOM     29  C   UNL     1      -3.015  13.137  22.132  0.00  0.00    +0.000 A 
ATOM     30  N   UNL     1      -3.999  12.400  22.579  0.00  0.00    +0.000 NA
ATOM     31  C   UNL     1      -4.805  13.180  23.389  0.00  0.00    +0.000 A 
ATOM     32  C   UNL     1      -4.479  14.521  23.442  0.00  0.00    +0.000 A 
ATOM     33  S   UNL     1      -3.078  14.806  22.492  0.00  0.00    +0.000 S 
ATOM     34  H   UNL     1      -2.399  11.642  20.970  0.00  0.00    +0.000 HD
ENDBRANCH  25  28
ENDBRANCH  22  25
ENDBRANCH   2  19
TORSDOF 7
ENDMDL
MODEL 5
REMARK VINA RESULT:      -8.5      1.838      2.733
REMARK  Name = 
REMARK  7 active torsions:
REMARK  status: ('A' for Active; 'I' for Inactive)
REMARK    1  A    between atoms: C_2  and  O_3
REMARK    2  A    between atoms: C_2  and  C_4
REMARK    3  A    between atoms: C_12  and  N_13
REMARK    4  A    between atoms: N_14  and  C_15
REMARK    5  A    between atoms: C_18  and  S_19
REMARK    6  A    between atoms: S_19  and  N_22
REMARK    7  A    between atoms: C_30  and  O_31
REMARK                            x       y       z     vdW  Elec       q    Type
REMARK                         _______ _______ _______ _____ _____    ______ ____
ROOT
ATOM      1  N   UNL     1       2.668   6.887  19.033  0.00  0.00    +0.000 NA
ATOM      2  N   UNL     1       2.304   7.782  18.241  0.00  0.00    +0.000 NA
ENDROOT
BRANCH   1  11
ATOM      3  C   UNL     1       5.062   4.945  16.885  0.00  0.00    +0.000 A 
ATOM      4  C   UNL     1       4.507   3.666  16.987  0.00  0.00    +0.000 A 
ATOM      5  C   UNL     1       3.357   3.432  17.750  0.00  0.00    +0.000 A 
ATOM      6  C   UNL     1       2.795   2.148  17.795  0.00  0.00    +0.000 A 
ATOM      7  C   UNL     1       1.648   1.893  18.544  0.00  0.00    +0.000 A 
ATOM      8  C   UNL     1       1.056   2.922  19.266  0.00  0.00    +0.000 A 
ATOM      9  C   UNL     1       1.602   4.207  19.228  0.00  0.00    +0.000 A 
ATOM     10  C   UNL     1       2.756   4.501  18.469  0.00  0.00    +0.000 A 
ATOM     11  C   UNL     1       3.322   5.804  18.383  0.00  0.00    +0.000 A 
ATOM     12  C   UNL     1       4.460   6.004  17.572  0.00  0.00    +0.000 A 
BRANCH   3  14
ATOM     13  O   UNL     1       7.314   4.501  16.275  0.00  0.00    +0.000 OA
ATOM     14  C   UNL     1       6.274   5.093  16.038  0.00  0.00    +0.000 C 
BRANCH  14  15
ATOM     15  O   UNL     1       6.101   5.864  14.945  0.00  0.00    +0.000 OA
ATOM     16  H   UNL     1       6.758   6.593  14.896  0.00  0.00    +0.000 HD
ENDBRANCH  14  15
ENDBRANCH   3  14
BRANCH  12  17
ATOM     17  O   UNL     1       4.982   7.270  17.416  0.00  0.00    +0.000 OA
ATOM     18  H   UNL     1       4.808   7.517  16.482  0.00  0.00    +0.000 HD
ENDBRANCH  12  17
ENDBRANCH   1  11
BRANCH   2  19
ATOM     19  C   UNL     1       1.694   8.888  18.883  0.00  0.00    +0.000 A 
ATOM     20  C   UNL     1       1.353   8.733  20.235  0.00  0.00    +0.000 A 
ATOM     21  C   UNL     1       0.731   9.763  20.948  0.00  0.00    +0.000 A 
ATOM     22  C   UNL     1       0.462  10.979  20.315  0.00  0.00    +0.000 A 
ATOM     23  C   UNL     1       0.794  11.160  18.972  0.00  0.00    +0.000 A 
ATOM     24  C   UNL     1       1.417  10.121  18.268  0.00  0.00    +0.000 A 
BRANCH  22  25
ATOM     25  S   UNL     1      -0.425  12.242  21.203  0.00  0.00    +0.000 S 
ATOM     26  O   UNL     1      -1.493  11.586  21.924  0.00  0.00    +0.000 OA
ATOM     27  O   UNL     1       0.555  13.052  21.893  0.00  0.00    +0.000 OA
BRANCH  25  28
ATOM     28  N   UNL     1      -1.169  13.096  19.947  0.00  0.00    +0.000 N 
ATOM     29  C   UNL     1      -2.533  12.758  19.811  0.00  0.00    +0.000 A 
ATOM     30  N   UNL     1      -2.894  11.963  18.837  0.00  0.00    +0.000 NA
ATOM     31  C   UNL     1      -4.261  11.762  18.911  0.00  0.00    +0.000 A 
ATOM     32  C   UNL     1      -4.922  12.504  19.869  0.00  0.00    +0.000 A 
ATOM     33  S   UNL     1      -3.786  13.442  20.749  0.00  0.00    +0.000 S 
ATOM     34  H   UNL     1      -0.678  12.825  19.093  0.00  0.00    +0.000 HD
ENDBRANCH  25  28
ENDBRANCH  22  25
ENDBRANCH   2  19
TORSDOF 7
ENDMDL
MODEL 6
REMARK VINA RESULT:      -8.5      2.199      2.611
REMARK  Name = 
REMARK  7 active torsions:
REMARK  status: ('A' for Active; 'I' for Inactive)
REMARK    1  A    between atoms: C_2  and  O_3
REMARK    2  A    between atoms: C_2  and  C_4
REMARK    3  A    between atoms: C_12  and  N_13
REMARK    4  A    between atoms: N_14  and  C_15
REMARK    5  A    between atoms: C_18  and  S_19
REMARK    6  A    between atoms: S_19  and  N_22
REMARK    7  A    between atoms: C_30  and  O_31
REMARK                            x       y       z     vdW  Elec       q    Type
REMARK                         _______ _______ _______ _____ _____    ______ ____
ROOT
ATOM      1  N   UNL     1       2.531   6.852  18.157  0.00  0.00    +0.000 NA
ATOM      2  N   UNL     1       2.651   7.316  19.310  0.00  0.00    +0.000 NA
ENDROOT
BRANCH   1  11
ATOM      3  C   UNL     1       5.582   4.934  17.094  0.00  0.00    +0.000 A 
ATOM      4  C   UNL     1       5.118   3.624  17.243  0.00  0.00    +0.000 A 
ATOM      5  C   UNL     1       3.816   3.361  17.686  0.00  0.00    +0.000 A 
ATOM      6  C   UNL     1       3.361   2.038  17.779  0.00  0.00    +0.000 A 
ATOM      7  C   UNL     1       2.068   1.753  18.214  0.00  0.00    +0.000 A 
ATOM      8  C   UNL     1       1.218   2.792  18.569  0.00  0.00    +0.000 A 
ATOM      9  C   UNL     1       1.655   4.116  18.478  0.00  0.00    +0.000 A 
ATOM     10  C   UNL     1       2.955   4.438  18.030  0.00  0.00    +0.000 A 
ATOM     11  C   UNL     1       3.424   5.775  17.896  0.00  0.00    +0.000 A 
ATOM     12  C   UNL     1       4.730   5.997  17.409  0.00  0.00    +0.000 A 
BRANCH   3  14
ATOM     13  O   UNL     1       7.314   6.065  15.925  0.00  0.00    +0.000 OA
ATOM     14  C   UNL     1       6.974   5.108  16.602  0.00  0.00    +0.000 C 
BRANCH  14  15
ATOM     15  O   UNL     1       7.841   4.171  17.036  0.00  0.00    +0.000 OA
ATOM     16  H   UNL     1       8.771   4.488  17.020  0.00  0.00    +0.000 HD
ENDBRANCH  14  15
ENDBRANCH   3  14
BRANCH  12  17
ATOM     17  O   UNL     1       5.181   7.284  17.202  0.00  0.00    +0.000 OA
ATOM     18  H   UNL     1       4.398   7.794  16.900  0.00  0.00    +0.000 HD
ENDBRANCH  12  17
ENDBRANCH   1  11
BRANCH   2  19
ATOM     19  C   UNL     1       1.734   8.357  19.596  0.00  0.00    +0.000 A 
ATOM     20  C   UNL     1       1.446   9.258  18.560  0.00  0.00    +0.000 A 
ATOM     21  C   UNL     1       0.567  10.328  18.753  0.00  0.00    +0.000 A 
ATOM     22  C   UNL     1      -0.058  10.496  19.991  0.00  0.00    +0.000 A 
ATOM     23  C   UNL     1       0.208   9.612  21.038  0.00  0.00    +0.000 A 
ATOM     24  C   UNL     1       1.091   8.543  20.833  0.00  0.00    +0.000 A 
BRANCH  22  25
ATOM     25  S   UNL     1      -1.091  11.922  20.255  0.00  0.00    +0.000 S 
ATOM     26  O   UNL     1      -0.233  13.084  20.212  0.00  0.00    +0.000 OA
ATOM     27  O   UNL     1      -2.229  11.799  19.370  0.00  0.00    +0.000 OA
BRANCH  25  28
ATOM     28  N   UNL     1      -1.539  11.734  21.876  0.00  0.00    +0.000 N 
ATOM     29  C   UNL     1      -2.324  12.814  22.337  0.00  0.00    +0.000 A 
ATOM     30  N   UNL     1      -1.768  13.722  23.097  0.00  0.00    +0.000 NA
ATOM     31  C   UNL     1      -2.716  14.679  23.410  0.00  0.00    +0.000 A 
ATOM     32  C   UNL     1      -3.999  14.413  22.977  0.00  0.00    +0.000 A 
ATOM     33  S   UNL     1      -4.010  12.940  22.095  0.00  0.00    +0.000 S 
ATOM     34  H   UNL     1      -0.667  11.714  22.407  0.00  0.00    +0.000 HD
ENDBRANCH  25  28
ENDBRANCH  22  25
ENDBRANCH   2  19
TORSDOF 7
ENDMDL
MODEL 7
REMARK VINA RESULT:      -8.5      1.742      2.803
REMARK  Name = 
REMARK  7 active torsions:
REMARK  status: ('A' for Active; 'I' for Inactive)
REMARK    1  A    between atoms: C_2  and  O_3
REMARK    2  A    between atoms: C_2  and  C_4
REMARK    3  A    between atoms: C_12  and  N_13
REMARK    4  A    between atoms: N_14  and  C_15
REMARK    5  A    between atoms: C_18  and  S_19
REMARK    6  A    between atoms: S_19  and  N_22
REMARK    7  A    between atoms: C_30  and  O_31
REMARK                            x       y       z     vdW  Elec       q    Type
REMARK                         _______ _______ _______ _____ _____    ______ ____
ROOT
ATOM      1  N   UNL     1       3.096   7.279  17.698  0.00  0.00    +0.000 NA
ATOM      2  N   UNL     1       2.683   7.423  18.868  0.00  0.00    +0.000 NA
ENDROOT
BRANCH   1  11
ATOM      3  C   UNL     1       5.783   4.834  16.737  0.00  0.00    +0.000 A 
ATOM      4  C   UNL     1       5.125   3.627  16.993  0.00  0.00    +0.000 A 
ATOM      5  C   UNL     1       3.811   3.605  17.475  0.00  0.00    +0.000 A 
ATOM      6  C   UNL     1       3.160   2.379  17.677  0.00  0.00    +0.000 A 
ATOM      7  C   UNL     1       1.851   2.333  18.153  0.00  0.00    +0.000 A 
ATOM      8  C   UNL     1       1.181   3.516  18.441  0.00  0.00    +0.000 A 
ATOM      9  C   UNL     1       1.816   4.744  18.242  0.00  0.00    +0.000 A 
ATOM     10  C   UNL     1       3.137   4.826  17.749  0.00  0.00    +0.000 A 
ATOM     11  C   UNL     1       3.803   6.060  17.506  0.00  0.00    +0.000 A 
ATOM     12  C   UNL     1       5.114   6.038  16.983  0.00  0.00    +0.000 A 
BRANCH   3  14
ATOM     13  O   UNL     1       7.503   5.274  15.159  0.00  0.00    +0.000 OA
ATOM     14  C   UNL     1       7.170   4.752  16.211  0.00  0.00    +0.000 C 
BRANCH  14  15
ATOM     15  O   UNL     1       8.042   4.130  17.030  0.00  0.00    +0.000 OA
ATOM     16  H   UNL     1       7.863   4.320  17.977  0.00  0.00    +0.000 HD
ENDBRANCH  14  15
ENDBRANCH   3  14
BRANCH  12  17
ATOM     17  O   UNL     1       5.753   7.220  16.671  0.00  0.00    +0.000 OA
ATOM     18  H   UNL     1       5.366   7.513  15.818  0.00  0.00    +0.000 HD
ENDBRANCH  12  17
ENDBRANCH   1  11
BRANCH   2  19
ATOM     19  C   UNL     1       1.935   8.612  19.057  0.00  0.00    +0.000 A 
ATOM     20  C   UNL     1       1.233   8.738  20.265  0.00  0.00    +0.000 A 
ATOM     21  C   UNL     1       0.453   9.867  20.535  0.00  0.00    +0.000 A 
ATOM     22  C   UNL     1       0.385  10.902  19.599  0.00  0.00    +0.000 A 
ATOM     23  C   UNL     1       1.076  10.803  18.391  0.00  0.00    +0.000 A 
ATOM     24  C   UNL     1       1.855   9.667  18.132  0.00  0.00    +0.000 A 
BRANCH  22  25
ATOM     25  S   UNL     1      -0.695  12.284  19.910  0.00  0.00    +0.000 S 
ATOM     26  O   UNL     1      -1.764  11.807  20.758  0.00  0.00    +0.000 OA
ATOM     27  O   UNL     1       0.136  13.398  20.309  0.00  0.00    +0.000 OA
BRANCH  25  28
ATOM     28  N   UNL     1      -1.387  12.535  18.387  0.00  0.00    +0.000 N 
ATOM     29  C   UNL     1      -2.486  11.679  18.156  0.00  0.00    +0.000 A 
ATOM     30  N   UNL     1      -2.327  10.640  17.377  0.00  0.00    +0.000 NA
ATOM     31  C   UNL     1      -3.521   9.946  17.313  0.00  0.00    +0.000 A 
ATOM     32  C   UNL     1      -4.592  10.541  17.949  0.00  0.00    +0.000 A 
ATOM     33  S   UNL     1      -4.073  11.991  18.707  0.00  0.00    +0.000 S 
ATOM     34  H   UNL     1      -0.656  12.320  17.707  0.00  0.00    +0.000 HD
ENDBRANCH  25  28
ENDBRANCH  22  25
ENDBRANCH   2  19
TORSDOF 7
ENDMDL
MODEL 8
REMARK VINA RESULT:      -8.5      2.477      2.863
REMARK  Name = 
REMARK  7 active torsions:
REMARK  status: ('A' for Active; 'I' for Inactive)
REMARK    1  A    between atoms: C_2  and  O_3
REMARK    2  A    between atoms: C_2  and  C_4
REMARK    3  A    between atoms: C_12  and  N_13
REMARK    4  A    between atoms: N_14  and  C_15
REMARK    5  A    between atoms: C_18  and  S_19
REMARK    6  A    between atoms: S_19  and  N_22
REMARK    7  A    between atoms: C_30  and  O_31
REMARK                            x       y       z     vdW  Elec       q    Type
REMARK                         _______ _______ _______ _____ _____    ______ ____
ROOT
ATOM      1  N   UNL     1       2.623   6.943  19.168  0.00  0.00    +0.000 NA
ATOM      2  N   UNL     1       2.059   7.765  18.416  0.00  0.00    +0.000 NA
ENDROOT
BRANCH   1  11
ATOM      3  C   UNL     1       4.683   4.856  16.818  0.00  0.00    +0.000 A 
ATOM      4  C   UNL     1       4.067   3.611  16.984  0.00  0.00    +0.000 A 
ATOM      5  C   UNL     1       2.984   3.448  17.856  0.00  0.00    +0.000 A 
ATOM      6  C   UNL     1       2.356   2.200  17.966  0.00  0.00    +0.000 A 
ATOM      7  C   UNL     1       1.274   2.015  18.825  0.00  0.00    +0.000 A 
ATOM      8  C   UNL     1       0.814   3.079  19.591  0.00  0.00    +0.000 A 
ATOM      9  C   UNL     1       1.428   4.330  19.489  0.00  0.00    +0.000 A 
ATOM     10  C   UNL     1       2.518   4.553  18.620  0.00  0.00    +0.000 A 
ATOM     11  C   UNL     1       3.148   5.820  18.468  0.00  0.00    +0.000 A 
ATOM     12  C   UNL     1       4.212   5.950  17.549  0.00  0.00    +0.000 A 
BRANCH   3  14
ATOM     13  O   UNL     1       5.937   5.845  15.060  0.00  0.00    +0.000 OA
ATOM     14  C   UNL     1       5.814   4.929  15.857  0.00  0.00    +0.000 C 
BRANCH  14  15
ATOM     15  O   UNL     1       6.731   3.951  15.997  0.00  0.00    +0.000 OA
ATOM     16  H   UNL     1       6.841   3.675  16.933  0.00  0.00    +0.000 HD
ENDBRANCH  14  15
ENDBRANCH   3  14
BRANCH  12  17
ATOM     17  O   UNL     1       4.789   7.184  17.333  0.00  0.00    +0.000 OA
ATOM     18  H   UNL     1       5.702   7.116  17.687  0.00  0.00    +0.000 HD
ENDBRANCH  12  17
ENDBRANCH   1  11
BRANCH   2  19
ATOM     19  C   UNL     1       1.575   8.909  19.096  0.00  0.00    +0.000 A 
ATOM     20  C   UNL     1       1.530  10.110  18.373  0.00  0.00    +0.000 A 
ATOM     21  C   UNL     1       1.085  11.297  18.965  0.00  0.00    +0.000 A 
ATOM     22  C   UNL     1       0.654  11.288  20.294  0.00  0.00    +0.000 A 
ATOM     23  C   UNL     1       0.685  10.107  21.035  0.00  0.00    +0.000 A 
ATOM     24  C   UNL     1       1.133   8.924  20.431  0.00  0.00    +0.000 A 
BRANCH  22  25
ATOM     25  S   UNL     1       0.190  12.825  21.065  0.00  0.00    +0.000 S 
ATOM     26  O   UNL     1       1.408  13.456  21.524  0.00  0.00    +0.000 OA
ATOM     27  O   UNL     1      -0.711  13.506  20.163  0.00  0.00    +0.000 OA
BRANCH  25  28
ATOM     28  N   UNL     1      -0.607  12.290  22.458  0.00  0.00    +0.000 N 
ATOM     29  C   UNL     1      -1.690  13.128  22.803  0.00  0.00    +0.000 A 
ATOM     30  N   UNL     1      -1.547  13.972  23.793  0.00  0.00    +0.000 NA
ATOM     31  C   UNL     1      -2.721  14.690  23.936  0.00  0.00    +0.000 A 
ATOM     32  C   UNL     1      -3.767  14.292  23.129  0.00  0.00    +0.000 A 
ATOM     33  S   UNL     1      -3.247  13.012  22.110  0.00  0.00    +0.000 S 
ATOM     34  H   UNL     1       0.085  12.324  23.209  0.00  0.00    +0.000 HD
ENDBRANCH  25  28
ENDBRANCH  22  25
ENDBRANCH   2  19
TORSDOF 7
ENDMDL
MODEL 9
REMARK VINA RESULT:      -8.5      1.134      1.460
REMARK  Name = 
REMARK  7 active torsions:
REMARK  status: ('A' for Active; 'I' for Inactive)
REMARK    1  A    between atoms: C_2  and  O_3
REMARK    2  A    between atoms: C_2  and  C_4
REMARK    3  A    between atoms: C_12  and  N_13
REMARK    4  A    between atoms: N_14  and  C_15
REMARK    5  A    between atoms: C_18  and  S_19
REMARK    6  A    between atoms: S_19  and  N_22
REMARK    7  A    between atoms: C_30  and  O_31
REMARK                            x       y       z     vdW  Elec       q    Type
REMARK                         _______ _______ _______ _____ _____    ______ ____
ROOT
ATOM      1  N   UNL     1       2.835   6.972  18.901  0.00  0.00    +0.000 NA
ATOM      2  N   UNL     1       2.315   7.771  18.094  0.00  0.00    +0.000 NA
ENDROOT
BRANCH   1  11
ATOM      3  C   UNL     1       5.130   4.913  16.753  0.00  0.00    +0.000 A 
ATOM      4  C   UNL     1       4.535   3.655  16.887  0.00  0.00    +0.000 A 
ATOM      5  C   UNL     1       3.390   3.473  17.672  0.00  0.00    +0.000 A 
ATOM      6  C   UNL     1       2.787   2.209  17.749  0.00  0.00    +0.000 A 
ATOM      7  C   UNL     1       1.645   2.006  18.521  0.00  0.00    +0.000 A 
ATOM      8  C   UNL     1       1.098   3.067  19.233  0.00  0.00    +0.000 A 
ATOM      9  C   UNL     1       1.686   4.333  19.162  0.00  0.00    +0.000 A 
ATOM     10  C   UNL     1       2.836   4.574  18.380  0.00  0.00    +0.000 A 
ATOM     11  C   UNL     1       3.443   5.856  18.262  0.00  0.00    +0.000 A 
ATOM     12  C   UNL     1       4.574   6.003  17.429  0.00  0.00    +0.000 A 
BRANCH   3  14
ATOM     13  O   UNL     1       6.323   5.588  14.813  0.00  0.00    +0.000 OA
ATOM     14  C   UNL     1       6.333   5.005  15.885  0.00  0.00    +0.000 C 
BRANCH  14  15
ATOM     15  O   UNL     1       7.449   4.468  16.417  0.00  0.00    +0.000 OA
ATOM     16  H   UNL     1       8.191   5.110  16.452  0.00  0.00    +0.000 HD
ENDBRANCH  14  15
ENDBRANCH   3  14
BRANCH  12  17
ATOM     17  O   UNL     1       5.135   7.249  17.242  0.00  0.00    +0.000 OA
ATOM     18  H   UNL     1       6.028   7.201  17.645  0.00  0.00    +0.000 HD
ENDBRANCH  12  17
ENDBRANCH   1  11
BRANCH   2  19
ATOM     19  C   UNL     1       1.749   8.910  18.717  0.00  0.00    +0.000 A 
ATOM     20  C   UNL     1       1.287   8.756  20.033  0.00  0.00    +0.000 A 
ATOM     21  C   UNL     1       0.696   9.819  20.724  0.00  0.00    +0.000 A 
ATOM     22  C   UNL     1       0.581  11.067  20.107  0.00  0.00    +0.000 A 
ATOM     23  C   UNL     1       1.035  11.249  18.800  0.00  0.00    +0.000 A 
ATOM     24  C   UNL     1       1.625  10.176  18.117  0.00  0.00    +0.000 A 
BRANCH  22  25
ATOM     25  S   UNL     1      -0.267  12.381  20.958  0.00  0.00    +0.000 S 
ATOM     26  O   UNL     1      -1.418  11.795  21.607  0.00  0.00    +0.000 OA
ATOM     27  O   UNL     1       0.724  13.116  21.713  0.00  0.00    +0.000 OA
BRANCH  25  28
ATOM     28  N   UNL     1      -0.876  13.295  19.671  0.00  0.00    +0.000 N 
ATOM     29  C   UNL     1      -0.372  14.614  19.673  0.00  0.00    +0.000 A 
ATOM     30  N   UNL     1      -1.140  15.585  20.095  0.00  0.00    +0.000 NA
ATOM     31  C   UNL     1      -0.436  16.773  20.022  0.00  0.00    +0.000 A 
ATOM     32  C   UNL     1       0.811  16.692  19.434  0.00  0.00    +0.000 A 
ATOM     33  S   UNL     1       1.139  15.061  19.013  0.00  0.00    +0.000 S 
ATOM     34  H   UNL     1      -1.888  13.331  19.806  0.00  0.00    +0.000 HD
ENDBRANCH  25  28
ENDBRANCH  22  25
ENDBRANCH   2  19
TORSDOF 7
ENDMDL
