MODEL 1
REMARK VINA RESULT:      -7.9      0.000      0.000
REMARK  Name = 
REMARK  5 active torsions:
REMARK  status: ('A' for Active; 'I' for Inactive)
REMARK    1  A    between atoms: C_1  and  C_2
REMARK    2  A    between atoms: C_6  and  N_7
REMARK    3  A    between atoms: C_10  and  O_11
REMARK    4  A    between atoms: O_11  and  C_12
REMARK    5  A    between atoms: C_17  and  C_18
REMARK                            x       y       z     vdW  Elec       q    Type
REMARK                         _______ _______ _______ _____ _____    ______ ____
ROOT
ATOM      1  N   UNL     1       1.565   8.808  19.428  0.00  0.00    +0.000 N 
ATOM      2  C   UNL     1       1.286   7.501  20.025  0.00  0.00    +0.000 C 
ATOM      3  C   UNL     1       2.591   6.705  19.944  0.00  0.00    +0.000 C 
ATOM      4  C   UNL     1       3.121   6.619  18.503  0.00  0.00    +0.000 C 
ATOM      5  C   UNL     1       3.132   7.983  17.804  0.00  0.00    +0.000 C 
ATOM      6  C   UNL     1       1.807   8.715  17.983  0.00  0.00    +0.000 C 
ENDROOT
BRANCH   1  12
ATOM      7  C   UNL     1      -1.029  12.725  18.310  0.00  0.00    +0.000 C 
ATOM      8  C   UNL     1      -0.533  11.748  19.331  0.00  0.00    +0.000 A 
ATOM      9  N   UNL     1      -0.940  11.930  20.603  0.00  0.00    +0.000 NA
ATOM     10  C   UNL     1      -0.482  11.011  21.455  0.00  0.00    +0.000 A 
ATOM     11  C   UNL     1       0.336   9.967  21.110  0.00  0.00    +0.000 A 
ATOM     12  C   UNL     1       0.731   9.860  19.801  0.00  0.00    +0.000 A 
ATOM     13  N   UNL     1       0.280  10.749  18.894  0.00  0.00    +0.000 NA
ATOM     14  C   UNL     1       0.541   9.080  22.281  0.00  0.00    +0.000 C 
ATOM     15  N   UNL     1       0.143   9.887  23.467  0.00  0.00    +0.000 NA
ATOM     16  C   UNL     1      -0.785  10.925  22.926  0.00  0.00    +0.000 C 
ATOM     17  H   UNL     1       0.982  10.384  23.771  0.00  0.00    +0.000 HD
ENDBRANCH   1  12
BRANCH   4  18
ATOM     18  O   UNL     1       2.307   5.722  17.726  0.00  0.00    +0.000 OA
BRANCH  18  19
ATOM     19  C   UNL     1       2.292   4.396  18.084  0.00  0.00    +0.000 A 
ATOM     20  C   UNL     1       1.346   3.833  18.942  0.00  0.00    +0.000 A 
ATOM     21  C   UNL     1       1.365   2.468  19.247  0.00  0.00    +0.000 A 
ATOM     22  C   UNL     1       2.346   1.650  18.703  0.00  0.00    +0.000 A 
ATOM     23  C   UNL     1       3.329   2.207  17.887  0.00  0.00    +0.000 A 
ATOM     24  C   UNL     1       3.329   3.582  17.592  0.00  0.00    +0.000 A 
ATOM     25  C   UNL     1       4.438   4.132  16.737  0.00  0.00    +0.000 C 
ENDBRANCH  18  19
ENDBRANCH   4  18
TORSDOF 3
ENDMDL
MODEL 2
REMARK VINA RESULT:      -7.9      3.724      6.308
REMARK  Name = 
REMARK  5 active torsions:
REMARK  status: ('A' for Active; 'I' for Inactive)
REMARK    1  A    between atoms: C_1  and  C_2
REMARK    2  A    between atoms: C_6  and  N_7
REMARK    3  A    between atoms: C_10  and  O_11
REMARK    4  A    between atoms: O_11  and  C_12
REMARK    5  A    between atoms: C_17  and  C_18
REMARK                            x       y       z     vdW  Elec       q    Type
REMARK                         _______ _______ _______ _____ _____    ______ ____
ROOT
ATOM      1  N   UNL     1       4.847   5.218  18.120  0.00  0.00    +0.000 N 
ATOM      2  C   UNL     1       4.530   4.383  16.959  0.00  0.00    +0.000 C 
ATOM      3  C   UNL     1       5.852   3.757  16.508  0.00  0.00    +0.000 C 
ATOM      4  C   UNL     1       6.921   4.823  16.220  0.00  0.00    +0.000 C 
ATOM      5  C   UNL     1       7.029   5.859  17.345  0.00  0.00    +0.000 C 
ATOM      6  C   UNL     1       5.658   6.385  17.755  0.00  0.00    +0.000 C 
ENDROOT
BRANCH   1  12
ATOM      7  C   UNL     1       1.578   8.282  19.922  0.00  0.00    +0.000 C 
ATOM      8  C   UNL     1       2.208   6.923  19.903  0.00  0.00    +0.000 A 
ATOM      9  N   UNL     1       1.708   6.004  20.752  0.00  0.00    +0.000 NA
ATOM     10  C   UNL     1       2.297   4.810  20.666  0.00  0.00    +0.000 A 
ATOM     11  C   UNL     1       3.325   4.507  19.811  0.00  0.00    +0.000 A 
ATOM     12  C   UNL     1       3.800   5.501  18.994  0.00  0.00    +0.000 A 
ATOM     13  N   UNL     1       3.226   6.720  19.025  0.00  0.00    +0.000 NA
ATOM     14  C   UNL     1       3.644   3.061  19.899  0.00  0.00    +0.000 C 
ATOM     15  N   UNL     1       3.031   2.595  21.173  0.00  0.00    +0.000 NA
ATOM     16  C   UNL     1       1.943   3.578  21.453  0.00  0.00    +0.000 C 
ATOM     17  H   UNL     1       3.737   2.733  21.898  0.00  0.00    +0.000 HD
ENDBRANCH   1  12
BRANCH   4  18
ATOM     18  O   UNL     1       6.617   5.518  14.997  0.00  0.00    +0.000 OA
BRANCH  18  19
ATOM     19  C   UNL     1       6.519   4.775  13.845  0.00  0.00    +0.000 A 
ATOM     20  C   UNL     1       5.512   3.839  13.607  0.00  0.00    +0.000 A 
ATOM     21  C   UNL     1       5.448   3.135  12.401  0.00  0.00    +0.000 A 
ATOM     22  C   UNL     1       6.405   3.351  11.420  0.00  0.00    +0.000 A 
ATOM     23  C   UNL     1       7.447   4.244  11.663  0.00  0.00    +0.000 A 
ATOM     24  C   UNL     1       7.531   4.942  12.882  0.00  0.00    +0.000 A 
ATOM     25  C   UNL     1       8.700   5.862  13.102  0.00  0.00    +0.000 C 
ENDBRANCH  18  19
ENDBRANCH   4  18
TORSDOF 3
ENDMDL
MODEL 3
REMARK VINA RESULT:      -7.8      2.689      7.949
REMARK  Name = 
REMARK  5 active torsions:
REMARK  status: ('A' for Active; 'I' for Inactive)
REMARK    1  A    between atoms: C_1  and  C_2
REMARK    2  A    between atoms: C_6  and  N_7
REMARK    3  A    between atoms: C_10  and  O_11
REMARK    4  A    between atoms: O_11  and  C_12
REMARK    5  A    between atoms: C_17  and  C_18
REMARK                            x       y       z     vdW  Elec       q    Type
REMARK                         _______ _______ _______ _____ _____    ______ ____
ROOT
ATOM      1  N   UNL     1       2.760   7.076  18.492  0.00  0.00    +0.000 N 
ATOM      2  C   UNL     1       2.158   7.975  17.505  0.00  0.00    +0.000 C 
ATOM      3  C   UNL     1       2.152   9.367  18.140  0.00  0.00    +0.000 C 
ATOM      4  C   UNL     1       1.426   9.375  19.495  0.00  0.00    +0.000 C 
ATOM      5  C   UNL     1       1.884   8.232  20.408  0.00  0.00    +0.000 C 
ATOM      6  C   UNL     1       1.902   6.898  19.670  0.00  0.00    +0.000 C 
ENDROOT
BRANCH   1  12
ATOM      7  C   UNL     1       2.510   2.321  17.691  0.00  0.00    +0.000 C 
ATOM      8  C   UNL     1       3.262   3.613  17.596  0.00  0.00    +0.000 A 
ATOM      9  N   UNL     1       4.478   3.574  17.017  0.00  0.00    +0.000 NA
ATOM     10  C   UNL     1       5.081   4.761  16.942  0.00  0.00    +0.000 A 
ATOM     11  C   UNL     1       4.550   5.936  17.407  0.00  0.00    +0.000 A 
ATOM     12  C   UNL     1       3.317   5.895  18.008  0.00  0.00    +0.000 A 
ATOM     13  N   UNL     1       2.655   4.724  18.091  0.00  0.00    +0.000 NA
ATOM     14  C   UNL     1       5.437   7.069  17.044  0.00  0.00    +0.000 C 
ATOM     15  N   UNL     1       6.749   6.454  16.706  0.00  0.00    +0.000 NA
ATOM     16  C   UNL     1       6.423   5.047  16.325  0.00  0.00    +0.000 C 
ATOM     17  H   UNL     1       7.275   6.399  17.580  0.00  0.00    +0.000 HD
ENDBRANCH   1  12
BRANCH   4  18
ATOM     18  O   UNL     1       0.005   9.252  19.300  0.00  0.00    +0.000 OA
BRANCH  18  19
ATOM     19  C   UNL     1      -0.775  10.353  19.558  0.00  0.00    +0.000 A 
ATOM     20  C   UNL     1      -0.738  11.069  20.755  0.00  0.00    +0.000 A 
ATOM     21  C   UNL     1      -1.537  12.201  20.947  0.00  0.00    +0.000 A 
ATOM     22  C   UNL     1      -2.396  12.622  19.943  0.00  0.00    +0.000 A 
ATOM     23  C   UNL     1      -2.485  11.887  18.762  0.00  0.00    +0.000 A 
ATOM     24  C   UNL     1      -1.700  10.735  18.568  0.00  0.00    +0.000 A 
ATOM     25  C   UNL     1      -1.867   9.960  17.289  0.00  0.00    +0.000 C 
ENDBRANCH  18  19
ENDBRANCH   4  18
TORSDOF 3
ENDMDL
MODEL 4
REMARK VINA RESULT:      -7.8      3.500      6.325
REMARK  Name = 
REMARK  5 active torsions:
REMARK  status: ('A' for Active; 'I' for Inactive)
REMARK    1  A    between atoms: C_1  and  C_2
REMARK    2  A    between atoms: C_6  and  N_7
REMARK    3  A    between atoms: C_10  and  O_11
REMARK    4  A    between atoms: O_11  and  C_12
REMARK    5  A    between atoms: C_17  and  C_18
REMARK                            x       y       z     vdW  Elec       q    Type
REMARK                         _______ _______ _______ _____ _____    ______ ____
ROOT
ATOM      1  N   UNL     1       4.766   5.976  18.406  0.00  0.00    +0.000 N 
ATOM      2  C   UNL     1       6.017   5.376  18.872  0.00  0.00    +0.000 C 
ATOM      3  C   UNL     1       7.146   6.179  18.221  0.00  0.00    +0.000 C 
ATOM      4  C   UNL     1       7.017   6.209  16.689  0.00  0.00    +0.000 C 
ATOM      5  C   UNL     1       5.598   6.569  16.231  0.00  0.00    +0.000 C 
ATOM      6  C   UNL     1       4.547   5.751  16.972  0.00  0.00    +0.000 C 
ENDROOT
BRANCH   1  12
ATOM      7  C   UNL     1       1.097   7.682  21.042  0.00  0.00    +0.000 C 
ATOM      8  C   UNL     1       1.855   6.522  20.476  0.00  0.00    +0.000 A 
ATOM      9  N   UNL     1       1.388   5.289  20.755  0.00  0.00    +0.000 NA
ATOM     10  C   UNL     1       2.095   4.303  20.200  0.00  0.00    +0.000 A 
ATOM     11  C   UNL     1       3.206   4.485  19.417  0.00  0.00    +0.000 A 
ATOM     12  C   UNL     1       3.638   5.768  19.196  0.00  0.00    +0.000 A 
ATOM     13  N   UNL     1       2.947   6.802  19.716  0.00  0.00    +0.000 NA
ATOM     14  C   UNL     1       3.656   3.181  18.871  0.00  0.00    +0.000 C 
ATOM     15  N   UNL     1       3.004   2.147  19.721  0.00  0.00    +0.000 NA
ATOM     16  C   UNL     1       1.808   2.830  20.299  0.00  0.00    +0.000 C 
ATOM     17  H   UNL     1       3.640   1.973  20.501  0.00  0.00    +0.000 HD
ENDBRANCH   1  12
BRANCH   4  18
ATOM     18  O   UNL     1       7.356   4.926  16.134  0.00  0.00    +0.000 OA
BRANCH  18  19
ATOM     19  C   UNL     1       7.217   4.756  14.778  0.00  0.00    +0.000 A 
ATOM     20  C   UNL     1       7.914   5.500  13.826  0.00  0.00    +0.000 A 
ATOM     21  C   UNL     1       7.752   5.261  12.457  0.00  0.00    +0.000 A 
ATOM     22  C   UNL     1       6.874   4.277  12.025  0.00  0.00    +0.000 A 
ATOM     23  C   UNL     1       6.130   3.562  12.961  0.00  0.00    +0.000 A 
ATOM     24  C   UNL     1       6.272   3.810  14.339  0.00  0.00    +0.000 A 
ATOM     25  C   UNL     1       5.414   3.033  15.300  0.00  0.00    +0.000 C 
ENDBRANCH  18  19
ENDBRANCH   4  18
TORSDOF 3
ENDMDL
MODEL 5
REMARK VINA RESULT:      -7.8      0.498      1.459
REMARK  Name = 
REMARK  5 active torsions:
REMARK  status: ('A' for Active; 'I' for Inactive)
REMARK    1  A    between atoms: C_1  and  C_2
REMARK    2  A    between atoms: C_6  and  N_7
REMARK    3  A    between atoms: C_10  and  O_11
REMARK    4  A    between atoms: O_11  and  C_12
REMARK    5  A    between atoms: C_17  and  C_18
REMARK                            x       y       z     vdW  Elec       q    Type
REMARK                         _______ _______ _______ _____ _____    ______ ____
ROOT
ATOM      1  N   UNL     1       1.526   8.951  19.520  0.00  0.00    +0.000 N 
ATOM      2  C   UNL     1       1.335   7.748  20.332  0.00  0.00    +0.000 C 
ATOM      3  C   UNL     1       2.627   6.936  20.205  0.00  0.00    +0.000 C 
ATOM      4  C   UNL     1       2.972   6.635  18.737  0.00  0.00    +0.000 C 
ATOM      5  C   UNL     1       2.883   7.882  17.849  0.00  0.00    +0.000 C 
ATOM      6  C   UNL     1       1.584   8.645  18.085  0.00  0.00    +0.000 C 
ENDROOT
BRANCH   1  12
ATOM      7  C   UNL     1      -0.719  13.030  18.238  0.00  0.00    +0.000 C 
ATOM      8  C   UNL     1      -0.365  12.021  19.286  0.00  0.00    +0.000 A 
ATOM      9  N   UNL     1      -0.854  12.226  20.525  0.00  0.00    +0.000 NA
ATOM     10  C   UNL     1      -0.521  11.278  21.403  0.00  0.00    +0.000 A 
ATOM     11  C   UNL     1       0.252  10.183  21.113  0.00  0.00    +0.000 A 
ATOM     12  C   UNL     1       0.735  10.053  19.836  0.00  0.00    +0.000 A 
ATOM     13  N   UNL     1       0.412  10.972  18.905  0.00  0.00    +0.000 NA
ATOM     14  C   UNL     1       0.310   9.282  22.290  0.00  0.00    +0.000 C 
ATOM     15  N   UNL     1      -0.123  10.111  23.448  0.00  0.00    +0.000 NA
ATOM     16  C   UNL     1      -0.938  11.208  22.846  0.00  0.00    +0.000 C 
ATOM     17  H   UNL     1       0.722  10.552  23.818  0.00  0.00    +0.000 HD
ENDBRANCH   1  12
BRANCH   4  18
ATOM     18  O   UNL     1       2.075   5.642  18.208  0.00  0.00    +0.000 OA
BRANCH  18  19
ATOM     19  C   UNL     1       2.495   4.334  18.205  0.00  0.00    +0.000 A 
ATOM     20  C   UNL     1       3.433   3.821  17.308  0.00  0.00    +0.000 A 
ATOM     21  C   UNL     1       3.844   2.485  17.374  0.00  0.00    +0.000 A 
ATOM     22  C   UNL     1       3.306   1.642  18.335  0.00  0.00    +0.000 A 
ATOM     23  C   UNL     1       2.330   2.124  19.204  0.00  0.00    +0.000 A 
ATOM     24  C   UNL     1       1.896   3.461  19.132  0.00  0.00    +0.000 A 
ATOM     25  C   UNL     1       0.811   3.915  20.071  0.00  0.00    +0.000 C 
ENDBRANCH  18  19
ENDBRANCH   4  18
TORSDOF 3
ENDMDL
MODEL 6
REMARK VINA RESULT:      -7.6      2.684      7.902
REMARK  Name = 
REMARK  5 active torsions:
REMARK  status: ('A' for Active; 'I' for Inactive)
REMARK    1  A    between atoms: C_1  and  C_2
REMARK    2  A    between atoms: C_6  and  N_7
REMARK    3  A    between atoms: C_10  and  O_11
REMARK    4  A    between atoms: O_11  and  C_12
REMARK    5  A    between atoms: C_17  and  C_18
REMARK                            x       y       z     vdW  Elec       q    Type
REMARK                         _______ _______ _______ _____ _____    ______ ____
ROOT
ATOM      1  N   UNL     1       2.199   7.635  18.540  0.00  0.00    +0.000 N 
ATOM      2  C   UNL     1       2.202   7.916  19.977  0.00  0.00    +0.000 C 
ATOM      3  C   UNL     1       0.811   8.461  20.311  0.00  0.00    +0.000 C 
ATOM      4  C   UNL     1       0.453   9.683  19.450  0.00  0.00    +0.000 C 
ATOM      5  C   UNL     1       0.734   9.450  17.961  0.00  0.00    +0.000 C 
ATOM      6  C   UNL     1       2.123   8.863  17.738  0.00  0.00    +0.000 C 
ENDROOT
BRANCH   1  12
ATOM      7  C   UNL     1       6.658   6.535  17.051  0.00  0.00    +0.000 C 
ATOM      8  C   UNL     1       5.254   6.114  17.354  0.00  0.00    +0.000 A 
ATOM      9  N   UNL     1       4.950   4.814  17.172  0.00  0.00    +0.000 NA
ATOM     10  C   UNL     1       3.690   4.503  17.484  0.00  0.00    +0.000 A 
ATOM     11  C   UNL     1       2.757   5.397  17.943  0.00  0.00    +0.000 A 
ATOM     12  C   UNL     1       3.131   6.709  18.079  0.00  0.00    +0.000 A 
ATOM     13  N   UNL     1       4.398   7.073  17.798  0.00  0.00    +0.000 NA
ATOM     14  C   UNL     1       1.509   4.680  18.305  0.00  0.00    +0.000 C 
ATOM     15  N   UNL     1       1.601   3.356  17.631  0.00  0.00    +0.000 NA
ATOM     16  C   UNL     1       3.064   3.137  17.420  0.00  0.00    +0.000 C 
ATOM     17  H   UNL     1       1.193   3.476  16.703  0.00  0.00    +0.000 HD
ENDBRANCH   1  12
BRANCH   4  18
ATOM     18  O   UNL     1       1.210  10.831  19.875  0.00  0.00    +0.000 OA
BRANCH  18  19
ATOM     19  C   UNL     1       0.623  12.068  19.754  0.00  0.00    +0.000 A 
ATOM     20  C   UNL     1      -0.597  12.409  20.339  0.00  0.00    +0.000 A 
ATOM     21  C   UNL     1      -1.130  13.695  20.205  0.00  0.00    +0.000 A 
ATOM     22  C   UNL     1      -0.450  14.653  19.467  0.00  0.00    +0.000 A 
ATOM     23  C   UNL     1       0.743  14.313  18.832  0.00  0.00    +0.000 A 
ATOM     24  C   UNL     1       1.276  13.016  18.946  0.00  0.00    +0.000 A 
ATOM     25  C   UNL     1       2.547  12.696  18.206  0.00  0.00    +0.000 C 
ENDBRANCH  18  19
ENDBRANCH   4  18
TORSDOF 3
ENDMDL
MODEL 7
REMARK VINA RESULT:      -7.6      1.819      2.852
REMARK  Name = 
REMARK  5 active torsions:
REMARK  status: ('A' for Active; 'I' for Inactive)
REMARK    1  A    between atoms: C_1  and  C_2
REMARK    2  A    between atoms: C_6  and  N_7
REMARK    3  A    between atoms: C_10  and  O_11
REMARK    4  A    between atoms: O_11  and  C_12
REMARK    5  A    between atoms: C_17  and  C_18
REMARK                            x       y       z     vdW  Elec       q    Type
REMARK                         _______ _______ _______ _____ _____    ______ ____
ROOT
ATOM      1  N   UNL     1       1.408   9.523  18.947  0.00  0.00    +0.000 N 
ATOM      2  C   UNL     1       0.887   8.565  19.924  0.00  0.00    +0.000 C 
ATOM      3  C   UNL     1       2.060   7.657  20.302  0.00  0.00    +0.000 C 
ATOM      4  C   UNL     1       2.688   6.989  19.067  0.00  0.00    +0.000 C 
ATOM      5  C   UNL     1       2.962   7.991  17.939  0.00  0.00    +0.000 C 
ATOM      6  C   UNL     1       1.752   8.879  17.673  0.00  0.00    +0.000 C 
ENDROOT
BRANCH   1  12
ATOM      7  C   UNL     1       1.218  14.337  19.264  0.00  0.00    +0.000 C 
ATOM      8  C   UNL     1       0.555  13.033  18.943  0.00  0.00    +0.000 A 
ATOM      9  N   UNL     1      -0.721  13.083  18.512  0.00  0.00    +0.000 NA
ATOM     10  C   UNL     1      -1.242  11.890  18.221  0.00  0.00    +0.000 A 
ATOM     11  C   UNL     1      -0.575  10.698  18.342  0.00  0.00    +0.000 A 
ATOM     12  C   UNL     1       0.713  10.722  18.811  0.00  0.00    +0.000 A 
ATOM     13  N   UNL     1       1.294  11.903  19.101  0.00  0.00    +0.000 NA
ATOM     14  C   UNL     1      -1.415   9.595  17.813  0.00  0.00    +0.000 C 
ATOM     15  N   UNL     1      -2.800  10.140  17.759  0.00  0.00    +0.000 NA
ATOM     16  C   UNL     1      -2.622  11.621  17.689  0.00  0.00    +0.000 C 
ATOM     17  H   UNL     1      -3.221   9.944  18.669  0.00  0.00    +0.000 HD
ENDBRANCH   1  12
BRANCH   4  18
ATOM     18  O   UNL     1       1.815   5.965  18.556  0.00  0.00    +0.000 OA
BRANCH  18  19
ATOM     19  C   UNL     1       2.329   4.699  18.411  0.00  0.00    +0.000 A 
ATOM     20  C   UNL     1       3.226   4.333  17.407  0.00  0.00    +0.000 A 
ATOM     21  C   UNL     1       3.737   3.034  17.329  0.00  0.00    +0.000 A 
ATOM     22  C   UNL     1       3.341   2.078  18.253  0.00  0.00    +0.000 A 
ATOM     23  C   UNL     1       2.406   2.412  19.230  0.00  0.00    +0.000 A 
ATOM     24  C   UNL     1       1.871   3.712  19.303  0.00  0.00    +0.000 A 
ATOM     25  C   UNL     1       0.835   4.003  20.355  0.00  0.00    +0.000 C 
ENDBRANCH  18  19
ENDBRANCH   4  18
TORSDOF 3
ENDMDL
MODEL 8
REMARK VINA RESULT:      -7.6      1.787      2.891
REMARK  Name = 
REMARK  5 active torsions:
REMARK  status: ('A' for Active; 'I' for Inactive)
REMARK    1  A    between atoms: C_1  and  C_2
REMARK    2  A    between atoms: C_6  and  N_7
REMARK    3  A    between atoms: C_10  and  O_11
REMARK    4  A    between atoms: O_11  and  C_12
REMARK    5  A    between atoms: C_17  and  C_18
REMARK                            x       y       z     vdW  Elec       q    Type
REMARK                         _______ _______ _______ _____ _____    ______ ____
ROOT
ATOM      1  N   UNL     1       1.098   9.617  18.978  0.00  0.00    +0.000 N 
ATOM      2  C   UNL     1       0.705   8.620  19.975  0.00  0.00    +0.000 C 
ATOM      3  C   UNL     1       1.970   7.826  20.309  0.00  0.00    +0.000 C 
ATOM      4  C   UNL     1       2.611   7.215  19.052  0.00  0.00    +0.000 C 
ATOM      5  C   UNL     1       2.748   8.233  17.914  0.00  0.00    +0.000 C 
ATOM      6  C   UNL     1       1.452   9.003  17.693  0.00  0.00    +0.000 C 
ENDROOT
BRANCH   1  12
ATOM      7  C   UNL     1      -3.269  11.659  18.691  0.00  0.00    +0.000 C 
ATOM      8  C   UNL     1      -1.778  11.790  18.725  0.00  0.00    +0.000 A 
ATOM      9  N   UNL     1      -1.270  13.037  18.658  0.00  0.00    +0.000 NA
ATOM     10  C   UNL     1       0.062  13.083  18.719  0.00  0.00    +0.000 A 
ATOM     11  C   UNL     1       0.876  11.986  18.831  0.00  0.00    +0.000 A 
ATOM     12  C   UNL     1       0.290  10.747  18.868  0.00  0.00    +0.000 A 
ATOM     13  N   UNL     1      -1.054  10.644  18.832  0.00  0.00    +0.000 NA
ATOM     14  C   UNL     1       2.285  12.419  18.997  0.00  0.00    +0.000 C 
ATOM     15  N   UNL     1       2.321  13.838  18.548  0.00  0.00    +0.000 NA
ATOM     16  C   UNL     1       0.916  14.321  18.701  0.00  0.00    +0.000 C 
ATOM     17  H   UNL     1       2.508  13.817  17.544  0.00  0.00    +0.000 HD
ENDBRANCH   1  12
BRANCH   4  18
ATOM     18  O   UNL     1       1.819   6.112  18.575  0.00  0.00    +0.000 OA
BRANCH  18  19
ATOM     19  C   UNL     1       2.435   4.891  18.439  0.00  0.00    +0.000 A 
ATOM     20  C   UNL     1       3.372   4.599  17.447  0.00  0.00    +0.000 A 
ATOM     21  C   UNL     1       3.988   3.345  17.377  0.00  0.00    +0.000 A 
ATOM     22  C   UNL     1       3.659   2.361  18.298  0.00  0.00    +0.000 A 
ATOM     23  C   UNL     1       2.687   2.618  19.262  0.00  0.00    +0.000 A 
ATOM     24  C   UNL     1       2.048   3.870  19.327  0.00  0.00    +0.000 A 
ATOM     25  C   UNL     1       0.979   4.077  20.364  0.00  0.00    +0.000 C 
ENDBRANCH  18  19
ENDBRANCH   4  18
TORSDOF 3
ENDMDL
MODEL 9
REMARK VINA RESULT:      -7.6      2.760      7.757
REMARK  Name = 
REMARK  5 active torsions:
REMARK  status: ('A' for Active; 'I' for Inactive)
REMARK    1  A    between atoms: C_1  and  C_2
REMARK    2  A    between atoms: C_6  and  N_7
REMARK    3  A    between atoms: C_10  and  O_11
REMARK    4  A    between atoms: O_11  and  C_12
REMARK    5  A    between atoms: C_17  and  C_18
REMARK                            x       y       z     vdW  Elec       q    Type
REMARK                         _______ _______ _______ _____ _____    ______ ____
ROOT
ATOM      1  N   UNL     1       1.971   7.418  19.374  0.00  0.00    +0.000 N 
ATOM      2  C   UNL     1       1.736   8.125  20.634  0.00  0.00    +0.000 C 
ATOM      3  C   UNL     1       0.438   8.913  20.448  0.00  0.00    +0.000 C 
ATOM      4  C   UNL     1       0.504   9.845  19.228  0.00  0.00    +0.000 C 
ATOM      5  C   UNL     1       1.031   9.132  17.977  0.00  0.00    +0.000 C 
ATOM      6  C   UNL     1       2.297   8.338  18.278  0.00  0.00    +0.000 C 
ENDROOT
BRANCH   1  12
ATOM      7  C   UNL     1       6.268   5.286  18.819  0.00  0.00    +0.000 C 
ATOM      8  C   UNL     1       4.818   5.202  19.183  0.00  0.00    +0.000 A 
ATOM      9  N   UNL     1       4.352   3.999  19.573  0.00  0.00    +0.000 NA
ATOM     10  C   UNL     1       3.060   4.000  19.906  0.00  0.00    +0.000 A 
ATOM     11  C   UNL     1       2.245   5.101  19.862  0.00  0.00    +0.000 A 
ATOM     12  C   UNL     1       2.782   6.287  19.431  0.00  0.00    +0.000 A 
ATOM     13  N   UNL     1       4.088   6.346  19.102  0.00  0.00    +0.000 NA
ATOM     14  C   UNL     1       0.912   4.762  20.419  0.00  0.00    +0.000 C 
ATOM     15  N   UNL     1       0.840   3.275  20.405  0.00  0.00    +0.000 NA
ATOM     16  C   UNL     1       2.265   2.827  20.408  0.00  0.00    +0.000 C 
ATOM     17  H   UNL     1       0.460   3.015  19.494  0.00  0.00    +0.000 HD
ENDBRANCH   1  12
BRANCH   4  18
ATOM     18  O   UNL     1       1.365  10.966  19.502  0.00  0.00    +0.000 OA
BRANCH  18  19
ATOM     19  C   UNL     1       0.800  12.218  19.525  0.00  0.00    +0.000 A 
ATOM     20  C   UNL     1      -0.433  12.504  20.113  0.00  0.00    +0.000 A 
ATOM     21  C   UNL     1      -0.942  13.806  20.131  0.00  0.00    +0.000 A 
ATOM     22  C   UNL     1      -0.225  14.839  19.544  0.00  0.00    +0.000 A 
ATOM     23  C   UNL     1       0.982  14.561  18.907  0.00  0.00    +0.000 A 
ATOM     24  C   UNL     1       1.493  13.251  18.866  0.00  0.00    +0.000 A 
ATOM     25  C   UNL     1       2.781  13.005  18.130  0.00  0.00    +0.000 C 
ENDBRANCH  18  19
ENDBRANCH   4  18
TORSDOF 3
ENDMDL
