MODEL 1
REMARK VINA RESULT:      -6.6      0.000      0.000
REMARK  Name = 
REMARK  7 active torsions:
REMARK  status: ('A' for Active; 'I' for Inactive)
REMARK    1  A    between atoms: C_1  and  O_2
REMARK    2  A    between atoms: O_2  and  C_3
REMARK    3  A    between atoms: C_7  and  C_8
REMARK    4  A    between atoms: N_9  and  N_10
REMARK    5  A    between atoms: C_11  and  C_13
REMARK    6  A    between atoms: C_19  and  O_20
REMARK    7  A    between atoms: O_20  and  C_21
REMARK                            x       y       z     vdW  Elec       q    Type
REMARK                         _______ _______ _______ _____ _____    ______ ____
ROOT
ATOM      1  C   UNL     1       8.652  10.375  17.711  0.00  0.00    +0.000 C 
ATOM      2  N   UNL     1       8.185   9.275  18.203  0.00  0.00    +0.000 NA
ENDROOT
BRANCH   1   7
ATOM      3  C   UNL     1       9.963  13.571  19.297  0.00  0.00    +0.000 A 
ATOM      4  C   UNL     1      10.603  13.026  20.426  0.00  0.00    +0.000 A 
ATOM      5  C   UNL     1      10.655  11.653  20.626  0.00  0.00    +0.000 A 
ATOM      6  C   UNL     1      10.029  10.813  19.718  0.00  0.00    +0.000 A 
ATOM      7  C   UNL     1       9.312  11.342  18.630  0.00  0.00    +0.000 A 
ATOM      8  C   UNL     1       9.253  12.732  18.411  0.00  0.00    +0.000 A 
BRANCH   3  10
ATOM      9  C   UNL     1      10.622  15.685  20.120  0.00  0.00    +0.000 C 
ATOM     10  O   UNL     1      10.014  14.925  19.074  0.00  0.00    +0.000 OA
ENDBRANCH   3  10
BRANCH   8  11
ATOM     11  O   UNL     1       8.500  13.108  17.328  0.00  0.00    +0.000 OA
ATOM     12  C   UNL     1       7.207  13.658  17.524  0.00  0.00    +0.000 C 
ENDBRANCH   8  11
ENDBRANCH   1   7
BRANCH   2  13
ATOM     13  N   UNL     1       7.580   8.381  17.386  0.00  0.00    +0.000 N 
ATOM     14  C   UNL     1       7.580   7.051  17.787  0.00  0.00    +0.000 C 
ATOM     15  O   UNL     1       8.112   6.626  18.813  0.00  0.00    +0.000 OA
ATOM     16  H   UNL     1       7.124   8.662  16.521  0.00  0.00    +0.000 HD
BRANCH  14  17
ATOM     17  C   UNL     1       6.883   6.105  16.890  0.00  0.00    +0.000 A 
ATOM     18  C   UNL     1       5.554   5.793  17.152  0.00  0.00    +0.000 A 
ATOM     19  N   UNL     1       4.839   4.942  16.373  0.00  0.00    +0.000 NA
ATOM     20  C   UNL     1       5.514   4.419  15.325  0.00  0.00    +0.000 A 
ATOM     21  C   UNL     1       6.841   4.730  15.063  0.00  0.00    +0.000 A 
ATOM     22  N   UNL     1       7.568   5.578  15.834  0.00  0.00    +0.000 NA
ENDBRANCH  14  17
ENDBRANCH   2  13
TORSDOF 5
ENDMDL
MODEL 2
REMARK VINA RESULT:      -6.6      5.188      8.828
REMARK  Name = 
REMARK  7 active torsions:
REMARK  status: ('A' for Active; 'I' for Inactive)
REMARK    1  A    between atoms: C_1  and  O_2
REMARK    2  A    between atoms: O_2  and  C_3
REMARK    3  A    between atoms: C_7  and  C_8
REMARK    4  A    between atoms: N_9  and  N_10
REMARK    5  A    between atoms: C_11  and  C_13
REMARK    6  A    between atoms: C_19  and  O_20
REMARK    7  A    between atoms: O_20  and  C_21
REMARK                            x       y       z     vdW  Elec       q    Type
REMARK                         _______ _______ _______ _____ _____    ______ ____
ROOT
ATOM      1  C   UNL     1       3.848   7.147  17.821  0.00  0.00    +0.000 C 
ATOM      2  N   UNL     1       2.787   6.951  18.532  0.00  0.00    +0.000 NA
ENDROOT
BRANCH   1   7
ATOM      3  C   UNL     1       6.341   4.919  16.013  0.00  0.00    +0.000 A 
ATOM      4  C   UNL     1       5.683   3.681  16.142  0.00  0.00    +0.000 A 
ATOM      5  C   UNL     1       4.436   3.592  16.747  0.00  0.00    +0.000 A 
ATOM      6  C   UNL     1       3.854   4.737  17.267  0.00  0.00    +0.000 A 
ATOM      7  C   UNL     1       4.533   5.968  17.224  0.00  0.00    +0.000 A 
ATOM      8  C   UNL     1       5.796   6.076  16.610  0.00  0.00    +0.000 A 
BRANCH   3  10
ATOM      9  C   UNL     1       7.393   5.003  13.899  0.00  0.00    +0.000 C 
ATOM     10  O   UNL     1       7.525   4.991  15.322  0.00  0.00    +0.000 OA
ENDBRANCH   3  10
BRANCH   8  11
ATOM     11  O   UNL     1       6.351   7.329  16.663  0.00  0.00    +0.000 OA
ATOM     12  C   UNL     1       7.482   7.566  17.487  0.00  0.00    +0.000 C 
ENDBRANCH   8  11
ENDBRANCH   1   7
BRANCH   2  13
ATOM     13  N   UNL     1       2.148   8.009  19.086  0.00  0.00    +0.000 N 
ATOM     14  C   UNL     1       1.560   7.818  20.330  0.00  0.00    +0.000 C 
ATOM     15  O   UNL     1       1.556   6.753  20.949  0.00  0.00    +0.000 OA
ATOM     16  H   UNL     1       2.109   8.917  18.628  0.00  0.00    +0.000 HD
BRANCH  14  17
ATOM     17  C   UNL     1       0.900   9.000  20.922  0.00  0.00    +0.000 A 
ATOM     18  C   UNL     1       0.912   9.150  22.303  0.00  0.00    +0.000 A 
ATOM     19  N   UNL     1       0.337  10.210  22.926  0.00  0.00    +0.000 NA
ATOM     20  C   UNL     1      -0.250  11.109  22.104  0.00  0.00    +0.000 A 
ATOM     21  C   UNL     1      -0.263  10.959  20.725  0.00  0.00    +0.000 A 
ATOM     22  N   UNL     1       0.307   9.904  20.089  0.00  0.00    +0.000 NA
ENDBRANCH  14  17
ENDBRANCH   2  13
TORSDOF 5
ENDMDL
MODEL 3
REMARK VINA RESULT:      -6.4      0.935      1.278
REMARK  Name = 
REMARK  7 active torsions:
REMARK  status: ('A' for Active; 'I' for Inactive)
REMARK    1  A    between atoms: C_1  and  O_2
REMARK    2  A    between atoms: O_2  and  C_3
REMARK    3  A    between atoms: C_7  and  C_8
REMARK    4  A    between atoms: N_9  and  N_10
REMARK    5  A    between atoms: C_11  and  C_13
REMARK    6  A    between atoms: C_19  and  O_20
REMARK    7  A    between atoms: O_20  and  C_21
REMARK                            x       y       z     vdW  Elec       q    Type
REMARK                         _______ _______ _______ _____ _____    ______ ____
ROOT
ATOM      1  C   UNL     1       8.065  10.100  18.158  0.00  0.00    +0.000 C 
ATOM      2  N   UNL     1       8.493   8.950  17.754  0.00  0.00    +0.000 NA
ENDROOT
BRANCH   1   7
ATOM      3  C   UNL     1      10.163  13.228  18.680  0.00  0.00    +0.000 A 
ATOM      4  C   UNL     1      10.951  12.801  19.765  0.00  0.00    +0.000 A 
ATOM      5  C   UNL     1      10.840  11.511  20.267  0.00  0.00    +0.000 A 
ATOM      6  C   UNL     1       9.908  10.648  19.714  0.00  0.00    +0.000 A 
ATOM      7  C   UNL     1       9.053  11.082  18.686  0.00  0.00    +0.000 A 
ATOM      8  C   UNL     1       9.154  12.386  18.162  0.00  0.00    +0.000 A 
BRANCH   3  10
ATOM      9  C   UNL     1      10.506  15.528  19.096  0.00  0.00    +0.000 C 
ATOM     10  O   UNL     1      10.364  14.474  18.141  0.00  0.00    +0.000 OA
ENDBRANCH   3  10
BRANCH   8  11
ATOM     11  O   UNL     1       8.242  12.681  17.182  0.00  0.00    +0.000 OA
ATOM     12  C   UNL     1       7.183  13.585  17.452  0.00  0.00    +0.000 C 
ENDBRANCH   8  11
ENDBRANCH   1   7
BRANCH   2  13
ATOM     13  N   UNL     1       7.613   8.042  17.271  0.00  0.00    +0.000 N 
ATOM     14  C   UNL     1       7.504   6.836  17.952  0.00  0.00    +0.000 C 
ATOM     15  O   UNL     1       8.167   6.526  18.942  0.00  0.00    +0.000 OA
ATOM     16  H   UNL     1       7.035   8.230  16.454  0.00  0.00    +0.000 HD
BRANCH  14  17
ATOM     17  C   UNL     1       6.511   5.880  17.419  0.00  0.00    +0.000 A 
ATOM     18  C   UNL     1       6.938   4.900  16.531  0.00  0.00    +0.000 A 
ATOM     19  N   UNL     1       6.094   3.978  16.002  0.00  0.00    +0.000 NA
ATOM     20  C   UNL     1       4.807   4.084  16.401  0.00  0.00    +0.000 A 
ATOM     21  C   UNL     1       4.379   5.062  17.287  0.00  0.00    +0.000 A 
ATOM     22  N   UNL     1       5.212   5.991  17.823  0.00  0.00    +0.000 NA
ENDBRANCH  14  17
ENDBRANCH   2  13
TORSDOF 5
ENDMDL
MODEL 4
REMARK VINA RESULT:      -6.3      7.607     10.737
REMARK  Name = 
REMARK  7 active torsions:
REMARK  status: ('A' for Active; 'I' for Inactive)
REMARK    1  A    between atoms: C_1  and  O_2
REMARK    2  A    between atoms: O_2  and  C_3
REMARK    3  A    between atoms: C_7  and  C_8
REMARK    4  A    between atoms: N_9  and  N_10
REMARK    5  A    between atoms: C_11  and  C_13
REMARK    6  A    between atoms: C_19  and  O_20
REMARK    7  A    between atoms: O_20  and  C_21
REMARK                            x       y       z     vdW  Elec       q    Type
REMARK                         _______ _______ _______ _____ _____    ______ ____
ROOT
ATOM      1  C   UNL     1       1.898   6.586  20.317  0.00  0.00    +0.000 C 
ATOM      2  N   UNL     1       1.957   7.860  20.109  0.00  0.00    +0.000 NA
ENDROOT
BRANCH   1   7
ATOM      3  C   UNL     1       3.835   3.598  18.984  0.00  0.00    +0.000 A 
ATOM      4  C   UNL     1       4.261   4.127  17.751  0.00  0.00    +0.000 A 
ATOM      5  C   UNL     1       3.974   5.440  17.398  0.00  0.00    +0.000 A 
ATOM      6  C   UNL     1       3.221   6.222  18.259  0.00  0.00    +0.000 A 
ATOM      7  C   UNL     1       2.715   5.686  19.456  0.00  0.00    +0.000 A 
ATOM      8  C   UNL     1       2.999   4.358  19.831  0.00  0.00    +0.000 A 
BRANCH   3  10
ATOM      9  C   UNL     1       3.692   1.284  18.530  0.00  0.00    +0.000 C 
ATOM     10  O   UNL     1       4.217   2.331  19.349  0.00  0.00    +0.000 OA
ENDBRANCH   3  10
BRANCH   8  11
ATOM     11  O   UNL     1       2.421   3.961  21.009  0.00  0.00    +0.000 OA
ATOM     12  C   UNL     1       1.365   3.011  20.992  0.00  0.00    +0.000 C 
ENDBRANCH   8  11
ENDBRANCH   1   7
BRANCH   2  13
ATOM     13  N   UNL     1       1.222   8.697  20.880  0.00  0.00    +0.000 N 
ATOM     14  C   UNL     1       0.441   9.642  20.227  0.00  0.00    +0.000 C 
ATOM     15  O   UNL     1       0.391   9.790  19.006  0.00  0.00    +0.000 OA
ATOM     16  H   UNL     1       1.220   8.633  21.895  0.00  0.00    +0.000 HD
BRANCH  14  17
ATOM     17  C   UNL     1      -0.373  10.518  21.095  0.00  0.00    +0.000 A 
ATOM     18  C   UNL     1      -0.329  10.322  22.470  0.00  0.00    +0.000 A 
ATOM     19  N   UNL     1      -1.039  11.088  23.338  0.00  0.00    +0.000 NA
ATOM     20  C   UNL     1      -1.792  12.054  22.767  0.00  0.00    +0.000 A 
ATOM     21  C   UNL     1      -1.837  12.249  21.394  0.00  0.00    +0.000 A 
ATOM     22  N   UNL     1      -1.134  11.491  20.515  0.00  0.00    +0.000 NA
ENDBRANCH  14  17
ENDBRANCH   2  13
TORSDOF 5
ENDMDL
MODEL 5
REMARK VINA RESULT:      -6.3      5.191      8.865
REMARK  Name = 
REMARK  7 active torsions:
REMARK  status: ('A' for Active; 'I' for Inactive)
REMARK    1  A    between atoms: C_1  and  O_2
REMARK    2  A    between atoms: O_2  and  C_3
REMARK    3  A    between atoms: C_7  and  C_8
REMARK    4  A    between atoms: N_9  and  N_10
REMARK    5  A    between atoms: C_11  and  C_13
REMARK    6  A    between atoms: C_19  and  O_20
REMARK    7  A    between atoms: O_20  and  C_21
REMARK                            x       y       z     vdW  Elec       q    Type
REMARK                         _______ _______ _______ _____ _____    ______ ____
ROOT
ATOM      1  C   UNL     1       3.819   7.258  17.897  0.00  0.00    +0.000 C 
ATOM      2  N   UNL     1       2.649   7.117  18.428  0.00  0.00    +0.000 NA
ENDROOT
BRANCH   1   7
ATOM      3  C   UNL     1       6.255   4.983  16.070  0.00  0.00    +0.000 A 
ATOM      4  C   UNL     1       5.570   3.759  16.194  0.00  0.00    +0.000 A 
ATOM      5  C   UNL     1       4.323   3.696  16.802  0.00  0.00    +0.000 A 
ATOM      6  C   UNL     1       3.768   4.851  17.330  0.00  0.00    +0.000 A 
ATOM      7  C   UNL     1       4.475   6.067  17.291  0.00  0.00    +0.000 A 
ATOM      8  C   UNL     1       5.739   6.149  16.675  0.00  0.00    +0.000 A 
BRANCH   3  10
ATOM      9  C   UNL     1       7.310   4.925  13.957  0.00  0.00    +0.000 C 
ATOM     10  O   UNL     1       7.439   5.032  15.376  0.00  0.00    +0.000 OA
ENDBRANCH   3  10
BRANCH   8  11
ATOM     11  O   UNL     1       6.322   7.389  16.732  0.00  0.00    +0.000 OA
ATOM     12  C   UNL     1       7.488   7.584  17.518  0.00  0.00    +0.000 C 
ENDBRANCH   8  11
ENDBRANCH   1   7
BRANCH   2  13
ATOM     13  N   UNL     1       2.034   8.186  18.985  0.00  0.00    +0.000 N 
ATOM     14  C   UNL     1       1.508   8.025  20.261  0.00  0.00    +0.000 C 
ATOM     15  O   UNL     1       1.537   6.976  20.905  0.00  0.00    +0.000 OA
ATOM     16  H   UNL     1       1.970   9.082  18.507  0.00  0.00    +0.000 HD
BRANCH  14  17
ATOM     17  C   UNL     1       0.872   9.221  20.854  0.00  0.00    +0.000 A 
ATOM     18  C   UNL     1       0.868  10.404  20.126  0.00  0.00    +0.000 A 
ATOM     19  N   UNL     1       0.299  11.545  20.592  0.00  0.00    +0.000 NA
ATOM     20  C   UNL     1      -0.262  11.445  21.819  0.00  0.00    +0.000 A 
ATOM     21  C   UNL     1      -0.257  10.263  22.547  0.00  0.00    +0.000 A 
ATOM     22  N   UNL     1       0.309   9.116  22.092  0.00  0.00    +0.000 NA
ENDBRANCH  14  17
ENDBRANCH   2  13
TORSDOF 5
ENDMDL
MODEL 6
REMARK VINA RESULT:      -6.3      7.303     10.596
REMARK  Name = 
REMARK  7 active torsions:
REMARK  status: ('A' for Active; 'I' for Inactive)
REMARK    1  A    between atoms: C_1  and  O_2
REMARK    2  A    between atoms: O_2  and  C_3
REMARK    3  A    between atoms: C_7  and  C_8
REMARK    4  A    between atoms: N_9  and  N_10
REMARK    5  A    between atoms: C_11  and  C_13
REMARK    6  A    between atoms: C_19  and  O_20
REMARK    7  A    between atoms: O_20  and  C_21
REMARK                            x       y       z     vdW  Elec       q    Type
REMARK                         _______ _______ _______ _____ _____    ______ ____
ROOT
ATOM      1  C   UNL     1       2.353   6.294  19.770  0.00  0.00    +0.000 C 
ATOM      2  N   UNL     1       2.082   7.522  19.476  0.00  0.00    +0.000 NA
ENDROOT
BRANCH   1   7
ATOM      3  C   UNL     1       3.493   3.331  17.678  0.00  0.00    +0.000 A 
ATOM      4  C   UNL     1       4.363   3.993  16.791  0.00  0.00    +0.000 A 
ATOM      5  C   UNL     1       4.614   5.353  16.916  0.00  0.00    +0.000 A 
ATOM      6  C   UNL     1       3.962   6.073  17.905  0.00  0.00    +0.000 A 
ATOM      7  C   UNL     1       3.025   5.447  18.746  0.00  0.00    +0.000 A 
ATOM      8  C   UNL     1       2.762   4.068  18.635  0.00  0.00    +0.000 A 
BRANCH   3  10
ATOM      9  C   UNL     1       3.984   1.226  18.631  0.00  0.00    +0.000 C 
ATOM     10  O   UNL     1       3.342   1.969  17.593  0.00  0.00    +0.000 OA
ENDBRANCH   3  10
BRANCH   8  11
ATOM     11  O   UNL     1       1.809   3.597  19.502  0.00  0.00    +0.000 OA
ATOM     12  C   UNL     1       0.661   2.933  18.995  0.00  0.00    +0.000 C 
ENDBRANCH   8  11
ENDBRANCH   1   7
BRANCH   2  13
ATOM     13  N   UNL     1       1.471   8.310  20.392  0.00  0.00    +0.000 N 
ATOM     14  C   UNL     1       0.808   9.437  19.922  0.00  0.00    +0.000 C 
ATOM     15  O   UNL     1       0.761   9.782  18.741  0.00  0.00    +0.000 OA
ATOM     16  H   UNL     1       1.474   8.086  21.384  0.00  0.00    +0.000 HD
BRANCH  14  17
ATOM     17  C   UNL     1       0.124  10.257  20.943  0.00  0.00    +0.000 A 
ATOM     18  C   UNL     1       0.204   9.869  22.275  0.00  0.00    +0.000 A 
ATOM     19  N   UNL     1      -0.387  10.570  23.275  0.00  0.00    +0.000 NA
ATOM     20  C   UNL     1      -1.062  11.673  22.881  0.00  0.00    +0.000 A 
ATOM     21  C   UNL     1      -1.143  12.062  21.551  0.00  0.00    +0.000 A 
ATOM     22  N   UNL     1      -0.557  11.369  20.541  0.00  0.00    +0.000 NA
ENDBRANCH  14  17
ENDBRANCH   2  13
TORSDOF 5
ENDMDL
MODEL 7
REMARK VINA RESULT:      -6.2      7.290     10.807
REMARK  Name = 
REMARK  7 active torsions:
REMARK  status: ('A' for Active; 'I' for Inactive)
REMARK    1  A    between atoms: C_1  and  O_2
REMARK    2  A    between atoms: O_2  and  C_3
REMARK    3  A    between atoms: C_7  and  C_8
REMARK    4  A    between atoms: N_9  and  N_10
REMARK    5  A    between atoms: C_11  and  C_13
REMARK    6  A    between atoms: C_19  and  O_20
REMARK    7  A    between atoms: O_20  and  C_21
REMARK                            x       y       z     vdW  Elec       q    Type
REMARK                         _______ _______ _______ _____ _____    ______ ____
ROOT
ATOM      1  C   UNL     1       2.139   6.962  20.165  0.00  0.00    +0.000 C 
ATOM      2  N   UNL     1       1.224   7.530  20.878  0.00  0.00    +0.000 NA
ENDROOT
BRANCH   1   7
ATOM      3  C   UNL     1       3.239   3.377  19.539  0.00  0.00    +0.000 A 
ATOM      4  C   UNL     1       2.179   2.695  20.165  0.00  0.00    +0.000 A 
ATOM      5  C   UNL     1       1.110   3.388  20.718  0.00  0.00    +0.000 A 
ATOM      6  C   UNL     1       1.113   4.773  20.688  0.00  0.00    +0.000 A 
ATOM      7  C   UNL     1       2.203   5.474  20.143  0.00  0.00    +0.000 A 
ATOM      8  C   UNL     1       3.293   4.787  19.574  0.00  0.00    +0.000 A 
BRANCH   3  10
ATOM      9  C   UNL     1       3.816   1.415  18.357  0.00  0.00    +0.000 C 
ATOM     10  O   UNL     1       4.232   2.664  18.914  0.00  0.00    +0.000 OA
ENDBRANCH   3  10
BRANCH   8  11
ATOM     11  O   UNL     1       4.295   5.596  19.103  0.00  0.00    +0.000 OA
ATOM     12  C   UNL     1       4.429   5.815  17.707  0.00  0.00    +0.000 C 
ENDBRANCH   8  11
ENDBRANCH   1   7
BRANCH   2  13
ATOM     13  N   UNL     1       1.147   8.882  20.914  0.00  0.00    +0.000 N 
ATOM     14  C   UNL     1       0.173   9.443  21.729  0.00  0.00    +0.000 C 
ATOM     15  O   UNL     1      -0.639   8.802  22.397  0.00  0.00    +0.000 OA
ATOM     16  H   UNL     1       1.784   9.473  20.384  0.00  0.00    +0.000 HD
BRANCH  14  17
ATOM     17  C   UNL     1       0.137  10.920  21.771  0.00  0.00    +0.000 A 
ATOM     18  C   UNL     1      -0.831  11.542  22.550  0.00  0.00    +0.000 A 
ATOM     19  N   UNL     1      -0.929  12.892  22.651  0.00  0.00    +0.000 NA
ATOM     20  C   UNL     1      -0.015  13.587  21.937  0.00  0.00    +0.000 A 
ATOM     21  C   UNL     1       0.951  12.967  21.158  0.00  0.00    +0.000 A 
ATOM     22  N   UNL     1       1.059  11.618  21.047  0.00  0.00    +0.000 NA
ENDBRANCH  14  17
ENDBRANCH   2  13
TORSDOF 5
ENDMDL
MODEL 8
REMARK VINA RESULT:      -6.2      5.674      9.361
REMARK  Name = 
REMARK  7 active torsions:
REMARK  status: ('A' for Active; 'I' for Inactive)
REMARK    1  A    between atoms: C_1  and  O_2
REMARK    2  A    between atoms: O_2  and  C_3
REMARK    3  A    between atoms: C_7  and  C_8
REMARK    4  A    between atoms: N_9  and  N_10
REMARK    5  A    between atoms: C_11  and  C_13
REMARK    6  A    between atoms: C_19  and  O_20
REMARK    7  A    between atoms: O_20  and  C_21
REMARK                            x       y       z     vdW  Elec       q    Type
REMARK                         _______ _______ _______ _____ _____    ______ ____
ROOT
ATOM      1  C   UNL     1       3.167   7.326  17.992  0.00  0.00    +0.000 C 
ATOM      2  N   UNL     1       2.242   7.394  18.891  0.00  0.00    +0.000 NA
ENDROOT
BRANCH   1   7
ATOM      3  C   UNL     1       5.297   4.521  16.562  0.00  0.00    +0.000 A 
ATOM      4  C   UNL     1       4.489   3.419  16.901  0.00  0.00    +0.000 A 
ATOM      5  C   UNL     1       3.260   3.596  17.522  0.00  0.00    +0.000 A 
ATOM      6  C   UNL     1       2.846   4.878  17.848  0.00  0.00    +0.000 A 
ATOM      7  C   UNL     1       3.676   5.984  17.594  0.00  0.00    +0.000 A 
ATOM      8  C   UNL     1       4.924   5.822  16.962  0.00  0.00    +0.000 A 
BRANCH   3  10
ATOM      9  C   UNL     1       6.303   4.257  14.441  0.00  0.00    +0.000 C 
ATOM     10  O   UNL     1       6.460   4.321  15.860  0.00  0.00    +0.000 OA
ENDBRANCH   3  10
BRANCH   8  11
ATOM     11  O   UNL     1       5.638   6.982  16.800  0.00  0.00    +0.000 OA
ATOM     12  C   UNL     1       6.872   7.152  17.480  0.00  0.00    +0.000 C 
ENDBRANCH   8  11
ENDBRANCH   1   7
BRANCH   2  13
ATOM     13  N   UNL     1       1.764   8.604  19.268  0.00  0.00    +0.000 N 
ATOM     14  C   UNL     1       1.230   8.707  20.547  0.00  0.00    +0.000 C 
ATOM     15  O   UNL     1       1.136   7.775  21.346  0.00  0.00    +0.000 OA
ATOM     16  H   UNL     1       1.807   9.416  18.657  0.00  0.00    +0.000 HD
BRANCH  14  17
ATOM     17  C   UNL     1       0.748  10.048  20.940  0.00  0.00    +0.000 A 
ATOM     18  C   UNL     1       0.143  10.202  22.181  0.00  0.00    +0.000 A 
ATOM     19  N   UNL     1      -0.319  11.399  22.623  0.00  0.00    +0.000 NA
ATOM     20  C   UNL     1      -0.150  12.431  21.766  0.00  0.00    +0.000 A 
ATOM     21  C   UNL     1       0.453  12.277  20.525  0.00  0.00    +0.000 A 
ATOM     22  N   UNL     1       0.919  11.086  20.071  0.00  0.00    +0.000 NA
ENDBRANCH  14  17
ENDBRANCH   2  13
TORSDOF 5
ENDMDL
MODEL 9
REMARK VINA RESULT:      -6.1      2.426      8.693
REMARK  Name = 
REMARK  7 active torsions:
REMARK  status: ('A' for Active; 'I' for Inactive)
REMARK    1  A    between atoms: C_1  and  O_2
REMARK    2  A    between atoms: O_2  and  C_3
REMARK    3  A    between atoms: C_7  and  C_8
REMARK    4  A    between atoms: N_9  and  N_10
REMARK    5  A    between atoms: C_11  and  C_13
REMARK    6  A    between atoms: C_19  and  O_20
REMARK    7  A    between atoms: O_20  and  C_21
REMARK                            x       y       z     vdW  Elec       q    Type
REMARK                         _______ _______ _______ _____ _____    ______ ____
ROOT
ATOM      1  C   UNL     1       7.611   6.374  18.378  0.00  0.00    +0.000 C 
ATOM      2  N   UNL     1       7.933   7.540  17.924  0.00  0.00    +0.000 NA
ENDROOT
BRANCH   1   7
ATOM      3  C   UNL     1       5.004   3.896  17.146  0.00  0.00    +0.000 A 
ATOM      4  C   UNL     1       5.377   3.820  15.791  0.00  0.00    +0.000 A 
ATOM      5  C   UNL     1       6.483   4.510  15.313  0.00  0.00    +0.000 A 
ATOM      6  C   UNL     1       7.203   5.318  16.180  0.00  0.00    +0.000 A 
ATOM      7  C   UNL     1       6.796   5.473  17.517  0.00  0.00    +0.000 A 
ATOM      8  C   UNL     1       5.679   4.778  18.019  0.00  0.00    +0.000 A 
BRANCH   3  10
ATOM      9  C   UNL     1       2.688   3.440  17.058  0.00  0.00    +0.000 C 
ATOM     10  O   UNL     1       3.968   3.125  17.611  0.00  0.00    +0.000 OA
ENDBRANCH   3  10
BRANCH   8  11
ATOM     11  O   UNL     1       5.383   5.043  19.331  0.00  0.00    +0.000 OA
ATOM     12  C   UNL     1       4.099   5.538  19.679  0.00  0.00    +0.000 C 
ENDBRANCH   8  11
ENDBRANCH   1   7
BRANCH   2  13
ATOM     13  N   UNL     1       8.673   8.375  18.690  0.00  0.00    +0.000 N 
ATOM     14  C   UNL     1       8.640   9.727  18.373  0.00  0.00    +0.000 C 
ATOM     15  O   UNL     1       8.010  10.213  17.433  0.00  0.00    +0.000 OA
ATOM     16  H   UNL     1       9.220   8.041  19.481  0.00  0.00    +0.000 HD
BRANCH  14  17
ATOM     17  C   UNL     1       9.432  10.616  19.249  0.00  0.00    +0.000 A 
ATOM     18  C   UNL     1      10.590  11.193  18.742  0.00  0.00    +0.000 A 
ATOM     19  N   UNL     1      11.370  12.027  19.475  0.00  0.00    +0.000 NA
ATOM     20  C   UNL     1      10.938  12.255  20.737  0.00  0.00    +0.000 A 
ATOM     21  C   UNL     1       9.782  11.678  21.244  0.00  0.00    +0.000 A 
ATOM     22  N   UNL     1       8.994  10.842  20.521  0.00  0.00    +0.000 NA
ENDBRANCH  14  17
ENDBRANCH   2  13
TORSDOF 5
ENDMDL
