MODEL 1
REMARK VINA RESULT:      -7.5      0.000      0.000
REMARK  Name = 
REMARK  5 active torsions:
REMARK  status: ('A' for Active; 'I' for Inactive)
REMARK    1  A    between atoms: C_1  and  C_2
REMARK    2  A    between atoms: C_2  and  C_3
REMARK    3  A    between atoms: C_2  and  N_4
REMARK    4  A    between atoms: C_5  and  C_6
REMARK    5  A    between atoms: C_9  and  N_10
REMARK                            x       y       z     vdW  Elec       q    Type
REMARK                         _______ _______ _______ _____ _____    ______ ____
ROOT
ATOM      1  N   UNL     1       6.434   5.102  15.955  0.00  0.00    +0.000 N 
ATOM      2  C   UNL     1       5.267   4.338  16.181  0.00  0.00    +0.000 A 
ATOM      3  C   UNL     1       5.062   3.648  14.997  0.00  0.00    +0.000 A 
ATOM      4  N   UNL     1       6.018   4.051  14.096  0.00  0.00    +0.000 N 
ATOM      5  C   UNL     1       6.154   3.650  12.792  0.00  0.00    +0.000 A 
ATOM      6  C   UNL     1       7.169   4.174  12.101  0.00  0.00    +0.000 A 
ATOM      7  C   UNL     1       8.040   5.134  12.814  0.00  0.00    +0.000 A 
ATOM      8  N   UNL     1       7.911   5.524  14.042  0.00  0.00    +0.000 NA
ATOM      9  C   UNL     1       6.830   4.930  14.687  0.00  0.00    +0.000 A 
ENDROOT
BRANCH   2  10
ATOM     10  C   UNL     1       4.385   4.230  17.394  0.00  0.00    +0.000 A 
ATOM     11  C   UNL     1       4.478   3.134  18.258  0.00  0.00    +0.000 A 
ATOM     12  C   UNL     1       3.648   3.042  19.381  0.00  0.00    +0.000 A 
ATOM     13  C   UNL     1       2.733   4.064  19.653  0.00  0.00    +0.000 A 
ATOM     14  C   UNL     1       2.646   5.177  18.809  0.00  0.00    +0.000 A 
ATOM     15  C   UNL     1       3.477   5.260  17.685  0.00  0.00    +0.000 A 
BRANCH  13  16
ATOM     16  N   UNL     1       1.869   3.974  20.839  0.00  0.00    +0.000 N 
ATOM     17  O   UNL     1       0.691   4.335  20.717  0.00  0.00    +0.000 OA
ATOM     18  O   UNL     1       2.375   3.542  21.883  0.00  0.00    +0.000 OA
ENDBRANCH  13  16
ENDBRANCH   2  10
BRANCH   1  20
ATOM     19  C   UNL     1       6.468   7.183  17.347  0.00  0.00    +0.000 C 
ATOM     20  C   UNL     1       7.192   5.901  16.942  0.00  0.00    +0.000 C 
ATOM     21  C   UNL     1       7.585   5.055  18.148  0.00  0.00    +0.000 C 
ENDBRANCH   1  20
TORSDOF 3
ENDMDL
MODEL 2
REMARK VINA RESULT:      -7.5      0.072      1.058
REMARK  Name = 
REMARK  5 active torsions:
REMARK  status: ('A' for Active; 'I' for Inactive)
REMARK    1  A    between atoms: C_1  and  C_2
REMARK    2  A    between atoms: C_2  and  C_3
REMARK    3  A    between atoms: C_2  and  N_4
REMARK    4  A    between atoms: C_5  and  C_6
REMARK    5  A    between atoms: C_9  and  N_10
REMARK                            x       y       z     vdW  Elec       q    Type
REMARK                         _______ _______ _______ _____ _____    ______ ____
ROOT
ATOM      1  N   UNL     1       6.437   5.099  15.952  0.00  0.00    +0.000 N 
ATOM      2  C   UNL     1       5.273   4.331  16.180  0.00  0.00    +0.000 A 
ATOM      3  C   UNL     1       5.070   3.639  14.997  0.00  0.00    +0.000 A 
ATOM      4  N   UNL     1       6.024   4.043  14.095  0.00  0.00    +0.000 N 
ATOM      5  C   UNL     1       6.161   3.641  12.792  0.00  0.00    +0.000 A 
ATOM      6  C   UNL     1       7.173   4.166  12.099  0.00  0.00    +0.000 A 
ATOM      7  C   UNL     1       8.042   5.131  12.810  0.00  0.00    +0.000 A 
ATOM      8  N   UNL     1       7.913   5.522  14.037  0.00  0.00    +0.000 NA
ATOM      9  C   UNL     1       6.834   4.926  14.684  0.00  0.00    +0.000 A 
ENDROOT
BRANCH   2  10
ATOM     10  C   UNL     1       4.392   4.224  17.393  0.00  0.00    +0.000 A 
ATOM     11  C   UNL     1       3.520   5.260  17.744  0.00  0.00    +0.000 A 
ATOM     12  C   UNL     1       2.707   5.152  18.879  0.00  0.00    +0.000 A 
ATOM     13  C   UNL     1       2.752   3.989  19.656  0.00  0.00    +0.000 A 
ATOM     14  C   UNL     1       3.604   2.936  19.302  0.00  0.00    +0.000 A 
ATOM     15  C   UNL     1       4.416   3.054  18.168  0.00  0.00    +0.000 A 
BRANCH  13  16
ATOM     16  N   UNL     1       1.891   3.869  20.841  0.00  0.00    +0.000 N 
ATOM     17  O   UNL     1       0.699   4.180  20.715  0.00  0.00    +0.000 OA
ATOM     18  O   UNL     1       2.413   3.463  21.887  0.00  0.00    +0.000 OA
ENDBRANCH  13  16
ENDBRANCH   2  10
BRANCH   1  20
ATOM     19  C   UNL     1       6.490   7.207  17.302  0.00  0.00    +0.000 C 
ATOM     20  C   UNL     1       7.193   5.902  16.937  0.00  0.00    +0.000 C 
ATOM     21  C   UNL     1       7.545   5.073  18.168  0.00  0.00    +0.000 C 
ENDBRANCH   1  20
TORSDOF 3
ENDMDL
MODEL 3
REMARK VINA RESULT:      -6.7      3.837      5.529
REMARK  Name = 
REMARK  5 active torsions:
REMARK  status: ('A' for Active; 'I' for Inactive)
REMARK    1  A    between atoms: C_1  and  C_2
REMARK    2  A    between atoms: C_2  and  C_3
REMARK    3  A    between atoms: C_2  and  N_4
REMARK    4  A    between atoms: C_5  and  C_6
REMARK    5  A    between atoms: C_9  and  N_10
REMARK                            x       y       z     vdW  Elec       q    Type
REMARK                         _______ _______ _______ _____ _____    ______ ____
ROOT
ATOM      1  N   UNL     1       2.824   5.629  18.462  0.00  0.00    +0.000 N 
ATOM      2  C   UNL     1       2.784   7.040  18.506  0.00  0.00    +0.000 A 
ATOM      3  C   UNL     1       3.691   7.450  17.543  0.00  0.00    +0.000 A 
ATOM      4  N   UNL     1       4.291   6.332  17.016  0.00  0.00    +0.000 N 
ATOM      5  C   UNL     1       5.278   6.286  16.066  0.00  0.00    +0.000 A 
ATOM      6  C   UNL     1       5.709   5.077  15.699  0.00  0.00    +0.000 A 
ATOM      7  C   UNL     1       5.077   3.912  16.359  0.00  0.00    +0.000 A 
ATOM      8  N   UNL     1       4.152   3.949  17.263  0.00  0.00    +0.000 NA
ATOM      9  C   UNL     1       3.762   5.246  17.585  0.00  0.00    +0.000 A 
ENDROOT
BRANCH   2  10
ATOM     10  C   UNL     1       1.973   7.971  19.366  0.00  0.00    +0.000 A 
ATOM     11  C   UNL     1       1.770   7.704  20.724  0.00  0.00    +0.000 A 
ATOM     12  C   UNL     1       1.010   8.575  21.514  0.00  0.00    +0.000 A 
ATOM     13  C   UNL     1       0.467   9.732  20.945  0.00  0.00    +0.000 A 
ATOM     14  C   UNL     1       0.683  10.022  19.592  0.00  0.00    +0.000 A 
ATOM     15  C   UNL     1       1.441   9.144  18.808  0.00  0.00    +0.000 A 
BRANCH  13  16
ATOM     16  N   UNL     1      -0.322  10.653  21.775  0.00  0.00    +0.000 N 
ATOM     17  O   UNL     1      -0.125  10.631  22.997  0.00  0.00    +0.000 OA
ATOM     18  O   UNL     1      -1.129  11.392  21.199  0.00  0.00    +0.000 OA
ENDBRANCH  13  16
ENDBRANCH   2  10
BRANCH   1  20
ATOM     19  C   UNL     1       1.346   3.620  18.244  0.00  0.00    +0.000 C 
ATOM     20  C   UNL     1       1.939   4.679  19.170  0.00  0.00    +0.000 C 
ATOM     21  C   UNL     1       2.644   4.063  20.374  0.00  0.00    +0.000 C 
ENDBRANCH   1  20
TORSDOF 3
ENDMDL
MODEL 4
REMARK VINA RESULT:      -6.7      3.785      5.486
REMARK  Name = 
REMARK  5 active torsions:
REMARK  status: ('A' for Active; 'I' for Inactive)
REMARK    1  A    between atoms: C_1  and  C_2
REMARK    2  A    between atoms: C_2  and  C_3
REMARK    3  A    between atoms: C_2  and  N_4
REMARK    4  A    between atoms: C_5  and  C_6
REMARK    5  A    between atoms: C_9  and  N_10
REMARK                            x       y       z     vdW  Elec       q    Type
REMARK                         _______ _______ _______ _____ _____    ______ ____
ROOT
ATOM      1  N   UNL     1       2.899   5.596  18.402  0.00  0.00    +0.000 N 
ATOM      2  C   UNL     1       2.858   7.008  18.422  0.00  0.00    +0.000 A 
ATOM      3  C   UNL     1       3.758   7.402  17.446  0.00  0.00    +0.000 A 
ATOM      4  N   UNL     1       4.356   6.275  16.935  0.00  0.00    +0.000 N 
ATOM      5  C   UNL     1       5.337   6.214  15.979  0.00  0.00    +0.000 A 
ATOM      6  C   UNL     1       5.766   4.999  15.630  0.00  0.00    +0.000 A 
ATOM      7  C   UNL     1       5.140   3.846  16.314  0.00  0.00    +0.000 A 
ATOM      8  N   UNL     1       4.220   3.897  17.223  0.00  0.00    +0.000 NA
ATOM      9  C   UNL     1       3.832   5.199  17.526  0.00  0.00    +0.000 A 
ENDROOT
BRANCH   2  10
ATOM     10  C   UNL     1       2.052   7.954  19.271  0.00  0.00    +0.000 A 
ATOM     11  C   UNL     1       1.510   9.124  18.729  0.00  0.00    +0.000 A 
ATOM     12  C   UNL     1       0.766   9.999  19.528  0.00  0.00    +0.000 A 
ATOM     13  C   UNL     1       0.546   9.691  20.875  0.00  0.00    +0.000 A 
ATOM     14  C   UNL     1       1.064   8.512  21.423  0.00  0.00    +0.000 A 
ATOM     15  C   UNL     1       1.810   7.643  20.618  0.00  0.00    +0.000 A 
BRANCH  13  16
ATOM     16  N   UNL     1      -0.245  10.604  21.713  0.00  0.00    +0.000 N 
ATOM     17  O   UNL     1      -1.075  11.325  21.146  0.00  0.00    +0.000 OA
ATOM     18  O   UNL     1      -0.030  10.589  22.932  0.00  0.00    +0.000 OA
ENDBRANCH  13  16
ENDBRANCH   2  10
BRANCH   1  20
ATOM     19  C   UNL     1       1.307   3.674  18.208  0.00  0.00    +0.000 C 
ATOM     20  C   UNL     1       2.019   4.659  19.132  0.00  0.00    +0.000 C 
ATOM     21  C   UNL     1       2.776   3.954  20.253  0.00  0.00    +0.000 C 
ENDBRANCH   1  20
TORSDOF 3
ENDMDL
MODEL 5
REMARK VINA RESULT:      -6.6      3.678      6.900
REMARK  Name = 
REMARK  5 active torsions:
REMARK  status: ('A' for Active; 'I' for Inactive)
REMARK    1  A    between atoms: C_1  and  C_2
REMARK    2  A    between atoms: C_2  and  C_3
REMARK    3  A    between atoms: C_2  and  N_4
REMARK    4  A    between atoms: C_5  and  C_6
REMARK    5  A    between atoms: C_9  and  N_10
REMARK                            x       y       z     vdW  Elec       q    Type
REMARK                         _______ _______ _______ _____ _____    ______ ____
ROOT
ATOM      1  N   UNL     1       3.760   5.105  18.642  0.00  0.00    +0.000 N 
ATOM      2  C   UNL     1       4.537   4.209  17.875  0.00  0.00    +0.000 A 
ATOM      3  C   UNL     1       4.382   2.982  18.499  0.00  0.00    +0.000 A 
ATOM      4  N   UNL     1       3.613   3.168  19.623  0.00  0.00    +0.000 N 
ATOM      5  C   UNL     1       3.253   2.225  20.550  0.00  0.00    +0.000 A 
ATOM      6  C   UNL     1       2.491   2.636  21.566  0.00  0.00    +0.000 A 
ATOM      7  C   UNL     1       2.117   4.067  21.586  0.00  0.00    +0.000 A 
ATOM      8  N   UNL     1       2.462   4.965  20.720  0.00  0.00    +0.000 NA
ATOM      9  C   UNL     1       3.253   4.452  19.696  0.00  0.00    +0.000 A 
ENDROOT
BRANCH   2  10
ATOM     10  C   UNL     1       5.374   4.441  16.647  0.00  0.00    +0.000 A 
ATOM     11  C   UNL     1       6.727   4.783  16.751  0.00  0.00    +0.000 A 
ATOM     12  C   UNL     1       7.496   5.001  15.602  0.00  0.00    +0.000 A 
ATOM     13  C   UNL     1       6.912   4.857  14.339  0.00  0.00    +0.000 A 
ATOM     14  C   UNL     1       5.565   4.493  14.222  0.00  0.00    +0.000 A 
ATOM     15  C   UNL     1       4.802   4.279  15.375  0.00  0.00    +0.000 A 
BRANCH  13  16
ATOM     16  N   UNL     1       7.721   5.074  13.131  0.00  0.00    +0.000 N 
ATOM     17  O   UNL     1       8.696   5.831  13.225  0.00  0.00    +0.000 OA
ATOM     18  O   UNL     1       7.375   4.486  12.099  0.00  0.00    +0.000 OA
ENDBRANCH  13  16
ENDBRANCH   2  10
BRANCH   1  20
ATOM     19  C   UNL     1       4.513   7.191  17.479  0.00  0.00    +0.000 C 
ATOM     20  C   UNL     1       3.441   6.515  18.331  0.00  0.00    +0.000 C 
ATOM     21  C   UNL     1       2.051   6.642  17.715  0.00  0.00    +0.000 C 
ENDBRANCH   1  20
TORSDOF 3
ENDMDL
MODEL 6
REMARK VINA RESULT:      -6.6      3.678      6.901
REMARK  Name = 
REMARK  5 active torsions:
REMARK  status: ('A' for Active; 'I' for Inactive)
REMARK    1  A    between atoms: C_1  and  C_2
REMARK    2  A    between atoms: C_2  and  C_3
REMARK    3  A    between atoms: C_2  and  N_4
REMARK    4  A    between atoms: C_5  and  C_6
REMARK    5  A    between atoms: C_9  and  N_10
REMARK                            x       y       z     vdW  Elec       q    Type
REMARK                         _______ _______ _______ _____ _____    ______ ____
ROOT
ATOM      1  N   UNL     1       3.757   5.081  18.624  0.00  0.00    +0.000 N 
ATOM      2  C   UNL     1       4.500   4.171  17.839  0.00  0.00    +0.000 A 
ATOM      3  C   UNL     1       4.320   2.943  18.455  0.00  0.00    +0.000 A 
ATOM      4  N   UNL     1       3.571   3.140  19.590  0.00  0.00    +0.000 N 
ATOM      5  C   UNL     1       3.197   2.198  20.514  0.00  0.00    +0.000 A 
ATOM      6  C   UNL     1       2.460   2.620  21.544  0.00  0.00    +0.000 A 
ATOM      7  C   UNL     1       2.125   4.062  21.581  0.00  0.00    +0.000 A 
ATOM      8  N   UNL     1       2.482   4.957  20.717  0.00  0.00    +0.000 NA
ATOM      9  C   UNL     1       3.247   4.432  19.680  0.00  0.00    +0.000 A 
ENDROOT
BRANCH   2  10
ATOM     10  C   UNL     1       5.328   4.391  16.603  0.00  0.00    +0.000 A 
ATOM     11  C   UNL     1       4.769   4.251  15.328  0.00  0.00    +0.000 A 
ATOM     12  C   UNL     1       5.548   4.453  14.183  0.00  0.00    +0.000 A 
ATOM     13  C   UNL     1       6.893   4.818  14.316  0.00  0.00    +0.000 A 
ATOM     14  C   UNL     1       7.457   4.984  15.586  0.00  0.00    +0.000 A 
ATOM     15  C   UNL     1       6.672   4.776  16.725  0.00  0.00    +0.000 A 
BRANCH  13  16
ATOM     16  N   UNL     1       7.710   5.042  13.115  0.00  0.00    +0.000 N 
ATOM     17  O   UNL     1       7.390   4.436  12.084  0.00  0.00    +0.000 OA
ATOM     18  O   UNL     1       8.665   5.823  13.212  0.00  0.00    +0.000 OA
ENDBRANCH  13  16
ENDBRANCH   2  10
BRANCH   1  20
ATOM     19  C   UNL     1       4.540   7.149  17.451  0.00  0.00    +0.000 C 
ATOM     20  C   UNL     1       3.472   6.501  18.329  0.00  0.00    +0.000 C 
ATOM     21  C   UNL     1       2.071   6.673  17.753  0.00  0.00    +0.000 C 
ENDBRANCH   1  20
TORSDOF 3
ENDMDL
MODEL 7
REMARK VINA RESULT:      -6.5      0.767      1.470
REMARK  Name = 
REMARK  5 active torsions:
REMARK  status: ('A' for Active; 'I' for Inactive)
REMARK    1  A    between atoms: C_1  and  C_2
REMARK    2  A    between atoms: C_2  and  C_3
REMARK    3  A    between atoms: C_2  and  N_4
REMARK    4  A    between atoms: C_5  and  C_6
REMARK    5  A    between atoms: C_9  and  N_10
REMARK                            x       y       z     vdW  Elec       q    Type
REMARK                         _______ _______ _______ _____ _____    ______ ____
ROOT
ATOM      1  N   UNL     1       6.256   4.917  16.500  0.00  0.00    +0.000 N 
ATOM      2  C   UNL     1       5.113   4.097  16.633  0.00  0.00    +0.000 A 
ATOM      3  C   UNL     1       4.955   3.505  15.391  0.00  0.00    +0.000 A 
ATOM      4  N   UNL     1       5.914   4.015  14.549  0.00  0.00    +0.000 N 
ATOM      5  C   UNL     1       6.090   3.732  13.219  0.00  0.00    +0.000 A 
ATOM      6  C   UNL     1       7.100   4.346  12.598  0.00  0.00    +0.000 A 
ATOM      7  C   UNL     1       7.922   5.271  13.410  0.00  0.00    +0.000 A 
ATOM      8  N   UNL     1       7.756   5.550  14.663  0.00  0.00    +0.000 NA
ATOM      9  C   UNL     1       6.684   4.867  15.231  0.00  0.00    +0.000 A 
ENDROOT
BRANCH   2  10
ATOM     10  C   UNL     1       4.211   3.857  17.812  0.00  0.00    +0.000 A 
ATOM     11  C   UNL     1       2.912   4.377  17.843  0.00  0.00    +0.000 A 
ATOM     12  C   UNL     1       2.082   4.153  18.948  0.00  0.00    +0.000 A 
ATOM     13  C   UNL     1       2.548   3.385  20.020  0.00  0.00    +0.000 A 
ATOM     14  C   UNL     1       3.837   2.840  19.991  0.00  0.00    +0.000 A 
ATOM     15  C   UNL     1       4.662   3.072  18.885  0.00  0.00    +0.000 A 
BRANCH  13  16
ATOM     16  N   UNL     1       1.674   3.138  21.176  0.00  0.00    +0.000 N 
ATOM     17  O   UNL     1       0.490   2.857  20.947  0.00  0.00    +0.000 OA
ATOM     18  O   UNL     1       2.179   3.225  22.303  0.00  0.00    +0.000 OA
ENDBRANCH  13  16
ENDBRANCH   2  10
BRANCH   1  20
ATOM     19  C   UNL     1       8.086   4.837  18.206  0.00  0.00    +0.000 C 
ATOM     20  C   UNL     1       6.966   5.653  17.567  0.00  0.00    +0.000 C 
ATOM     21  C   UNL     1       7.453   7.010  17.068  0.00  0.00    +0.000 C 
ENDBRANCH   1  20
TORSDOF 3
ENDMDL
MODEL 8
REMARK VINA RESULT:      -6.5      0.750      1.076
REMARK  Name = 
REMARK  5 active torsions:
REMARK  status: ('A' for Active; 'I' for Inactive)
REMARK    1  A    between atoms: C_1  and  C_2
REMARK    2  A    between atoms: C_2  and  C_3
REMARK    3  A    between atoms: C_2  and  N_4
REMARK    4  A    between atoms: C_5  and  C_6
REMARK    5  A    between atoms: C_9  and  N_10
REMARK                            x       y       z     vdW  Elec       q    Type
REMARK                         _______ _______ _______ _____ _____    ______ ____
ROOT
ATOM      1  N   UNL     1       6.260   4.900  16.471  0.00  0.00    +0.000 N 
ATOM      2  C   UNL     1       5.128   4.066  16.606  0.00  0.00    +0.000 A 
ATOM      3  C   UNL     1       4.976   3.472  15.364  0.00  0.00    +0.000 A 
ATOM      4  N   UNL     1       5.927   3.993  14.521  0.00  0.00    +0.000 N 
ATOM      5  C   UNL     1       6.105   3.712  13.191  0.00  0.00    +0.000 A 
ATOM      6  C   UNL     1       7.105   4.339  12.568  0.00  0.00    +0.000 A 
ATOM      7  C   UNL     1       7.917   5.274  13.379  0.00  0.00    +0.000 A 
ATOM      8  N   UNL     1       7.749   5.551  14.632  0.00  0.00    +0.000 NA
ATOM      9  C   UNL     1       6.687   4.855  15.202  0.00  0.00    +0.000 A 
ENDROOT
BRANCH   2  10
ATOM     10  C   UNL     1       4.230   3.815  17.787  0.00  0.00    +0.000 A 
ATOM     11  C   UNL     1       4.670   3.058  18.878  0.00  0.00    +0.000 A 
ATOM     12  C   UNL     1       3.825   2.826  19.969  0.00  0.00    +0.000 A 
ATOM     13  C   UNL     1       2.537   3.373  19.978  0.00  0.00    +0.000 A 
ATOM     14  C   UNL     1       2.094   4.152  18.903  0.00  0.00    +0.000 A 
ATOM     15  C   UNL     1       2.944   4.376  17.813  0.00  0.00    +0.000 A 
BRANCH  13  16
ATOM     16  N   UNL     1       1.653   3.141  21.129  0.00  0.00    +0.000 N 
ATOM     17  O   UNL     1       0.462   2.899  20.894  0.00  0.00    +0.000 OA
ATOM     18  O   UNL     1       2.157   3.201  22.258  0.00  0.00    +0.000 OA
ENDBRANCH  13  16
ENDBRANCH   2  10
BRANCH   1  20
ATOM     19  C   UNL     1       8.086   4.839  18.182  0.00  0.00    +0.000 C 
ATOM     20  C   UNL     1       6.962   5.646  17.538  0.00  0.00    +0.000 C 
ATOM     21  C   UNL     1       7.442   7.003  17.034  0.00  0.00    +0.000 C 
ENDBRANCH   1  20
TORSDOF 3
ENDMDL
MODEL 9
REMARK VINA RESULT:      -6.4      3.671      6.900
REMARK  Name = 
REMARK  5 active torsions:
REMARK  status: ('A' for Active; 'I' for Inactive)
REMARK    1  A    between atoms: C_1  and  C_2
REMARK    2  A    between atoms: C_2  and  C_3
REMARK    3  A    between atoms: C_2  and  N_4
REMARK    4  A    between atoms: C_5  and  C_6
REMARK    5  A    between atoms: C_9  and  N_10
REMARK                            x       y       z     vdW  Elec       q    Type
REMARK                         _______ _______ _______ _____ _____    ______ ____
ROOT
ATOM      1  N   UNL     1       3.571   5.038  18.516  0.00  0.00    +0.000 N 
ATOM      2  C   UNL     1       4.500   4.199  17.862  0.00  0.00    +0.000 A 
ATOM      3  C   UNL     1       4.494   3.025  18.597  0.00  0.00    +0.000 A 
ATOM      4  N   UNL     1       3.660   3.198  19.674  0.00  0.00    +0.000 N 
ATOM      5  C   UNL     1       3.398   2.301  20.677  0.00  0.00    +0.000 A 
ATOM      6  C   UNL     1       2.543   2.688  21.627  0.00  0.00    +0.000 A 
ATOM      7  C   UNL     1       1.968   4.046  21.498  0.00  0.00    +0.000 A 
ATOM      8  N   UNL     1       2.219   4.901  20.559  0.00  0.00    +0.000 NA
ATOM      9  C   UNL     1       3.118   4.417  19.614  0.00  0.00    +0.000 A 
ENDROOT
BRANCH   2  10
ATOM     10  C   UNL     1       5.348   4.437  16.642  0.00  0.00    +0.000 A 
ATOM     11  C   UNL     1       6.679   4.849  16.760  0.00  0.00    +0.000 A 
ATOM     12  C   UNL     1       7.458   5.073  15.618  0.00  0.00    +0.000 A 
ATOM     13  C   UNL     1       6.905   4.863  14.350  0.00  0.00    +0.000 A 
ATOM     14  C   UNL     1       5.581   4.429  14.220  0.00  0.00    +0.000 A 
ATOM     15  C   UNL     1       4.808   4.211  15.366  0.00  0.00    +0.000 A 
BRANCH  13  16
ATOM     16  N   UNL     1       7.725   5.087  13.150  0.00  0.00    +0.000 N 
ATOM     17  O   UNL     1       7.407   4.478  12.120  0.00  0.00    +0.000 OA
ATOM     18  O   UNL     1       8.678   5.870  13.248  0.00  0.00    +0.000 OA
ENDBRANCH  13  16
ENDBRANCH   2  10
BRANCH   1  20
ATOM     19  C   UNL     1       2.385   7.143  19.174  0.00  0.00    +0.000 C 
ATOM     20  C   UNL     1       3.068   6.353  18.061  0.00  0.00    +0.000 C 
ATOM     21  C   UNL     1       4.170   7.155  17.377  0.00  0.00    +0.000 C 
ENDBRANCH   1  20
TORSDOF 3
ENDMDL
