MODEL 1
REMARK VINA RESULT:      -7.7      0.000      0.000
REMARK  Name = 
REMARK  14 active torsions:
REMARK  status: ('A' for Active; 'I' for Inactive)
REMARK    1  A    between atoms: C_1  and  C_2
REMARK    2  A    between atoms: C_2  and  N_3
REMARK    3  A    between atoms: N_3  and  C_4
REMARK    4  A    between atoms: N_3  and  C_6
REMARK    5  A    between atoms: C_4  and  C_5
REMARK    6  A    between atoms: C_9  and  C_10
REMARK    7  A    between atoms: C_12  and  O_13
REMARK    8  A    between atoms: C_19  and  C_20
REMARK    9  A    between atoms: C_21  and  C_22
REMARK   10  A    between atoms: C_22  and  O_24
REMARK   11  A    between atoms: O_24  and  C_25
REMARK   12  A    between atoms: C_25  and  C_26
REMARK   13  A    between atoms: C_26  and  O_27
REMARK   14  A    between atoms: O_27  and  C_28
REMARK                            x       y       z     vdW  Elec       q    Type
REMARK                         _______ _______ _______ _____ _____    ______ ____
ROOT
ATOM      1  C   UNL     1       3.368   5.512  18.304  0.00  0.00    +0.000 C 
ATOM      2  C   UNL     1       3.073   4.652  19.508  0.00  0.00    +0.000 C 
ATOM      3  C   UNL     1       1.843   4.314  19.916  0.00  0.00    +0.000 C 
ATOM      4  C   UNL     1       1.139   3.350  18.993  0.00  0.00    +0.000 C 
ATOM      5  C   UNL     1       1.873   2.002  19.109  0.00  0.00    +0.000 C 
ATOM      6  C   UNL     1       3.324   2.092  19.657  0.00  0.00    +0.000 C 
ATOM      7  C   UNL     1       3.975   3.462  19.447  0.00  0.00    +0.000 C 
ATOM      8  N   UNL     1       5.239   3.560  19.152  0.00  0.00    +0.000 NA
ATOM      9  C   UNL     1       5.698   4.795  18.701  0.00  0.00    +0.000 C 
ATOM     10  C   UNL     1       7.171   5.057  18.847  0.00  0.00    +0.000 C 
ATOM     11  C   UNL     1       4.858   5.666  18.096  0.00  0.00    +0.000 C 
ENDROOT
BRANCH   1  15
ATOM     12  C   UNL     1       1.331   9.258  18.967  0.00  0.00    +0.000 A 
ATOM     13  C   UNL     1       1.675   8.843  17.678  0.00  0.00    +0.000 A 
ATOM     14  C   UNL     1       2.373   7.668  17.463  0.00  0.00    +0.000 A 
ATOM     15  C   UNL     1       2.684   6.841  18.545  0.00  0.00    +0.000 A 
ATOM     16  C   UNL     1       2.373   7.242  19.844  0.00  0.00    +0.000 A 
ATOM     17  C   UNL     1       1.710   8.447  20.047  0.00  0.00    +0.000 A 
BRANCH  12  18
ATOM     18  N   UNL     1       0.636  10.440  19.163  0.00  0.00    +0.000 N 
BRANCH  18  20
ATOM     19  C   UNL     1      -1.632  10.499  18.159  0.00  0.00    +0.000 C 
ATOM     20  C   UNL     1      -0.801  10.390  19.427  0.00  0.00    +0.000 C 
ENDBRANCH  18  20
BRANCH  18  21
ATOM     21  C   UNL     1       1.322  11.720  19.004  0.00  0.00    +0.000 C 
ATOM     22  C   UNL     1       0.946  12.686  20.123  0.00  0.00    +0.000 C 
ENDBRANCH  18  21
ENDBRANCH  12  18
ENDBRANCH   1  15
BRANCH   3  23
ATOM     23  O   UNL     1       1.637   4.045  21.264  0.00  0.00    +0.000 OA
ATOM     24  H   UNL     1       0.842   4.501  21.571  0.00  0.00    +0.000 HD
ENDBRANCH   3  23
BRANCH  11  25
ATOM     25  C   UNL     1       5.333   6.736  17.167  0.00  0.00    +0.000 C 
ATOM     26  O   UNL     1       5.964   7.733  17.467  0.00  0.00    +0.000 OA
BRANCH  25  27
ATOM     27  O   UNL     1       5.130   6.304  15.897  0.00  0.00    +0.000 OA
BRANCH  27  28
ATOM     28  C   UNL     1       6.169   5.518  15.302  0.00  0.00    +0.000 C 
BRANCH  28  29
ATOM     29  C   UNL     1       5.510   4.383  14.513  0.00  0.00    +0.000 C 
BRANCH  29  30
ATOM     30  O   UNL     1       6.433   3.890  13.530  0.00  0.00    +0.000 OA
ATOM     31  C   UNL     1       5.766   3.349  12.399  0.00  0.00    +0.000 C 
ENDBRANCH  29  30
ENDBRANCH  28  29
ENDBRANCH  27  28
ENDBRANCH  25  27
ENDBRANCH  11  25
TORSDOF 10
ENDMDL
MODEL 2
REMARK VINA RESULT:      -7.6      0.487      1.149
REMARK  Name = 
REMARK  14 active torsions:
REMARK  status: ('A' for Active; 'I' for Inactive)
REMARK    1  A    between atoms: C_1  and  C_2
REMARK    2  A    between atoms: C_2  and  N_3
REMARK    3  A    between atoms: N_3  and  C_4
REMARK    4  A    between atoms: N_3  and  C_6
REMARK    5  A    between atoms: C_4  and  C_5
REMARK    6  A    between atoms: C_9  and  C_10
REMARK    7  A    between atoms: C_12  and  O_13
REMARK    8  A    between atoms: C_19  and  C_20
REMARK    9  A    between atoms: C_21  and  C_22
REMARK   10  A    between atoms: C_22  and  O_24
REMARK   11  A    between atoms: O_24  and  C_25
REMARK   12  A    between atoms: C_25  and  C_26
REMARK   13  A    between atoms: C_26  and  O_27
REMARK   14  A    between atoms: O_27  and  C_28
REMARK                            x       y       z     vdW  Elec       q    Type
REMARK                         _______ _______ _______ _____ _____    ______ ____
ROOT
ATOM      1  C   UNL     1       3.268   5.568  18.331  0.00  0.00    +0.000 C 
ATOM      2  C   UNL     1       2.995   4.668  19.512  0.00  0.00    +0.000 C 
ATOM      3  C   UNL     1       1.773   4.325  19.936  0.00  0.00    +0.000 C 
ATOM      4  C   UNL     1       1.039   3.400  18.998  0.00  0.00    +0.000 C 
ATOM      5  C   UNL     1       1.764   2.043  19.050  0.00  0.00    +0.000 C 
ATOM      6  C   UNL     1       3.228   2.103  19.565  0.00  0.00    +0.000 C 
ATOM      7  C   UNL     1       3.886   3.475  19.387  0.00  0.00    +0.000 C 
ATOM      8  N   UNL     1       5.143   3.574  19.065  0.00  0.00    +0.000 NA
ATOM      9  C   UNL     1       5.601   4.820  18.646  0.00  0.00    +0.000 C 
ATOM     10  C   UNL     1       7.079   5.066  18.765  0.00  0.00    +0.000 C 
ATOM     11  C   UNL     1       4.753   5.718  18.092  0.00  0.00    +0.000 C 
ENDROOT
BRANCH   1  15
ATOM     12  C   UNL     1       1.279   9.304  19.171  0.00  0.00    +0.000 A 
ATOM     13  C   UNL     1       1.621   8.948  17.864  0.00  0.00    +0.000 A 
ATOM     14  C   UNL     1       2.305   7.775  17.594  0.00  0.00    +0.000 A 
ATOM     15  C   UNL     1       2.601   6.892  18.635  0.00  0.00    +0.000 A 
ATOM     16  C   UNL     1       2.289   7.234  19.951  0.00  0.00    +0.000 A 
ATOM     17  C   UNL     1       1.642   8.435  20.211  0.00  0.00    +0.000 A 
BRANCH  12  18
ATOM     18  N   UNL     1       0.598  10.484  19.422  0.00  0.00    +0.000 N 
BRANCH  18  20
ATOM     19  C   UNL     1       0.352  12.607  20.682  0.00  0.00    +0.000 C 
ATOM     20  C   UNL     1       0.764  11.144  20.716  0.00  0.00    +0.000 C 
ENDBRANCH  18  20
BRANCH  18  21
ATOM     21  C   UNL     1      -0.348  11.000  18.437  0.00  0.00    +0.000 C 
ATOM     22  C   UNL     1      -1.675  10.252  18.507  0.00  0.00    +0.000 C 
ENDBRANCH  18  21
ENDBRANCH  12  18
ENDBRANCH   1  15
BRANCH   3  23
ATOM     23  O   UNL     1       1.596   4.010  21.280  0.00  0.00    +0.000 OA
ATOM     24  H   UNL     1       2.435   4.106  21.751  0.00  0.00    +0.000 HD
ENDBRANCH   3  23
BRANCH  11  25
ATOM     25  C   UNL     1       5.214   6.816  17.190  0.00  0.00    +0.000 C 
ATOM     26  O   UNL     1       5.866   7.794  17.508  0.00  0.00    +0.000 OA
BRANCH  25  27
ATOM     27  O   UNL     1       4.969   6.434  15.911  0.00  0.00    +0.000 OA
BRANCH  27  28
ATOM     28  C   UNL     1       6.009   5.718  15.234  0.00  0.00    +0.000 C 
BRANCH  28  29
ATOM     29  C   UNL     1       5.427   4.386  14.751  0.00  0.00    +0.000 C 
BRANCH  29  30
ATOM     30  O   UNL     1       6.431   3.669  14.017  0.00  0.00    +0.000 OA
ATOM     31  C   UNL     1       6.097   3.546  12.641  0.00  0.00    +0.000 C 
ENDBRANCH  29  30
ENDBRANCH  28  29
ENDBRANCH  27  28
ENDBRANCH  25  27
ENDBRANCH  11  25
TORSDOF 10
ENDMDL
MODEL 3
REMARK VINA RESULT:      -7.5      0.562      1.052
REMARK  Name = 
REMARK  14 active torsions:
REMARK  status: ('A' for Active; 'I' for Inactive)
REMARK    1  A    between atoms: C_1  and  C_2
REMARK    2  A    between atoms: C_2  and  N_3
REMARK    3  A    between atoms: N_3  and  C_4
REMARK    4  A    between atoms: N_3  and  C_6
REMARK    5  A    between atoms: C_4  and  C_5
REMARK    6  A    between atoms: C_9  and  C_10
REMARK    7  A    between atoms: C_12  and  O_13
REMARK    8  A    between atoms: C_19  and  C_20
REMARK    9  A    between atoms: C_21  and  C_22
REMARK   10  A    between atoms: C_22  and  O_24
REMARK   11  A    between atoms: O_24  and  C_25
REMARK   12  A    between atoms: C_25  and  C_26
REMARK   13  A    between atoms: C_26  and  O_27
REMARK   14  A    between atoms: O_27  and  C_28
REMARK                            x       y       z     vdW  Elec       q    Type
REMARK                         _______ _______ _______ _____ _____    ______ ____
ROOT
ATOM      1  C   UNL     1       3.327   5.551  18.374  0.00  0.00    +0.000 C 
ATOM      2  C   UNL     1       3.047   4.654  19.555  0.00  0.00    +0.000 C 
ATOM      3  C   UNL     1       1.826   4.256  19.932  0.00  0.00    +0.000 C 
ATOM      4  C   UNL     1       1.181   3.282  18.978  0.00  0.00    +0.000 C 
ATOM      5  C   UNL     1       1.970   1.964  19.081  0.00  0.00    +0.000 C 
ATOM      6  C   UNL     1       3.405   2.105  19.658  0.00  0.00    +0.000 C 
ATOM      7  C   UNL     1       4.001   3.506  19.487  0.00  0.00    +0.000 C 
ATOM      8  N   UNL     1       5.265   3.663  19.218  0.00  0.00    +0.000 NA
ATOM      9  C   UNL     1       5.678   4.926  18.801  0.00  0.00    +0.000 C 
ATOM     10  C   UNL     1       7.135   5.248  18.979  0.00  0.00    +0.000 C 
ATOM     11  C   UNL     1       4.812   5.772  18.197  0.00  0.00    +0.000 C 
ENDROOT
BRANCH   1  15
ATOM     12  C   UNL     1       1.290   9.281  19.121  0.00  0.00    +0.000 A 
ATOM     13  C   UNL     1       1.622   8.418  20.170  0.00  0.00    +0.000 A 
ATOM     14  C   UNL     1       2.228   7.197  19.931  0.00  0.00    +0.000 A 
ATOM     15  C   UNL     1       2.582   6.844  18.627  0.00  0.00    +0.000 A 
ATOM     16  C   UNL     1       2.243   7.677  17.561  0.00  0.00    +0.000 A 
ATOM     17  C   UNL     1       1.594   8.880  17.812  0.00  0.00    +0.000 A 
BRANCH  12  18
ATOM     18  N   UNL     1       0.679  10.497  19.379  0.00  0.00    +0.000 N 
BRANCH  18  20
ATOM     19  C   UNL     1      -1.600  10.266  18.426  0.00  0.00    +0.000 C 
ATOM     20  C   UNL     1      -0.286  11.030  18.420  0.00  0.00    +0.000 C 
ENDBRANCH  18  20
BRANCH  18  21
ATOM     21  C   UNL     1       1.077  11.276  20.549  0.00  0.00    +0.000 C 
ATOM     22  C   UNL     1      -0.073  11.399  21.542  0.00  0.00    +0.000 C 
ENDBRANCH  18  21
ENDBRANCH  12  18
ENDBRANCH   1  15
BRANCH   3  23
ATOM     23  O   UNL     1       1.607   3.951  21.271  0.00  0.00    +0.000 OA
ATOM     24  H   UNL     1       0.770   3.476  21.365  0.00  0.00    +0.000 HD
ENDBRANCH   3  23
BRANCH  11  25
ATOM     25  C   UNL     1       5.257   6.880  17.298  0.00  0.00    +0.000 C 
ATOM     26  O   UNL     1       5.811   7.911  17.633  0.00  0.00    +0.000 OA
BRANCH  25  27
ATOM     27  O   UNL     1       5.135   6.451  16.017  0.00  0.00    +0.000 OA
BRANCH  27  28
ATOM     28  C   UNL     1       6.183   5.620  15.505  0.00  0.00    +0.000 C 
BRANCH  28  29
ATOM     29  C   UNL     1       5.550   4.576  14.580  0.00  0.00    +0.000 C 
BRANCH  29  30
ATOM     30  O   UNL     1       6.521   4.148  13.613  0.00  0.00    +0.000 OA
ATOM     31  C   UNL     1       5.928   3.405  12.558  0.00  0.00    +0.000 C 
ENDBRANCH  29  30
ENDBRANCH  28  29
ENDBRANCH  27  28
ENDBRANCH  25  27
ENDBRANCH  11  25
TORSDOF 10
ENDMDL
MODEL 4
REMARK VINA RESULT:      -7.5      0.420      1.491
REMARK  Name = 
REMARK  14 active torsions:
REMARK  status: ('A' for Active; 'I' for Inactive)
REMARK    1  A    between atoms: C_1  and  C_2
REMARK    2  A    between atoms: C_2  and  N_3
REMARK    3  A    between atoms: N_3  and  C_4
REMARK    4  A    between atoms: N_3  and  C_6
REMARK    5  A    between atoms: C_4  and  C_5
REMARK    6  A    between atoms: C_9  and  C_10
REMARK    7  A    between atoms: C_12  and  O_13
REMARK    8  A    between atoms: C_19  and  C_20
REMARK    9  A    between atoms: C_21  and  C_22
REMARK   10  A    between atoms: C_22  and  O_24
REMARK   11  A    between atoms: O_24  and  C_25
REMARK   12  A    between atoms: C_25  and  C_26
REMARK   13  A    between atoms: C_26  and  O_27
REMARK   14  A    between atoms: O_27  and  C_28
REMARK                            x       y       z     vdW  Elec       q    Type
REMARK                         _______ _______ _______ _____ _____    ______ ____
ROOT
ATOM      1  C   UNL     1       3.297   5.557  18.372  0.00  0.00    +0.000 C 
ATOM      2  C   UNL     1       3.002   4.707  19.583  0.00  0.00    +0.000 C 
ATOM      3  C   UNL     1       1.775   4.343  19.973  0.00  0.00    +0.000 C 
ATOM      4  C   UNL     1       1.112   3.349  19.053  0.00  0.00    +0.000 C 
ATOM      5  C   UNL     1       1.878   2.022  19.201  0.00  0.00    +0.000 C 
ATOM      6  C   UNL     1       3.315   2.156  19.774  0.00  0.00    +0.000 C 
ATOM      7  C   UNL     1       3.935   3.540  19.555  0.00  0.00    +0.000 C 
ATOM      8  N   UNL     1       5.202   3.666  19.281  0.00  0.00    +0.000 NA
ATOM      9  C   UNL     1       5.637   4.906  18.821  0.00  0.00    +0.000 C 
ATOM     10  C   UNL     1       7.100   5.208  18.989  0.00  0.00    +0.000 C 
ATOM     11  C   UNL     1       4.786   5.746  18.188  0.00  0.00    +0.000 C 
ENDROOT
BRANCH   1  15
ATOM     12  C   UNL     1       1.327   9.346  18.992  0.00  0.00    +0.000 A 
ATOM     13  C   UNL     1       1.636   8.510  20.068  0.00  0.00    +0.000 A 
ATOM     14  C   UNL     1       2.221   7.271  19.871  0.00  0.00    +0.000 A 
ATOM     15  C   UNL     1       2.576   6.871  18.581  0.00  0.00    +0.000 A 
ATOM     16  C   UNL     1       2.259   7.677  17.488  0.00  0.00    +0.000 A 
ATOM     17  C   UNL     1       1.631   8.899  17.697  0.00  0.00    +0.000 A 
BRANCH  12  18
ATOM     18  N   UNL     1       0.737  10.580  19.208  0.00  0.00    +0.000 N 
BRANCH  18  20
ATOM     19  C   UNL     1       0.839  12.966  18.533  0.00  0.00    +0.000 C 
ATOM     20  C   UNL     1       1.562  11.786  19.162  0.00  0.00    +0.000 C 
ENDBRANCH  18  20
BRANCH  18  21
ATOM     21  C   UNL     1      -0.673  10.655  19.578  0.00  0.00    +0.000 C 
ATOM     22  C   UNL     1      -1.568  10.241  18.414  0.00  0.00    +0.000 C 
ENDBRANCH  18  21
ENDBRANCH  12  18
ENDBRANCH   1  15
BRANCH   3  23
ATOM     23  O   UNL     1       1.550   4.088  21.322  0.00  0.00    +0.000 OA
ATOM     24  H   UNL     1       0.614   3.895  21.467  0.00  0.00    +0.000 HD
ENDBRANCH   3  23
BRANCH  11  25
ATOM     25  C   UNL     1       5.250   6.814  17.252  0.00  0.00    +0.000 C 
ATOM     26  O   UNL     1       5.850   7.832  17.549  0.00  0.00    +0.000 OA
BRANCH  25  27
ATOM     27  O   UNL     1       5.083   6.359  15.985  0.00  0.00    +0.000 OA
BRANCH  27  28
ATOM     28  C   UNL     1       6.185   5.662  15.392  0.00  0.00    +0.000 C 
BRANCH  28  29
ATOM     29  C   UNL     1       5.734   4.228  15.100  0.00  0.00    +0.000 C 
BRANCH  29  30
ATOM     30  O   UNL     1       5.248   4.149  13.752  0.00  0.00    +0.000 OA
ATOM     31  C   UNL     1       6.211   3.589  12.871  0.00  0.00    +0.000 C 
ENDBRANCH  29  30
ENDBRANCH  28  29
ENDBRANCH  27  28
ENDBRANCH  25  27
ENDBRANCH  11  25
TORSDOF 10
ENDMDL
MODEL 5
REMARK VINA RESULT:      -7.2      1.564      4.765
REMARK  Name = 
REMARK  14 active torsions:
REMARK  status: ('A' for Active; 'I' for Inactive)
REMARK    1  A    between atoms: C_1  and  C_2
REMARK    2  A    between atoms: C_2  and  N_3
REMARK    3  A    between atoms: N_3  and  C_4
REMARK    4  A    between atoms: N_3  and  C_6
REMARK    5  A    between atoms: C_4  and  C_5
REMARK    6  A    between atoms: C_9  and  C_10
REMARK    7  A    between atoms: C_12  and  O_13
REMARK    8  A    between atoms: C_19  and  C_20
REMARK    9  A    between atoms: C_21  and  C_22
REMARK   10  A    between atoms: C_22  and  O_24
REMARK   11  A    between atoms: O_24  and  C_25
REMARK   12  A    between atoms: C_25  and  C_26
REMARK   13  A    between atoms: C_26  and  O_27
REMARK   14  A    between atoms: O_27  and  C_28
REMARK                            x       y       z     vdW  Elec       q    Type
REMARK                         _______ _______ _______ _____ _____    ______ ____
ROOT
ATOM      1  C   UNL     1       3.610   5.804  18.569  0.00  0.00    +0.000 C 
ATOM      2  C   UNL     1       4.242   5.822  17.199  0.00  0.00    +0.000 C 
ATOM      3  C   UNL     1       5.062   6.783  16.756  0.00  0.00    +0.000 C 
ATOM      4  C   UNL     1       6.411   6.794  17.432  0.00  0.00    +0.000 C 
ATOM      5  C   UNL     1       7.154   5.528  16.968  0.00  0.00    +0.000 C 
ATOM      6  C   UNL     1       6.242   4.397  16.419  0.00  0.00    +0.000 C 
ATOM      7  C   UNL     1       4.804   4.461  16.942  0.00  0.00    +0.000 C 
ATOM      8  N   UNL     1       4.146   3.372  17.217  0.00  0.00    +0.000 NA
ATOM      9  C   UNL     1       2.966   3.503  17.944  0.00  0.00    +0.000 C 
ATOM     10  C   UNL     1       1.978   2.376  17.827  0.00  0.00    +0.000 C 
ATOM     11  C   UNL     1       2.775   4.559  18.768  0.00  0.00    +0.000 C 
ENDROOT
BRANCH   1  15
ATOM     12  C   UNL     1       1.181   9.359  18.858  0.00  0.00    +0.000 A 
ATOM     13  C   UNL     1       1.712   8.946  17.632  0.00  0.00    +0.000 A 
ATOM     14  C   UNL     1       2.534   7.836  17.542  0.00  0.00    +0.000 A 
ATOM     15  C   UNL     1       2.786   7.069  18.682  0.00  0.00    +0.000 A 
ATOM     16  C   UNL     1       2.287   7.471  19.920  0.00  0.00    +0.000 A 
ATOM     17  C   UNL     1       1.500   8.613  20.002  0.00  0.00    +0.000 A 
BRANCH  12  18
ATOM     18  N   UNL     1       0.365  10.475  18.929  0.00  0.00    +0.000 N 
BRANCH  18  20
ATOM     19  C   UNL     1       1.162  12.319  20.385  0.00  0.00    +0.000 C 
ATOM     20  C   UNL     1       0.971  11.805  18.968  0.00  0.00    +0.000 C 
ENDBRANCH  18  20
BRANCH  18  21
ATOM     21  C   UNL     1      -1.080  10.310  19.066  0.00  0.00    +0.000 C 
ATOM     22  C   UNL     1      -1.751  10.199  17.701  0.00  0.00    +0.000 C 
ENDBRANCH  18  21
ENDBRANCH  12  18
ENDBRANCH   1  15
BRANCH   3  23
ATOM     23  O   UNL     1       5.124   7.030  15.388  0.00  0.00    +0.000 OA
ATOM     24  H   UNL     1       4.439   6.522  14.933  0.00  0.00    +0.000 HD
ENDBRANCH   3  23
BRANCH  11  25
ATOM     25  C   UNL     1       1.822   4.526  19.918  0.00  0.00    +0.000 C 
ATOM     26  O   UNL     1       0.609   4.435  19.855  0.00  0.00    +0.000 OA
BRANCH  25  27
ATOM     27  O   UNL     1       2.547   4.398  21.057  0.00  0.00    +0.000 OA
BRANCH  27  28
ATOM     28  C   UNL     1       2.175   3.344  21.952  0.00  0.00    +0.000 C 
BRANCH  28  29
ATOM     29  C   UNL     1       2.811   2.046  21.444  0.00  0.00    +0.000 C 
BRANCH  29  30
ATOM     30  O   UNL     1       4.226   2.237  21.298  0.00  0.00    +0.000 OA
ATOM     31  C   UNL     1       4.761   1.460  20.236  0.00  0.00    +0.000 C 
ENDBRANCH  29  30
ENDBRANCH  28  29
ENDBRANCH  27  28
ENDBRANCH  25  27
ENDBRANCH  11  25
TORSDOF 10
ENDMDL
MODEL 6
REMARK VINA RESULT:      -7.1      4.013      8.810
REMARK  Name = 
REMARK  14 active torsions:
REMARK  status: ('A' for Active; 'I' for Inactive)
REMARK    1  A    between atoms: C_1  and  C_2
REMARK    2  A    between atoms: C_2  and  N_3
REMARK    3  A    between atoms: N_3  and  C_4
REMARK    4  A    between atoms: N_3  and  C_6
REMARK    5  A    between atoms: C_4  and  C_5
REMARK    6  A    between atoms: C_9  and  C_10
REMARK    7  A    between atoms: C_12  and  O_13
REMARK    8  A    between atoms: C_19  and  C_20
REMARK    9  A    between atoms: C_21  and  C_22
REMARK   10  A    between atoms: C_22  and  O_24
REMARK   11  A    between atoms: O_24  and  C_25
REMARK   12  A    between atoms: C_25  and  C_26
REMARK   13  A    between atoms: C_26  and  O_27
REMARK   14  A    between atoms: O_27  and  C_28
REMARK                            x       y       z     vdW  Elec       q    Type
REMARK                         _______ _______ _______ _____ _____    ______ ____
ROOT
ATOM      1  C   UNL     1       0.302  11.578  18.651  0.00  0.00    +0.000 C 
ATOM      2  C   UNL     1       0.877  12.532  19.669  0.00  0.00    +0.000 C 
ATOM      3  C   UNL     1       2.180  12.808  19.799  0.00  0.00    +0.000 C 
ATOM      4  C   UNL     1       2.751  13.608  18.655  0.00  0.00    +0.000 C 
ATOM      5  C   UNL     1       2.138  15.017  18.744  0.00  0.00    +0.000 C 
ATOM      6  C   UNL     1       0.818  15.105  19.558  0.00  0.00    +0.000 C 
ATOM      7  C   UNL     1       0.055  13.780  19.635  0.00  0.00    +0.000 C 
ATOM      8  N   UNL     1      -1.246  13.757  19.593  0.00  0.00    +0.000 NA
ATOM      9  C   UNL     1      -1.858  12.523  19.384  0.00  0.00    +0.000 C 
ATOM     10  C   UNL     1      -3.289  12.401  19.830  0.00  0.00    +0.000 C 
ATOM     11  C   UNL     1      -1.206  11.528  18.742  0.00  0.00    +0.000 C 
ENDROOT
BRANCH   1  15
ATOM     12  C   UNL     1       2.021   7.691  19.394  0.00  0.00    +0.000 A 
ATOM     13  C   UNL     1       1.338   8.381  20.400  0.00  0.00    +0.000 A 
ATOM     14  C   UNL     1       0.830   9.650  20.183  0.00  0.00    +0.000 A 
ATOM     15  C   UNL     1       0.937  10.230  18.917  0.00  0.00    +0.000 A 
ATOM     16  C   UNL     1       1.632   9.572  17.902  0.00  0.00    +0.000 A 
ATOM     17  C   UNL     1       2.176   8.317  18.148  0.00  0.00    +0.000 A 
BRANCH  12  18
ATOM     18  N   UNL     1       2.528   6.423  19.632  0.00  0.00    +0.000 N 
BRANCH  18  20
ATOM     19  C   UNL     1       4.686   5.222  19.401  0.00  0.00    +0.000 C 
ATOM     20  C   UNL     1       3.496   5.853  18.697  0.00  0.00    +0.000 C 
ENDBRANCH  18  20
BRANCH  18  21
ATOM     21  C   UNL     1       2.017   5.636  20.751  0.00  0.00    +0.000 C 
ATOM     22  C   UNL     1       1.169   4.469  20.258  0.00  0.00    +0.000 C 
ENDBRANCH  18  21
ENDBRANCH  12  18
ENDBRANCH   1  15
BRANCH   3  23
ATOM     23  O   UNL     1       2.660  13.198  21.045  0.00  0.00    +0.000 OA
ATOM     24  H   UNL     1       2.210  14.004  21.330  0.00  0.00    +0.000 HD
ENDBRANCH   3  23
BRANCH  11  25
ATOM     25  C   UNL     1      -1.916  10.410  18.050  0.00  0.00    +0.000 C 
ATOM     26  O   UNL     1      -2.410   9.427  18.572  0.00  0.00    +0.000 OA
BRANCH  25  27
ATOM     27  O   UNL     1      -2.110  10.776  16.758  0.00  0.00    +0.000 OA
BRANCH  27  28
ATOM     28  C   UNL     1      -2.616   9.775  15.866  0.00  0.00    +0.000 C 
BRANCH  28  29
ATOM     29  C   UNL     1      -3.411  10.483  14.764  0.00  0.00    +0.000 C 
BRANCH  29  30
ATOM     30  O   UNL     1      -3.055   9.926  13.490  0.00  0.00    +0.000 OA
ATOM     31  C   UNL     1      -4.174   9.832  12.620  0.00  0.00    +0.000 C 
ENDBRANCH  29  30
ENDBRANCH  28  29
ENDBRANCH  27  28
ENDBRANCH  25  27
ENDBRANCH  11  25
TORSDOF 10
ENDMDL
MODEL 7
REMARK VINA RESULT:      -7.1      1.579      4.628
REMARK  Name = 
REMARK  14 active torsions:
REMARK  status: ('A' for Active; 'I' for Inactive)
REMARK    1  A    between atoms: C_1  and  C_2
REMARK    2  A    between atoms: C_2  and  N_3
REMARK    3  A    between atoms: N_3  and  C_4
REMARK    4  A    between atoms: N_3  and  C_6
REMARK    5  A    between atoms: C_4  and  C_5
REMARK    6  A    between atoms: C_9  and  C_10
REMARK    7  A    between atoms: C_12  and  O_13
REMARK    8  A    between atoms: C_19  and  C_20
REMARK    9  A    between atoms: C_21  and  C_22
REMARK   10  A    between atoms: C_22  and  O_24
REMARK   11  A    between atoms: O_24  and  C_25
REMARK   12  A    between atoms: C_25  and  C_26
REMARK   13  A    between atoms: C_26  and  O_27
REMARK   14  A    between atoms: O_27  and  C_28
REMARK                            x       y       z     vdW  Elec       q    Type
REMARK                         _______ _______ _______ _____ _____    ______ ____
ROOT
ATOM      1  C   UNL     1       3.582   5.814  18.588  0.00  0.00    +0.000 C 
ATOM      2  C   UNL     1       4.220   5.839  17.220  0.00  0.00    +0.000 C 
ATOM      3  C   UNL     1       5.039   6.804  16.783  0.00  0.00    +0.000 C 
ATOM      4  C   UNL     1       6.384   6.815  17.464  0.00  0.00    +0.000 C 
ATOM      5  C   UNL     1       7.133   5.554  16.998  0.00  0.00    +0.000 C 
ATOM      6  C   UNL     1       6.226   4.423  16.442  0.00  0.00    +0.000 C 
ATOM      7  C   UNL     1       4.786   4.481  16.959  0.00  0.00    +0.000 C 
ATOM      8  N   UNL     1       4.130   3.389  17.227  0.00  0.00    +0.000 NA
ATOM      9  C   UNL     1       2.947   3.514  17.951  0.00  0.00    +0.000 C 
ATOM     10  C   UNL     1       1.962   2.385  17.826  0.00  0.00    +0.000 C 
ATOM     11  C   UNL     1       2.750   4.566  18.778  0.00  0.00    +0.000 C 
ENDROOT
BRANCH   1  15
ATOM     12  C   UNL     1       1.143   9.361  18.884  0.00  0.00    +0.000 A 
ATOM     13  C   UNL     1       1.643   8.931  17.652  0.00  0.00    +0.000 A 
ATOM     14  C   UNL     1       2.468   7.825  17.558  0.00  0.00    +0.000 A 
ATOM     15  C   UNL     1       2.755   7.076  18.702  0.00  0.00    +0.000 A 
ATOM     16  C   UNL     1       2.286   7.495  19.947  0.00  0.00    +0.000 A 
ATOM     17  C   UNL     1       1.495   8.635  20.032  0.00  0.00    +0.000 A 
BRANCH  12  18
ATOM     18  N   UNL     1       0.322  10.475  18.959  0.00  0.00    +0.000 N 
BRANCH  18  20
ATOM     19  C   UNL     1      -1.700  11.566  18.023  0.00  0.00    +0.000 C 
ATOM     20  C   UNL     1      -1.106  10.331  18.681  0.00  0.00    +0.000 C 
ENDBRANCH  18  20
BRANCH  18  21
ATOM     21  C   UNL     1       0.904  11.789  19.215  0.00  0.00    +0.000 C 
ATOM     22  C   UNL     1       0.838  12.139  20.697  0.00  0.00    +0.000 C 
ENDBRANCH  18  21
ENDBRANCH  12  18
ENDBRANCH   1  15
BRANCH   3  23
ATOM     23  O   UNL     1       5.105   7.056  15.417  0.00  0.00    +0.000 OA
ATOM     24  H   UNL     1       5.239   8.001  15.265  0.00  0.00    +0.000 HD
ENDBRANCH   3  23
BRANCH  11  25
ATOM     25  C   UNL     1       1.792   4.527  19.925  0.00  0.00    +0.000 C 
ATOM     26  O   UNL     1       0.580   4.431  19.857  0.00  0.00    +0.000 OA
BRANCH  25  27
ATOM     27  O   UNL     1       2.514   4.399  21.066  0.00  0.00    +0.000 OA
BRANCH  27  28
ATOM     28  C   UNL     1       2.126   3.356  21.969  0.00  0.00    +0.000 C 
BRANCH  28  29
ATOM     29  C   UNL     1       2.678   2.033  21.429  0.00  0.00    +0.000 C 
BRANCH  29  30
ATOM     30  O   UNL     1       4.106   2.025  21.566  0.00  0.00    +0.000 OA
ATOM     31  C   UNL     1       4.757   1.731  20.338  0.00  0.00    +0.000 C 
ENDBRANCH  29  30
ENDBRANCH  28  29
ENDBRANCH  27  28
ENDBRANCH  25  27
ENDBRANCH  11  25
TORSDOF 10
ENDMDL
MODEL 8
REMARK VINA RESULT:      -7.0      4.012      8.774
REMARK  Name = 
REMARK  14 active torsions:
REMARK  status: ('A' for Active; 'I' for Inactive)
REMARK    1  A    between atoms: C_1  and  C_2
REMARK    2  A    between atoms: C_2  and  N_3
REMARK    3  A    between atoms: N_3  and  C_4
REMARK    4  A    between atoms: N_3  and  C_6
REMARK    5  A    between atoms: C_4  and  C_5
REMARK    6  A    between atoms: C_9  and  C_10
REMARK    7  A    between atoms: C_12  and  O_13
REMARK    8  A    between atoms: C_19  and  C_20
REMARK    9  A    between atoms: C_21  and  C_22
REMARK   10  A    between atoms: C_22  and  O_24
REMARK   11  A    between atoms: O_24  and  C_25
REMARK   12  A    between atoms: C_25  and  C_26
REMARK   13  A    between atoms: C_26  and  O_27
REMARK   14  A    between atoms: O_27  and  C_28
REMARK                            x       y       z     vdW  Elec       q    Type
REMARK                         _______ _______ _______ _____ _____    ______ ____
ROOT
ATOM      1  C   UNL     1       0.279  11.608  18.725  0.00  0.00    +0.000 C 
ATOM      2  C   UNL     1       0.807  12.461  19.851  0.00  0.00    +0.000 C 
ATOM      3  C   UNL     1       2.105  12.691  20.084  0.00  0.00    +0.000 C 
ATOM      4  C   UNL     1       2.764  13.566  19.047  0.00  0.00    +0.000 C 
ATOM      5  C   UNL     1       2.176  14.979  19.213  0.00  0.00    +0.000 C 
ATOM      6  C   UNL     1       0.809  15.036  19.948  0.00  0.00    +0.000 C 
ATOM      7  C   UNL     1       0.015  13.729  19.869  0.00  0.00    +0.000 C 
ATOM      8  N   UNL     1      -1.281  13.743  19.745  0.00  0.00    +0.000 NA
ATOM      9  C   UNL     1      -1.904  12.547  19.398  0.00  0.00    +0.000 C 
ATOM     10  C   UNL     1      -3.362  12.427  19.742  0.00  0.00    +0.000 C 
ATOM     11  C   UNL     1      -1.233  11.590  18.717  0.00  0.00    +0.000 C 
ENDROOT
BRANCH   1  15
ATOM     12  C   UNL     1       2.043   7.711  19.290  0.00  0.00    +0.000 A 
ATOM     13  C   UNL     1       2.139   8.374  18.063  0.00  0.00    +0.000 A 
ATOM     14  C   UNL     1       1.531   9.601  17.860  0.00  0.00    +0.000 A 
ATOM     15  C   UNL     1       0.866  10.226  18.917  0.00  0.00    +0.000 A 
ATOM     16  C   UNL     1       0.737   9.576  20.145  0.00  0.00    +0.000 A 
ATOM     17  C   UNL     1       1.315   8.325  20.320  0.00  0.00    +0.000 A 
BRANCH  12  18
ATOM     18  N   UNL     1       2.654   6.481  19.473  0.00  0.00    +0.000 N 
BRANCH  18  20
ATOM     19  C   UNL     1       1.370   4.547  20.349  0.00  0.00    +0.000 C 
ATOM     20  C   UNL     1       2.326   5.688  20.656  0.00  0.00    +0.000 C 
ENDBRANCH  18  20
BRANCH  18  21
ATOM     21  C   UNL     1       3.686   6.038  18.540  0.00  0.00    +0.000 C 
ATOM     22  C   UNL     1       4.820   5.330  19.273  0.00  0.00    +0.000 C 
ENDBRANCH  18  21
ENDBRANCH  12  18
ENDBRANCH   1  15
BRANCH   3  23
ATOM     23  O   UNL     1       2.512  12.968  21.385  0.00  0.00    +0.000 OA
ATOM     24  H   UNL     1       1.781  13.359  21.880  0.00  0.00    +0.000 HD
ENDBRANCH   3  23
BRANCH  11  25
ATOM     25  C   UNL     1      -1.921  10.550  17.893  0.00  0.00    +0.000 C 
ATOM     26  O   UNL     1      -2.349   9.478  18.282  0.00  0.00    +0.000 OA
BRANCH  25  27
ATOM     27  O   UNL     1      -2.185  11.090  16.677  0.00  0.00    +0.000 OA
BRANCH  27  28
ATOM     28  C   UNL     1      -3.397  10.683  16.032  0.00  0.00    +0.000 C 
BRANCH  28  29
ATOM     29  C   UNL     1      -3.037  10.149  14.642  0.00  0.00    +0.000 C 
BRANCH  29  30
ATOM     30  O   UNL     1      -4.218  10.114  13.827  0.00  0.00    +0.000 OA
ATOM     31  C   UNL     1      -3.930   9.733  12.489  0.00  0.00    +0.000 C 
ENDBRANCH  29  30
ENDBRANCH  28  29
ENDBRANCH  27  28
ENDBRANCH  25  27
ENDBRANCH  11  25
TORSDOF 10
ENDMDL
MODEL 9
REMARK VINA RESULT:      -7.0      0.816      1.388
REMARK  Name = 
REMARK  14 active torsions:
REMARK  status: ('A' for Active; 'I' for Inactive)
REMARK    1  A    between atoms: C_1  and  C_2
REMARK    2  A    between atoms: C_2  and  N_3
REMARK    3  A    between atoms: N_3  and  C_4
REMARK    4  A    between atoms: N_3  and  C_6
REMARK    5  A    between atoms: C_4  and  C_5
REMARK    6  A    between atoms: C_9  and  C_10
REMARK    7  A    between atoms: C_12  and  O_13
REMARK    8  A    between atoms: C_19  and  C_20
REMARK    9  A    between atoms: C_21  and  C_22
REMARK   10  A    between atoms: C_22  and  O_24
REMARK   11  A    between atoms: O_24  and  C_25
REMARK   12  A    between atoms: C_25  and  C_26
REMARK   13  A    between atoms: C_26  and  O_27
REMARK   14  A    between atoms: O_27  and  C_28
REMARK                            x       y       z     vdW  Elec       q    Type
REMARK                         _______ _______ _______ _____ _____    ______ ____
ROOT
ATOM      1  C   UNL     1       3.625   5.668  18.278  0.00  0.00    +0.000 C 
ATOM      2  C   UNL     1       3.219   4.759  19.412  0.00  0.00    +0.000 C 
ATOM      3  C   UNL     1       1.965   4.358  19.651  0.00  0.00    +0.000 C 
ATOM      4  C   UNL     1       1.426   3.396  18.622  0.00  0.00    +0.000 C 
ATOM      5  C   UNL     1       2.199   2.076  18.795  0.00  0.00    +0.000 C 
ATOM      6  C   UNL     1       3.564   2.208  19.526  0.00  0.00    +0.000 C 
ATOM      7  C   UNL     1       4.175   3.610  19.435  0.00  0.00    +0.000 C 
ATOM      8  N   UNL     1       5.460   3.769  19.306  0.00  0.00    +0.000 NA
ATOM      9  C   UNL     1       5.916   5.036  18.950  0.00  0.00    +0.000 C 
ATOM     10  C   UNL     1       7.346   5.354  19.288  0.00  0.00    +0.000 C 
ATOM     11  C   UNL     1       5.121   5.889  18.265  0.00  0.00    +0.000 C 
ENDROOT
BRANCH   1  15
ATOM     12  C   UNL     1       1.355   9.304  18.775  0.00  0.00    +0.000 A 
ATOM     13  C   UNL     1       1.860   8.935  17.526  0.00  0.00    +0.000 A 
ATOM     14  C   UNL     1       2.632   7.797  17.370  0.00  0.00    +0.000 A 
ATOM     15  C   UNL     1       2.857   6.960  18.465  0.00  0.00    +0.000 A 
ATOM     16  C   UNL     1       2.383   7.316  19.727  0.00  0.00    +0.000 A 
ATOM     17  C   UNL     1       1.647   8.484  19.876  0.00  0.00    +0.000 A 
BRANCH  12  18
ATOM     18  N   UNL     1       0.587  10.449  18.913  0.00  0.00    +0.000 N 
BRANCH  18  20
ATOM     19  C   UNL     1       2.056  12.435  18.682  0.00  0.00    +0.000 C 
ATOM     20  C   UNL     1       1.155  11.614  19.590  0.00  0.00    +0.000 C 
ENDBRANCH  18  20
BRANCH  18  21
ATOM     21  C   UNL     1      -0.805  10.447  18.473  0.00  0.00    +0.000 C 
ATOM     22  C   UNL     1      -1.550  11.665  19.006  0.00  0.00    +0.000 C 
ENDBRANCH  18  21
ENDBRANCH  12  18
ENDBRANCH   1  15
BRANCH   3  23
ATOM     23  O   UNL     1       1.602   4.038  20.955  0.00  0.00    +0.000 OA
ATOM     24  H   UNL     1       1.538   3.079  21.051  0.00  0.00    +0.000 HD
ENDBRANCH   3  23
BRANCH  11  25
ATOM     25  C   UNL     1       5.660   7.007  17.432  0.00  0.00    +0.000 C 
ATOM     26  O   UNL     1       6.146   8.048  17.837  0.00  0.00    +0.000 OA
BRANCH  25  27
ATOM     27  O   UNL     1       5.717   6.577  16.147  0.00  0.00    +0.000 OA
BRANCH  27  28
ATOM     28  C   UNL     1       6.904   5.883  15.744  0.00  0.00    +0.000 C 
BRANCH  28  29
ATOM     29  C   UNL     1       6.543   4.977  14.562  0.00  0.00    +0.000 C 
BRANCH  29  30
ATOM     30  O   UNL     1       5.309   4.299  14.844  0.00  0.00    +0.000 OA
ATOM     31  C   UNL     1       5.488   3.234  15.767  0.00  0.00    +0.000 C 
ENDBRANCH  29  30
ENDBRANCH  28  29
ENDBRANCH  27  28
ENDBRANCH  25  27
ENDBRANCH  11  25
TORSDOF 10
ENDMDL
