MODEL 1
REMARK VINA RESULT:      -7.0      0.000      0.000
REMARK  Name = 
REMARK  8 active torsions:
REMARK  status: ('A' for Active; 'I' for Inactive)
REMARK    1  A    between atoms: C_1  and  C_2
REMARK    2  A    between atoms: C_2  and  N_3
REMARK    3  A    between atoms: C_5  and  C_6
REMARK    4  A    between atoms: C_7  and  C_8
REMARK    5  A    between atoms: C_8  and  C_9
REMARK    6  A    between atoms: N_11  and  C_12
REMARK    7  A    between atoms: C_12  and  C_13
REMARK    8  A    between atoms: C_21  and  C_22
REMARK                            x       y       z     vdW  Elec       q    Type
REMARK                         _______ _______ _______ _____ _____    ______ ____
ROOT
ATOM      1  C   UNL     1       3.709   3.282  17.785  0.00  0.00    +0.000 C 
ATOM      2  O   UNL     1       4.426   2.597  18.516  0.00  0.00    +0.000 OA
ATOM      3  N   UNL     1       4.183   3.929  16.665  0.00  0.00    +0.000 N 
ATOM      4  H   UNL     1       3.578   4.570  16.168  0.00  0.00    +0.000 HD
ENDROOT
BRANCH   1   5
ATOM      5  C   UNL     1       2.217   3.459  18.045  0.00  0.00    +0.000 C 
BRANCH   5  10
ATOM      6  N   UNL     1       1.705   6.373  20.217  0.00  0.00    +0.000 N 
ATOM      7  N   UNL     1       1.303   5.422  21.076  0.00  0.00    +0.000 NA
ATOM      8  C   UNL     1       1.438   4.279  20.395  0.00  0.00    +0.000 A 
ATOM      9  C   UNL     1       1.059   2.985  21.018  0.00  0.00    +0.000 C 
ATOM     10  C   UNL     1       1.931   4.501  19.077  0.00  0.00    +0.000 A 
ATOM     11  C   UNL     1       2.012   5.883  18.970  0.00  0.00    +0.000 A 
ATOM     12  C   UNL     1       2.353   6.758  17.820  0.00  0.00    +0.000 C 
BRANCH   6  14
ATOM     13  C   UNL     1       0.547   8.298  21.276  0.00  0.00    +0.000 C 
ATOM     14  C   UNL     1       1.831   7.742  20.687  0.00  0.00    +0.000 C 
ENDBRANCH   6  14
ENDBRANCH   5  10
ENDBRANCH   1   5
BRANCH   3  15
ATOM     15  C   UNL     1       5.578   3.880  16.279  0.00  0.00    +0.000 C 
BRANCH  15  16
ATOM     16  C   UNL     1       6.405   4.970  16.922  0.00  0.00    +0.000 A 
ATOM     17  C   UNL     1       7.358   4.617  17.898  0.00  0.00    +0.000 A 
ATOM     18  C   UNL     1       8.105   5.596  18.560  0.00  0.00    +0.000 A 
ATOM     19  C   UNL     1       7.912   6.933  18.242  0.00  0.00    +0.000 A 
ATOM     20  F   UNL     1       8.614   7.875  18.889  0.00  0.00    +0.000 F 
ATOM     21  C   UNL     1       6.998   7.309  17.268  0.00  0.00    +0.000 A 
ATOM     22  C   UNL     1       6.253   6.332  16.604  0.00  0.00    +0.000 A 
ATOM     23 CL   UNL     1       5.147   6.865  15.387  0.00  0.00    +0.000 Cl
ENDBRANCH  15  16
ENDBRANCH   3  15
TORSDOF 5
ENDMDL
MODEL 2
REMARK VINA RESULT:      -6.6      3.595      6.435
REMARK  Name = 
REMARK  8 active torsions:
REMARK  status: ('A' for Active; 'I' for Inactive)
REMARK    1  A    between atoms: C_1  and  C_2
REMARK    2  A    between atoms: C_2  and  N_3
REMARK    3  A    between atoms: C_5  and  C_6
REMARK    4  A    between atoms: C_7  and  C_8
REMARK    5  A    between atoms: C_8  and  C_9
REMARK    6  A    between atoms: N_11  and  C_12
REMARK    7  A    between atoms: C_12  and  C_13
REMARK    8  A    between atoms: C_21  and  C_22
REMARK                            x       y       z     vdW  Elec       q    Type
REMARK                         _______ _______ _______ _____ _____    ______ ____
ROOT
ATOM      1  C   UNL     1       1.795   5.335  19.821  0.00  0.00    +0.000 C 
ATOM      2  O   UNL     1       1.247   4.694  20.718  0.00  0.00    +0.000 OA
ATOM      3  N   UNL     1       1.967   6.700  19.874  0.00  0.00    +0.000 N 
ATOM      4  H   UNL     1       2.318   7.189  19.060  0.00  0.00    +0.000 HD
ENDROOT
BRANCH   1   5
ATOM      5  C   UNL     1       2.356   4.666  18.570  0.00  0.00    +0.000 C 
BRANCH   5  10
ATOM      6  N   UNL     1       5.957   5.207  18.116  0.00  0.00    +0.000 N 
ATOM      7  N   UNL     1       6.025   4.089  18.857  0.00  0.00    +0.000 NA
ATOM      8  C   UNL     1       4.748   3.776  19.103  0.00  0.00    +0.000 A 
ATOM      9  C   UNL     1       4.414   2.590  19.934  0.00  0.00    +0.000 C 
ATOM     10  C   UNL     1       3.848   4.709  18.514  0.00  0.00    +0.000 A 
ATOM     11  C   UNL     1       4.674   5.672  17.952  0.00  0.00    +0.000 A 
ATOM     12  C   UNL     1       4.363   6.961  17.283  0.00  0.00    +0.000 C 
BRANCH   6  14
ATOM     13  C   UNL     1       7.916   6.693  18.467  0.00  0.00    +0.000 C 
ATOM     14  C   UNL     1       7.177   5.747  17.538  0.00  0.00    +0.000 C 
ENDBRANCH   6  14
ENDBRANCH   5  10
ENDBRANCH   1   5
BRANCH   3  15
ATOM     15  C   UNL     1       1.483   7.496  20.983  0.00  0.00    +0.000 C 
BRANCH  15  16
ATOM     16  C   UNL     1       1.083   8.896  20.572  0.00  0.00    +0.000 A 
ATOM     17  C   UNL     1       1.266   9.291  19.233  0.00  0.00    +0.000 A 
ATOM     18  C   UNL     1       0.964  10.592  18.820  0.00  0.00    +0.000 A 
ATOM     19  C   UNL     1       0.467  11.502  19.741  0.00  0.00    +0.000 A 
ATOM     20  F   UNL     1       0.195  12.756  19.352  0.00  0.00    +0.000 F 
ATOM     21  C   UNL     1       0.254  11.134  21.062  0.00  0.00    +0.000 A 
ATOM     22  C   UNL     1       0.553   9.834  21.476  0.00  0.00    +0.000 A 
ATOM     23 CL   UNL     1       0.245   9.434  23.128  0.00  0.00    +0.000 Cl
ENDBRANCH  15  16
ENDBRANCH   3  15
TORSDOF 5
ENDMDL
MODEL 3
REMARK VINA RESULT:      -6.6      3.410      4.963
REMARK  Name = 
REMARK  8 active torsions:
REMARK  status: ('A' for Active; 'I' for Inactive)
REMARK    1  A    between atoms: C_1  and  C_2
REMARK    2  A    between atoms: C_2  and  N_3
REMARK    3  A    between atoms: C_5  and  C_6
REMARK    4  A    between atoms: C_7  and  C_8
REMARK    5  A    between atoms: C_8  and  C_9
REMARK    6  A    between atoms: N_11  and  C_12
REMARK    7  A    between atoms: C_12  and  C_13
REMARK    8  A    between atoms: C_21  and  C_22
REMARK                            x       y       z     vdW  Elec       q    Type
REMARK                         _______ _______ _______ _____ _____    ______ ____
ROOT
ATOM      1  C   UNL     1       6.866   5.823  18.109  0.00  0.00    +0.000 C 
ATOM      2  O   UNL     1       7.835   6.566  18.263  0.00  0.00    +0.000 OA
ATOM      3  N   UNL     1       6.546   5.251  16.897  0.00  0.00    +0.000 N 
ATOM      4  H   UNL     1       5.675   4.744  16.801  0.00  0.00    +0.000 HD
ENDROOT
BRANCH   1   5
ATOM      5  C   UNL     1       5.938   5.449  19.259  0.00  0.00    +0.000 C 
BRANCH   5  10
ATOM      6  N   UNL     1       2.811   3.783  18.301  0.00  0.00    +0.000 N 
ATOM      7  N   UNL     1       2.540   4.999  17.799  0.00  0.00    +0.000 NA
ATOM      8  C   UNL     1       3.624   5.728  18.090  0.00  0.00    +0.000 A 
ATOM      9  C   UNL     1       3.686   7.163  17.711  0.00  0.00    +0.000 C 
ATOM     10  C   UNL     1       4.603   4.968  18.790  0.00  0.00    +0.000 A 
ATOM     11  C   UNL     1       4.002   3.731  18.983  0.00  0.00    +0.000 A 
ATOM     12  C   UNL     1       4.450   2.530  19.734  0.00  0.00    +0.000 C 
BRANCH   6  14
ATOM     13  C   UNL     1       0.791   2.554  19.061  0.00  0.00    +0.000 C 
ATOM     14  C   UNL     1       1.896   2.687  18.028  0.00  0.00    +0.000 C 
ENDBRANCH   6  14
ENDBRANCH   5  10
ENDBRANCH   1   5
BRANCH   3  15
ATOM     15  C   UNL     1       7.312   5.510  15.696  0.00  0.00    +0.000 C 
BRANCH  15  16
ATOM     16  C   UNL     1       6.758   4.800  14.480  0.00  0.00    +0.000 A 
ATOM     17  C   UNL     1       5.583   4.036  14.614  0.00  0.00    +0.000 A 
ATOM     18  C   UNL     1       5.066   3.317  13.532  0.00  0.00    +0.000 A 
ATOM     19  C   UNL     1       5.715   3.368  12.307  0.00  0.00    +0.000 A 
ATOM     20  F   UNL     1       5.232   2.664  11.273  0.00  0.00    +0.000 F 
ATOM     21  C   UNL     1       6.861   4.131  12.139  0.00  0.00    +0.000 A 
ATOM     22  C   UNL     1       7.378   4.852  13.219  0.00  0.00    +0.000 A 
ATOM     23 CL   UNL     1       8.795   5.799  12.937  0.00  0.00    +0.000 Cl
ENDBRANCH  15  16
ENDBRANCH   3  15
TORSDOF 5
ENDMDL
MODEL 4
REMARK VINA RESULT:      -6.6      3.993      6.069
REMARK  Name = 
REMARK  8 active torsions:
REMARK  status: ('A' for Active; 'I' for Inactive)
REMARK    1  A    between atoms: C_1  and  C_2
REMARK    2  A    between atoms: C_2  and  N_3
REMARK    3  A    between atoms: C_5  and  C_6
REMARK    4  A    between atoms: C_7  and  C_8
REMARK    5  A    between atoms: C_8  and  C_9
REMARK    6  A    between atoms: N_11  and  C_12
REMARK    7  A    between atoms: C_12  and  C_13
REMARK    8  A    between atoms: C_21  and  C_22
REMARK                            x       y       z     vdW  Elec       q    Type
REMARK                         _______ _______ _______ _____ _____    ______ ____
ROOT
ATOM      1  C   UNL     1       1.501   9.577  18.060  0.00  0.00    +0.000 C 
ATOM      2  O   UNL     1       2.355  10.457  17.949  0.00  0.00    +0.000 OA
ATOM      3  N   UNL     1       1.806   8.234  18.065  0.00  0.00    +0.000 N 
ATOM      4  H   UNL     1       1.057   7.554  18.041  0.00  0.00    +0.000 HD
ENDROOT
BRANCH   1   5
ATOM      5  C   UNL     1       0.019   9.898  18.223  0.00  0.00    +0.000 C 
BRANCH   5  10
ATOM      6  N   UNL     1      -0.695  11.326  21.528  0.00  0.00    +0.000 N 
ATOM      7  N   UNL     1      -0.713  12.467  20.820  0.00  0.00    +0.000 NA
ATOM      8  C   UNL     1      -0.457  12.083  19.564  0.00  0.00    +0.000 A 
ATOM      9  C   UNL     1      -0.368  13.090  18.476  0.00  0.00    +0.000 C 
ATOM     10  C   UNL     1      -0.269  10.675  19.466  0.00  0.00    +0.000 A 
ATOM     11  C   UNL     1      -0.347  10.228  20.778  0.00  0.00    +0.000 A 
ATOM     12  C   UNL     1      -0.133   8.882  21.369  0.00  0.00    +0.000 C 
BRANCH   6  14
ATOM     13  C   UNL     1      -2.464  11.955  23.153  0.00  0.00    +0.000 C 
ATOM     14  C   UNL     1      -1.088  11.356  22.927  0.00  0.00    +0.000 C 
ENDBRANCH   6  14
ENDBRANCH   5  10
ENDBRANCH   1   5
BRANCH   3  15
ATOM     15  C   UNL     1       3.162   7.751  17.906  0.00  0.00    +0.000 C 
BRANCH  15  16
ATOM     16  C   UNL     1       3.235   6.249  17.737  0.00  0.00    +0.000 A 
ATOM     17  C   UNL     1       2.189   5.455  18.244  0.00  0.00    +0.000 A 
ATOM     18  C   UNL     1       2.241   4.060  18.162  0.00  0.00    +0.000 A 
ATOM     19  C   UNL     1       3.334   3.452  17.562  0.00  0.00    +0.000 A 
ATOM     20  F   UNL     1       3.395   2.114  17.499  0.00  0.00    +0.000 F 
ATOM     21  C   UNL     1       4.368   4.210  17.032  0.00  0.00    +0.000 A 
ATOM     22  C   UNL     1       4.317   5.604  17.111  0.00  0.00    +0.000 A 
ATOM     23 CL   UNL     1       5.627   6.489  16.414  0.00  0.00    +0.000 Cl
ENDBRANCH  15  16
ENDBRANCH   3  15
TORSDOF 5
ENDMDL
MODEL 5
REMARK VINA RESULT:      -6.5      2.979      5.598
REMARK  Name = 
REMARK  8 active torsions:
REMARK  status: ('A' for Active; 'I' for Inactive)
REMARK    1  A    between atoms: C_1  and  C_2
REMARK    2  A    between atoms: C_2  and  N_3
REMARK    3  A    between atoms: C_5  and  C_6
REMARK    4  A    between atoms: C_7  and  C_8
REMARK    5  A    between atoms: C_8  and  C_9
REMARK    6  A    between atoms: N_11  and  C_12
REMARK    7  A    between atoms: C_12  and  C_13
REMARK    8  A    between atoms: C_21  and  C_22
REMARK                            x       y       z     vdW  Elec       q    Type
REMARK                         _______ _______ _______ _____ _____    ______ ____
ROOT
ATOM      1  C   UNL     1       2.825   4.008  20.975  0.00  0.00    +0.000 C 
ATOM      2  O   UNL     1       2.119   3.643  21.914  0.00  0.00    +0.000 OA
ATOM      3  N   UNL     1       2.745   5.268  20.423  0.00  0.00    +0.000 N 
ATOM      4  H   UNL     1       3.265   5.475  19.580  0.00  0.00    +0.000 HD
ENDROOT
BRANCH   1   5
ATOM      5  C   UNL     1       3.876   3.099  20.346  0.00  0.00    +0.000 C 
BRANCH   5  10
ATOM      6  N   UNL     1       5.109   4.444  17.161  0.00  0.00    +0.000 N 
ATOM      7  N   UNL     1       4.173   3.616  16.669  0.00  0.00    +0.000 NA
ATOM      8  C   UNL     1       3.634   3.042  17.750  0.00  0.00    +0.000 A 
ATOM      9  C   UNL     1       2.561   2.026  17.603  0.00  0.00    +0.000 C 
ATOM     10  C   UNL     1       4.234   3.508  18.955  0.00  0.00    +0.000 A 
ATOM     11  C   UNL     1       5.247   4.355  18.526  0.00  0.00    +0.000 A 
ATOM     12  C   UNL     1       6.305   5.077  19.278  0.00  0.00    +0.000 C 
BRANCH   6  14
ATOM     13  C   UNL     1       5.072   6.668  16.057  0.00  0.00    +0.000 C 
ATOM     14  C   UNL     1       5.797   5.349  16.257  0.00  0.00    +0.000 C 
ENDBRANCH   6  14
ENDBRANCH   5  10
ENDBRANCH   1   5
BRANCH   3  15
ATOM     15  C   UNL     1       1.792   6.254  20.888  0.00  0.00    +0.000 C 
BRANCH  15  16
ATOM     16  C   UNL     1       1.741   7.484  20.008  0.00  0.00    +0.000 A 
ATOM     17  C   UNL     1       2.386   7.453  18.757  0.00  0.00    +0.000 A 
ATOM     18  C   UNL     1       2.414   8.584  17.935  0.00  0.00    +0.000 A 
ATOM     19  C   UNL     1       1.787   9.748  18.354  0.00  0.00    +0.000 A 
ATOM     20  F   UNL     1       1.829  10.839  17.576  0.00  0.00    +0.000 F 
ATOM     21  C   UNL     1       1.123   9.800  19.571  0.00  0.00    +0.000 A 
ATOM     22  C   UNL     1       1.092   8.670  20.393  0.00  0.00    +0.000 A 
ATOM     23 CL   UNL     1       0.230   8.796  21.885  0.00  0.00    +0.000 Cl
ENDBRANCH  15  16
ENDBRANCH   3  15
TORSDOF 5
ENDMDL
MODEL 6
REMARK VINA RESULT:      -6.5      3.656      7.268
REMARK  Name = 
REMARK  8 active torsions:
REMARK  status: ('A' for Active; 'I' for Inactive)
REMARK    1  A    between atoms: C_1  and  C_2
REMARK    2  A    between atoms: C_2  and  N_3
REMARK    3  A    between atoms: C_5  and  C_6
REMARK    4  A    between atoms: C_7  and  C_8
REMARK    5  A    between atoms: C_8  and  C_9
REMARK    6  A    between atoms: N_11  and  C_12
REMARK    7  A    between atoms: C_12  and  C_13
REMARK    8  A    between atoms: C_21  and  C_22
REMARK                            x       y       z     vdW  Elec       q    Type
REMARK                         _______ _______ _______ _____ _____    ______ ____
ROOT
ATOM      1  C   UNL     1       2.940   7.266  18.558  0.00  0.00    +0.000 C 
ATOM      2  O   UNL     1       3.200   7.748  17.455  0.00  0.00    +0.000 OA
ATOM      3  N   UNL     1       2.050   7.843  19.436  0.00  0.00    +0.000 N 
ATOM      4  H   UNL     1       1.962   7.468  20.372  0.00  0.00    +0.000 HD
ENDROOT
BRANCH   1   5
ATOM      5  C   UNL     1       3.569   5.964  19.044  0.00  0.00    +0.000 C 
BRANCH   5  10
ATOM      6  N   UNL     1       5.717   4.517  16.444  0.00  0.00    +0.000 N 
ATOM      7  N   UNL     1       4.666   3.694  16.302  0.00  0.00    +0.000 NA
ATOM      8  C   UNL     1       3.786   4.117  17.217  0.00  0.00    +0.000 A 
ATOM      9  C   UNL     1       2.484   3.422  17.383  0.00  0.00    +0.000 C 
ATOM     10  C   UNL     1       4.282   5.227  17.958  0.00  0.00    +0.000 A 
ATOM     11  C   UNL     1       5.575   5.404  17.485  0.00  0.00    +0.000 A 
ATOM     12  C   UNL     1       6.659   6.323  17.916  0.00  0.00    +0.000 C 
BRANCH   6  14
ATOM     13  C   UNL     1       6.362   4.095  14.084  0.00  0.00    +0.000 C 
ATOM     14  C   UNL     1       6.812   4.435  15.493  0.00  0.00    +0.000 C 
ENDBRANCH   6  14
ENDBRANCH   5  10
ENDBRANCH   1   5
BRANCH   3  15
ATOM     15  C   UNL     1       1.373   9.089  19.141  0.00  0.00    +0.000 C 
BRANCH  15  16
ATOM     16  C   UNL     1       0.632   9.652  20.333  0.00  0.00    +0.000 A 
ATOM     17  C   UNL     1       0.558   8.888  21.513  0.00  0.00    +0.000 A 
ATOM     18  C   UNL     1      -0.164   9.343  22.620  0.00  0.00    +0.000 A 
ATOM     19  C   UNL     1      -0.807  10.571  22.558  0.00  0.00    +0.000 A 
ATOM     20  F   UNL     1      -1.516  11.000  23.612  0.00  0.00    +0.000 F 
ATOM     21  C   UNL     1      -0.732  11.356  21.417  0.00  0.00    +0.000 A 
ATOM     22  C   UNL     1      -0.009  10.904  20.311  0.00  0.00    +0.000 A 
ATOM     23 CL   UNL     1       0.062  11.940  18.930  0.00  0.00    +0.000 Cl
ENDBRANCH  15  16
ENDBRANCH   3  15
TORSDOF 5
ENDMDL
MODEL 7
REMARK VINA RESULT:      -6.5      4.060      5.911
REMARK  Name = 
REMARK  8 active torsions:
REMARK  status: ('A' for Active; 'I' for Inactive)
REMARK    1  A    between atoms: C_1  and  C_2
REMARK    2  A    between atoms: C_2  and  N_3
REMARK    3  A    between atoms: C_5  and  C_6
REMARK    4  A    between atoms: C_7  and  C_8
REMARK    5  A    between atoms: C_8  and  C_9
REMARK    6  A    between atoms: N_11  and  C_12
REMARK    7  A    between atoms: C_12  and  C_13
REMARK    8  A    between atoms: C_21  and  C_22
REMARK                            x       y       z     vdW  Elec       q    Type
REMARK                         _______ _______ _______ _____ _____    ______ ____
ROOT
ATOM      1  C   UNL     1       1.679   9.337  17.998  0.00  0.00    +0.000 C 
ATOM      2  O   UNL     1       2.498  10.113  17.503  0.00  0.00    +0.000 OA
ATOM      3  N   UNL     1       1.953   8.007  18.227  0.00  0.00    +0.000 N 
ATOM      4  H   UNL     1       1.208   7.391  18.527  0.00  0.00    +0.000 HD
ENDROOT
BRANCH   1   5
ATOM      5  C   UNL     1       0.286   9.788  18.423  0.00  0.00    +0.000 C 
BRANCH   5  10
ATOM      6  N   UNL     1       0.303  12.382  21.020  0.00  0.00    +0.000 N 
ATOM      7  N   UNL     1       0.458  11.313  21.818  0.00  0.00    +0.000 NA
ATOM      8  C   UNL     1       0.466  10.271  20.980  0.00  0.00    +0.000 A 
ATOM      9  C   UNL     1       0.594   8.887  21.505  0.00  0.00    +0.000 C 
ATOM     10  C   UNL     1       0.310  10.677  19.624  0.00  0.00    +0.000 A 
ATOM     11  C   UNL     1       0.122  12.051  19.698  0.00  0.00    +0.000 A 
ATOM     12  C   UNL     1      -0.200  13.054  18.651  0.00  0.00    +0.000 C 
BRANCH   6  14
ATOM     13  C   UNL     1      -0.667  14.003  22.632  0.00  0.00    +0.000 C 
ATOM     14  C   UNL     1       0.403  13.713  21.594  0.00  0.00    +0.000 C 
ENDBRANCH   6  14
ENDBRANCH   5  10
ENDBRANCH   1   5
BRANCH   3  15
ATOM     15  C   UNL     1       3.223   7.408  17.870  0.00  0.00    +0.000 C 
BRANCH  15  16
ATOM     16  C   UNL     1       3.136   5.909  17.691  0.00  0.00    +0.000 A 
ATOM     17  C   UNL     1       1.967   5.240  18.104  0.00  0.00    +0.000 A 
ATOM     18  C   UNL     1       1.864   3.849  18.010  0.00  0.00    +0.000 A 
ATOM     19  C   UNL     1       2.925   3.119  17.492  0.00  0.00    +0.000 A 
ATOM     20  F   UNL     1       2.836   1.783  17.420  0.00  0.00    +0.000 F 
ATOM     21  C   UNL     1       4.079   3.753  17.056  0.00  0.00    +0.000 A 
ATOM     22  C   UNL     1       4.182   5.144  17.146  0.00  0.00    +0.000 A 
ATOM     23 CL   UNL     1       5.637   5.872  16.566  0.00  0.00    +0.000 Cl
ENDBRANCH  15  16
ENDBRANCH   3  15
TORSDOF 5
ENDMDL
MODEL 8
REMARK VINA RESULT:      -6.5      4.106      6.274
REMARK  Name = 
REMARK  8 active torsions:
REMARK  status: ('A' for Active; 'I' for Inactive)
REMARK    1  A    between atoms: C_1  and  C_2
REMARK    2  A    between atoms: C_2  and  N_3
REMARK    3  A    between atoms: C_5  and  C_6
REMARK    4  A    between atoms: C_7  and  C_8
REMARK    5  A    between atoms: C_8  and  C_9
REMARK    6  A    between atoms: N_11  and  C_12
REMARK    7  A    between atoms: C_12  and  C_13
REMARK    8  A    between atoms: C_21  and  C_22
REMARK                            x       y       z     vdW  Elec       q    Type
REMARK                         _______ _______ _______ _____ _____    ______ ____
ROOT
ATOM      1  C   UNL     1       0.706   8.177  21.373  0.00  0.00    +0.000 C 
ATOM      2  O   UNL     1      -0.404   7.739  21.677  0.00  0.00    +0.000 OA
ATOM      3  N   UNL     1       1.738   7.371  20.945  0.00  0.00    +0.000 N 
ATOM      4  H   UNL     1       2.660   7.768  20.821  0.00  0.00    +0.000 HD
ENDROOT
BRANCH   1   5
ATOM      5  C   UNL     1       1.034   9.666  21.423  0.00  0.00    +0.000 C 
BRANCH   5  10
ATOM      6  N   UNL     1      -1.171  11.526  19.154  0.00  0.00    +0.000 N 
ATOM      7  N   UNL     1      -1.661  11.987  20.316  0.00  0.00    +0.000 NA
ATOM      8  C   UNL     1      -0.931  11.371  21.253  0.00  0.00    +0.000 A 
ATOM      9  C   UNL     1      -1.203  11.611  22.693  0.00  0.00    +0.000 C 
ATOM     10  C   UNL     1       0.040  10.500  20.683  0.00  0.00    +0.000 A 
ATOM     11  C   UNL     1      -0.203  10.563  19.317  0.00  0.00    +0.000 A 
ATOM     12  C   UNL     1       0.391   9.815  18.180  0.00  0.00    +0.000 C 
BRANCH   6  14
ATOM     13  C   UNL     1      -2.855  11.401  17.334  0.00  0.00    +0.000 C 
ATOM     14  C   UNL     1      -1.641  12.108  17.908  0.00  0.00    +0.000 C 
ENDBRANCH   6  14
ENDBRANCH   5  10
ENDBRANCH   1   5
BRANCH   3  15
ATOM     15  C   UNL     1       1.604   5.931  20.853  0.00  0.00    +0.000 C 
BRANCH  15  16
ATOM     16  C   UNL     1       2.297   5.353  19.638  0.00  0.00    +0.000 A 
ATOM     17  C   UNL     1       3.308   6.105  19.009  0.00  0.00    +0.000 A 
ATOM     18  C   UNL     1       3.936   5.636  17.851  0.00  0.00    +0.000 A 
ATOM     19  C   UNL     1       3.565   4.408  17.322  0.00  0.00    +0.000 A 
ATOM     20  F   UNL     1       4.152   3.965  16.202  0.00  0.00    +0.000 F 
ATOM     21  C   UNL     1       2.588   3.636  17.935  0.00  0.00    +0.000 A 
ATOM     22  C   UNL     1       1.961   4.101  19.093  0.00  0.00    +0.000 A 
ATOM     23 CL   UNL     1       0.770   3.081  19.818  0.00  0.00    +0.000 Cl
ENDBRANCH  15  16
ENDBRANCH   3  15
TORSDOF 5
ENDMDL
MODEL 9
REMARK VINA RESULT:      -6.4      3.740      7.299
REMARK  Name = 
REMARK  8 active torsions:
REMARK  status: ('A' for Active; 'I' for Inactive)
REMARK    1  A    between atoms: C_1  and  C_2
REMARK    2  A    between atoms: C_2  and  N_3
REMARK    3  A    between atoms: C_5  and  C_6
REMARK    4  A    between atoms: C_7  and  C_8
REMARK    5  A    between atoms: C_8  and  C_9
REMARK    6  A    between atoms: N_11  and  C_12
REMARK    7  A    between atoms: C_12  and  C_13
REMARK    8  A    between atoms: C_21  and  C_22
REMARK                            x       y       z     vdW  Elec       q    Type
REMARK                         _______ _______ _______ _____ _____    ______ ____
ROOT
ATOM      1  C   UNL     1       6.413   5.840  16.501  0.00  0.00    +0.000 C 
ATOM      2  O   UNL     1       5.710   6.780  16.130  0.00  0.00    +0.000 OA
ATOM      3  N   UNL     1       6.210   5.179  17.692  0.00  0.00    +0.000 N 
ATOM      4  H   UNL     1       6.887   4.492  18.001  0.00  0.00    +0.000 HD
ENDROOT
BRANCH   1   5
ATOM      5  C   UNL     1       7.567   5.306  15.660  0.00  0.00    +0.000 C 
BRANCH   5  10
ATOM      6  N   UNL     1       6.105   3.656  12.725  0.00  0.00    +0.000 N 
ATOM      7  N   UNL     1       7.045   4.375  12.091  0.00  0.00    +0.000 NA
ATOM      8  C   UNL     1       7.667   5.045  13.067  0.00  0.00    +0.000 A 
ATOM      9  C   UNL     1       8.772   5.985  12.746  0.00  0.00    +0.000 C 
ATOM     10  C   UNL     1       7.116   4.754  14.347  0.00  0.00    +0.000 A 
ATOM     11  C   UNL     1       6.046   3.911  14.074  0.00  0.00    +0.000 A 
ATOM     12  C   UNL     1       5.003   3.335  14.960  0.00  0.00    +0.000 C 
BRANCH   6  14
ATOM     13  C   UNL     1       4.109   3.281  11.297  0.00  0.00    +0.000 C 
ATOM     14  C   UNL     1       5.331   2.684  11.972  0.00  0.00    +0.000 C 
ENDBRANCH   6  14
ENDBRANCH   5  10
ENDBRANCH   1   5
BRANCH   3  15
ATOM     15  C   UNL     1       5.167   5.564  18.620  0.00  0.00    +0.000 C 
BRANCH  15  16
ATOM     16  C   UNL     1       3.972   4.638  18.580  0.00  0.00    +0.000 A 
ATOM     17  C   UNL     1       4.169   3.261  18.798  0.00  0.00    +0.000 A 
ATOM     18  C   UNL     1       3.104   2.360  18.713  0.00  0.00    +0.000 A 
ATOM     19  C   UNL     1       1.832   2.832  18.422  0.00  0.00    +0.000 A 
ATOM     20  F   UNL     1       0.812   1.968  18.322  0.00  0.00    +0.000 F 
ATOM     21  C   UNL     1       1.603   4.186  18.227  0.00  0.00    +0.000 A 
ATOM     22  C   UNL     1       2.667   5.089  18.313  0.00  0.00    +0.000 A 
ATOM     23 CL   UNL     1       2.310   6.763  18.080  0.00  0.00    +0.000 Cl
ENDBRANCH  15  16
ENDBRANCH   3  15
TORSDOF 5
ENDMDL
