MODEL 1
REMARK VINA RESULT:      -3.8      0.000      0.000
REMARK  Name = 
REMARK  9 active torsions:
REMARK  status: ('A' for Active; 'I' for Inactive)
REMARK    1  A    between atoms: C_1  and  C_2
REMARK    2  A    between atoms: C_2  and  O_3
REMARK    3  A    between atoms: O_3  and  C_4
REMARK    4  A    between atoms: C_4  and  C_5
REMARK    5  A    between atoms: C_5  and  O_6
REMARK    6  A    between atoms: O_6  and  C_7
REMARK    7  A    between atoms: C_7  and  C_8
REMARK    8  A    between atoms: C_8  and  N_9
REMARK    9  A    between atoms: N_9  and  C_10
REMARK                            x       y       z     vdW  Elec       q    Type
REMARK                         _______ _______ _______ _____ _____    ______ ____
ROOT
ATOM      1  O   UNL     1       5.169   3.145  19.563  0.00  0.00    +0.000 OA
ENDROOT
BRANCH   1   2
ATOM      2  C   UNL     1       3.991   2.420  19.905  0.00  0.00    +0.000 C 
BRANCH   2   3
ATOM      3  C   UNL     1       2.908   3.405  20.329  0.00  0.00    +0.000 C 
BRANCH   3   4
ATOM      4  O   UNL     1       1.654   2.985  19.792  0.00  0.00    +0.000 OA
BRANCH   4   6
ATOM      5  C   UNL     1       1.523   4.185  17.736  0.00  0.00    +0.000 C 
ATOM      6  C   UNL     1       1.721   2.826  18.376  0.00  0.00    +0.000 C 
ENDBRANCH   4   6
ENDBRANCH   3   4
ENDBRANCH   2   3
ENDBRANCH   1   2
BRANCH   1   7
ATOM      7  C   UNL     1       4.899   4.530  19.341  0.00  0.00    +0.000 C 
BRANCH   7   8
ATOM      8  C   UNL     1       6.189   5.257  18.931  0.00  0.00    +0.000 C 
BRANCH   8   9
ATOM      9  N   UNL     1       7.150   4.350  18.290  0.00  0.00    +0.000 NA
ATOM     10  C   UNL     1       7.244   4.594  16.860  0.00  0.00    +0.000 C 
ATOM     11  H   UNL     1       6.891   3.382  18.467  0.00  0.00    +0.000 HD
ENDBRANCH   8   9
ENDBRANCH   7   8
ENDBRANCH   1   7
TORSDOF 7
ENDMDL
MODEL 2
REMARK VINA RESULT:      -3.8      3.018      5.129
REMARK  Name = 
REMARK  9 active torsions:
REMARK  status: ('A' for Active; 'I' for Inactive)
REMARK    1  A    between atoms: C_1  and  C_2
REMARK    2  A    between atoms: C_2  and  O_3
REMARK    3  A    between atoms: O_3  and  C_4
REMARK    4  A    between atoms: C_4  and  C_5
REMARK    5  A    between atoms: C_5  and  O_6
REMARK    6  A    between atoms: O_6  and  C_7
REMARK    7  A    between atoms: C_7  and  C_8
REMARK    8  A    between atoms: C_8  and  N_9
REMARK    9  A    between atoms: N_9  and  C_10
REMARK                            x       y       z     vdW  Elec       q    Type
REMARK                         _______ _______ _______ _____ _____    ______ ____
ROOT
ATOM      1  O   UNL     1       2.317   2.787  17.276  0.00  0.00    +0.000 OA
ENDROOT
BRANCH   1   2
ATOM      2  C   UNL     1       3.626   2.543  17.782  0.00  0.00    +0.000 C 
BRANCH   2   3
ATOM      3  C   UNL     1       4.462   3.808  17.627  0.00  0.00    +0.000 C 
BRANCH   3   4
ATOM      4  O   UNL     1       4.634   4.090  16.238  0.00  0.00    +0.000 OA
BRANCH   4   6
ATOM      5  C   UNL     1       6.069   4.010  14.334  0.00  0.00    +0.000 C 
ATOM      6  C   UNL     1       6.001   3.970  15.848  0.00  0.00    +0.000 C 
ENDBRANCH   4   6
ENDBRANCH   3   4
ENDBRANCH   2   3
ENDBRANCH   1   2
BRANCH   1   7
ATOM      7  C   UNL     1       1.553   3.619  18.151  0.00  0.00    +0.000 C 
BRANCH   7   8
ATOM      8  C   UNL     1       0.776   2.752  19.155  0.00  0.00    +0.000 C 
BRANCH   8   9
ATOM      9  N   UNL     1       0.675   3.395  20.472  0.00  0.00    +0.000 NA
ATOM     10  C   UNL     1       1.516   2.733  21.455  0.00  0.00    +0.000 C 
ATOM     11  H   UNL     1      -0.294   3.405  20.784  0.00  0.00    +0.000 HD
ENDBRANCH   8   9
ENDBRANCH   7   8
ENDBRANCH   1   7
TORSDOF 7
ENDMDL
MODEL 3
REMARK VINA RESULT:      -3.7      2.725      5.248
REMARK  Name = 
REMARK  9 active torsions:
REMARK  status: ('A' for Active; 'I' for Inactive)
REMARK    1  A    between atoms: C_1  and  C_2
REMARK    2  A    between atoms: C_2  and  O_3
REMARK    3  A    between atoms: O_3  and  C_4
REMARK    4  A    between atoms: C_4  and  C_5
REMARK    5  A    between atoms: C_5  and  O_6
REMARK    6  A    between atoms: O_6  and  C_7
REMARK    7  A    between atoms: C_7  and  C_8
REMARK    8  A    between atoms: C_8  and  N_9
REMARK    9  A    between atoms: N_9  and  C_10
REMARK                            x       y       z     vdW  Elec       q    Type
REMARK                         _______ _______ _______ _____ _____    ______ ____
ROOT
ATOM      1  O   UNL     1       6.336   4.917  19.699  0.00  0.00    +0.000 OA
ENDROOT
BRANCH   1   2
ATOM      2  C   UNL     1       7.409   5.607  19.065  0.00  0.00    +0.000 C 
BRANCH   2   3
ATOM      3  C   UNL     1       7.373   5.313  17.570  0.00  0.00    +0.000 C 
BRANCH   3   4
ATOM      4  O   UNL     1       7.638   6.516  16.848  0.00  0.00    +0.000 OA
BRANCH   4   6
ATOM      5  C   UNL     1       8.056   8.696  17.721  0.00  0.00    +0.000 C 
ATOM      6  C   UNL     1       7.002   7.639  17.457  0.00  0.00    +0.000 C 
ENDBRANCH   4   6
ENDBRANCH   3   4
ENDBRANCH   2   3
ENDBRANCH   1   2
BRANCH   1   7
ATOM      7  C   UNL     1       5.401   4.398  18.752  0.00  0.00    +0.000 C 
BRANCH   7   8
ATOM      8  C   UNL     1       4.539   3.307  19.410  0.00  0.00    +0.000 C 
BRANCH   8   9
ATOM      9  N   UNL     1       4.285   2.184  18.498  0.00  0.00    +0.000 NA
ATOM     10  C   UNL     1       2.957   2.261  17.912  0.00  0.00    +0.000 C 
ATOM     11  H   UNL     1       4.406   1.300  18.987  0.00  0.00    +0.000 HD
ENDBRANCH   8   9
ENDBRANCH   7   8
ENDBRANCH   1   7
TORSDOF 7
ENDMDL
MODEL 4
REMARK VINA RESULT:      -3.7      1.584      1.830
REMARK  Name = 
REMARK  9 active torsions:
REMARK  status: ('A' for Active; 'I' for Inactive)
REMARK    1  A    between atoms: C_1  and  C_2
REMARK    2  A    between atoms: C_2  and  O_3
REMARK    3  A    between atoms: O_3  and  C_4
REMARK    4  A    between atoms: C_4  and  C_5
REMARK    5  A    between atoms: C_5  and  O_6
REMARK    6  A    between atoms: O_6  and  C_7
REMARK    7  A    between atoms: C_7  and  C_8
REMARK    8  A    between atoms: C_8  and  N_9
REMARK    9  A    between atoms: N_9  and  C_10
REMARK                            x       y       z     vdW  Elec       q    Type
REMARK                         _______ _______ _______ _____ _____    ______ ____
ROOT
ATOM      1  O   UNL     1       5.910   4.198  19.029  0.00  0.00    +0.000 OA
ENDROOT
BRANCH   1   2
ATOM      2  C   UNL     1       4.749   3.478  19.431  0.00  0.00    +0.000 C 
BRANCH   2   3
ATOM      3  C   UNL     1       3.746   3.472  18.283  0.00  0.00    +0.000 C 
BRANCH   3   4
ATOM      4  O   UNL     1       2.733   2.502  18.549  0.00  0.00    +0.000 OA
BRANCH   4   6
ATOM      5  C   UNL     1       1.561   4.390  17.682  0.00  0.00    +0.000 C 
ATOM      6  C   UNL     1       1.428   3.055  18.388  0.00  0.00    +0.000 C 
ENDBRANCH   4   6
ENDBRANCH   3   4
ENDBRANCH   2   3
ENDBRANCH   1   2
BRANCH   1   7
ATOM      7  C   UNL     1       5.790   4.707  17.700  0.00  0.00    +0.000 C 
BRANCH   7   8
ATOM      8  C   UNL     1       7.174   4.764  17.033  0.00  0.00    +0.000 C 
BRANCH   8   9
ATOM      9  N   UNL     1       7.460   6.093  16.475  0.00  0.00    +0.000 NA
ATOM     10  C   UNL     1       7.354   7.131  17.486  0.00  0.00    +0.000 C 
ATOM     11  H   UNL     1       6.832   6.290  15.699  0.00  0.00    +0.000 HD
ENDBRANCH   8   9
ENDBRANCH   7   8
ENDBRANCH   1   7
TORSDOF 7
ENDMDL
MODEL 5
REMARK VINA RESULT:      -3.7      1.615      2.263
REMARK  Name = 
REMARK  9 active torsions:
REMARK  status: ('A' for Active; 'I' for Inactive)
REMARK    1  A    between atoms: C_1  and  C_2
REMARK    2  A    between atoms: C_2  and  O_3
REMARK    3  A    between atoms: O_3  and  C_4
REMARK    4  A    between atoms: C_4  and  C_5
REMARK    5  A    between atoms: C_5  and  O_6
REMARK    6  A    between atoms: O_6  and  C_7
REMARK    7  A    between atoms: C_7  and  C_8
REMARK    8  A    between atoms: C_8  and  N_9
REMARK    9  A    between atoms: N_9  and  C_10
REMARK                            x       y       z     vdW  Elec       q    Type
REMARK                         _______ _______ _______ _____ _____    ______ ____
ROOT
ATOM      1  O   UNL     1       6.605   4.856  19.434  0.00  0.00    +0.000 OA
ENDROOT
BRANCH   1   2
ATOM      2  C   UNL     1       5.202   4.955  19.209  0.00  0.00    +0.000 C 
BRANCH   2   3
ATOM      3  C   UNL     1       4.589   3.561  19.276  0.00  0.00    +0.000 C 
BRANCH   3   4
ATOM      4  O   UNL     1       3.201   3.672  19.591  0.00  0.00    +0.000 OA
BRANCH   4   6
ATOM      5  C   UNL     1       2.547   2.218  17.818  0.00  0.00    +0.000 C 
ATOM      6  C   UNL     1       2.505   2.458  19.313  0.00  0.00    +0.000 C 
ENDBRANCH   4   6
ENDBRANCH   3   4
ENDBRANCH   2   3
ENDBRANCH   1   2
BRANCH   1   7
ATOM      7  C   UNL     1       7.357   5.537  18.428  0.00  0.00    +0.000 C 
BRANCH   7   8
ATOM      8  C   UNL     1       7.386   4.700  17.139  0.00  0.00    +0.000 C 
BRANCH   8   9
ATOM      9  N   UNL     1       7.402   5.544  15.937  0.00  0.00    +0.000 NA
ATOM     10  C   UNL     1       6.927   4.821  14.769  0.00  0.00    +0.000 C 
ATOM     11  H   UNL     1       8.341   5.903  15.773  0.00  0.00    +0.000 HD
ENDBRANCH   8   9
ENDBRANCH   7   8
ENDBRANCH   1   7
TORSDOF 7
ENDMDL
MODEL 6
REMARK VINA RESULT:      -3.7      2.440      4.795
REMARK  Name = 
REMARK  9 active torsions:
REMARK  status: ('A' for Active; 'I' for Inactive)
REMARK    1  A    between atoms: C_1  and  C_2
REMARK    2  A    between atoms: C_2  and  O_3
REMARK    3  A    between atoms: O_3  and  C_4
REMARK    4  A    between atoms: C_4  and  C_5
REMARK    5  A    between atoms: C_5  and  O_6
REMARK    6  A    between atoms: O_6  and  C_7
REMARK    7  A    between atoms: C_7  and  C_8
REMARK    8  A    between atoms: C_8  and  N_9
REMARK    9  A    between atoms: N_9  and  C_10
REMARK                            x       y       z     vdW  Elec       q    Type
REMARK                         _______ _______ _______ _____ _____    ______ ____
ROOT
ATOM      1  O   UNL     1       5.841   4.300  19.321  0.00  0.00    +0.000 OA
ENDROOT
BRANCH   1   2
ATOM      2  C   UNL     1       6.186   4.961  18.108  0.00  0.00    +0.000 C 
BRANCH   2   3
ATOM      3  C   UNL     1       7.640   4.652  17.769  0.00  0.00    +0.000 C 
BRANCH   3   4
ATOM      4  O   UNL     1       7.765   4.463  16.360  0.00  0.00    +0.000 OA
BRANCH   4   6
ATOM      5  C   UNL     1       6.578   4.294  14.298  0.00  0.00    +0.000 C 
ATOM      6  C   UNL     1       6.616   4.947  15.666  0.00  0.00    +0.000 C 
ENDBRANCH   4   6
ENDBRANCH   3   4
ENDBRANCH   2   3
ENDBRANCH   1   2
BRANCH   1   7
ATOM      7  C   UNL     1       4.676   3.486  19.174  0.00  0.00    +0.000 C 
BRANCH   7   8
ATOM      8  C   UNL     1       3.416   4.366  19.193  0.00  0.00    +0.000 C 
BRANCH   8   9
ATOM      9  N   UNL     1       2.354   3.822  18.338  0.00  0.00    +0.000 NA
ATOM     10  C   UNL     1       2.722   2.530  17.783  0.00  0.00    +0.000 C 
ATOM     11  H   UNL     1       2.134   4.478  17.591  0.00  0.00    +0.000 HD
ENDBRANCH   8   9
ENDBRANCH   7   8
ENDBRANCH   1   7
TORSDOF 7
ENDMDL
MODEL 7
REMARK VINA RESULT:      -3.6      3.015      4.973
REMARK  Name = 
REMARK  9 active torsions:
REMARK  status: ('A' for Active; 'I' for Inactive)
REMARK    1  A    between atoms: C_1  and  C_2
REMARK    2  A    between atoms: C_2  and  O_3
REMARK    3  A    between atoms: O_3  and  C_4
REMARK    4  A    between atoms: C_4  and  C_5
REMARK    5  A    between atoms: C_5  and  O_6
REMARK    6  A    between atoms: O_6  and  C_7
REMARK    7  A    between atoms: C_7  and  C_8
REMARK    8  A    between atoms: C_8  and  N_9
REMARK    9  A    between atoms: N_9  and  C_10
REMARK                            x       y       z     vdW  Elec       q    Type
REMARK                         _______ _______ _______ _____ _____    ______ ____
ROOT
ATOM      1  O   UNL     1       1.270   3.310  17.652  0.00  0.00    +0.000 OA
ENDROOT
BRANCH   1   2
ATOM      2  C   UNL     1       2.310   4.263  17.847  0.00  0.00    +0.000 C 
BRANCH   2   3
ATOM      3  C   UNL     1       3.653   3.595  17.580  0.00  0.00    +0.000 C 
BRANCH   3   4
ATOM      4  O   UNL     1       4.343   4.318  16.560  0.00  0.00    +0.000 OA
BRANCH   4   6
ATOM      5  C   UNL     1       5.129   6.482  15.935  0.00  0.00    +0.000 C 
ATOM      6  C   UNL     1       4.945   5.503  17.078  0.00  0.00    +0.000 C 
ENDBRANCH   4   6
ENDBRANCH   3   4
ENDBRANCH   2   3
ENDBRANCH   1   2
BRANCH   1   7
ATOM      7  C   UNL     1       1.004   2.558  18.837  0.00  0.00    +0.000 C 
BRANCH   7   8
ATOM      8  C   UNL     1       0.730   3.510  20.012  0.00  0.00    +0.000 C 
BRANCH   8   9
ATOM      9  N   UNL     1       1.039   2.888  21.306  0.00  0.00    +0.000 NA
ATOM     10  C   UNL     1       2.469   2.692  21.477  0.00  0.00    +0.000 C 
ATOM     11  H   UNL     1       0.547   2.002  21.396  0.00  0.00    +0.000 HD
ENDBRANCH   8   9
ENDBRANCH   7   8
ENDBRANCH   1   7
TORSDOF 7
ENDMDL
MODEL 8
REMARK VINA RESULT:      -3.6      1.956      2.716
REMARK  Name = 
REMARK  9 active torsions:
REMARK  status: ('A' for Active; 'I' for Inactive)
REMARK    1  A    between atoms: C_1  and  C_2
REMARK    2  A    between atoms: C_2  and  O_3
REMARK    3  A    between atoms: O_3  and  C_4
REMARK    4  A    between atoms: C_4  and  C_5
REMARK    5  A    between atoms: C_5  and  O_6
REMARK    6  A    between atoms: O_6  and  C_7
REMARK    7  A    between atoms: C_7  and  C_8
REMARK    8  A    between atoms: C_8  and  N_9
REMARK    9  A    between atoms: N_9  and  C_10
REMARK                            x       y       z     vdW  Elec       q    Type
REMARK                         _______ _______ _______ _____ _____    ______ ____
ROOT
ATOM      1  O   UNL     1       2.611   1.952  19.223  0.00  0.00    +0.000 OA
ENDROOT
BRANCH   1   2
ATOM      2  C   UNL     1       1.506   2.404  20.000  0.00  0.00    +0.000 C 
BRANCH   2   3
ATOM      3  C   UNL     1       2.020   2.936  21.332  0.00  0.00    +0.000 C 
BRANCH   3   4
ATOM      4  O   UNL     1       2.576   4.237  21.136  0.00  0.00    +0.000 OA
BRANCH   4   6
ATOM      5  C   UNL     1       2.379   6.190  19.781  0.00  0.00    +0.000 C 
ATOM      6  C   UNL     1       1.624   5.127  20.555  0.00  0.00    +0.000 C 
ENDBRANCH   4   6
ENDBRANCH   3   4
ENDBRANCH   2   3
ENDBRANCH   1   2
BRANCH   1   7
ATOM      7  C   UNL     1       2.711   2.651  17.980  0.00  0.00    +0.000 C 
BRANCH   7   8
ATOM      8  C   UNL     1       4.146   3.163  17.781  0.00  0.00    +0.000 C 
BRANCH   8   9
ATOM      9  N   UNL     1       4.856   3.318  19.058  0.00  0.00    +0.000 NA
ATOM     10  C   UNL     1       5.681   4.514  19.069  0.00  0.00    +0.000 C 
ATOM     11  H   UNL     1       5.424   2.494  19.246  0.00  0.00    +0.000 HD
ENDBRANCH   8   9
ENDBRANCH   7   8
ENDBRANCH   1   7
TORSDOF 7
ENDMDL
MODEL 9
REMARK VINA RESULT:      -3.6      1.810      2.369
REMARK  Name = 
REMARK  9 active torsions:
REMARK  status: ('A' for Active; 'I' for Inactive)
REMARK    1  A    between atoms: C_1  and  C_2
REMARK    2  A    between atoms: C_2  and  O_3
REMARK    3  A    between atoms: O_3  and  C_4
REMARK    4  A    between atoms: C_4  and  C_5
REMARK    5  A    between atoms: C_5  and  O_6
REMARK    6  A    between atoms: O_6  and  C_7
REMARK    7  A    between atoms: C_7  and  C_8
REMARK    8  A    between atoms: C_8  and  N_9
REMARK    9  A    between atoms: N_9  and  C_10
REMARK                            x       y       z     vdW  Elec       q    Type
REMARK                         _______ _______ _______ _____ _____    ______ ____
ROOT
ATOM      1  O   UNL     1       3.965   3.617  16.969  0.00  0.00    +0.000 OA
ENDROOT
BRANCH   1   2
ATOM      2  C   UNL     1       3.749   2.702  18.039  0.00  0.00    +0.000 C 
BRANCH   2   3
ATOM      3  C   UNL     1       4.391   3.257  19.305  0.00  0.00    +0.000 C 
BRANCH   3   4
ATOM      4  O   UNL     1       3.367   3.649  20.219  0.00  0.00    +0.000 OA
BRANCH   4   6
ATOM      5  C   UNL     1       1.490   2.723  21.363  0.00  0.00    +0.000 C 
ATOM      6  C   UNL     1       2.175   2.891  20.021  0.00  0.00    +0.000 C 
ENDBRANCH   4   6
ENDBRANCH   3   4
ENDBRANCH   2   3
ENDBRANCH   1   2
BRANCH   1   7
ATOM      7  C   UNL     1       5.126   4.422  17.181  0.00  0.00    +0.000 C 
BRANCH   7   8
ATOM      8  C   UNL     1       6.144   4.180  16.054  0.00  0.00    +0.000 C 
BRANCH   8   9
ATOM      9  N   UNL     1       7.492   4.626  16.428  0.00  0.00    +0.000 NA
ATOM     10  C   UNL     1       7.653   4.691  17.871  0.00  0.00    +0.000 C 
ATOM     11  H   UNL     1       7.692   5.531  16.008  0.00  0.00    +0.000 HD
ENDBRANCH   8   9
ENDBRANCH   7   8
ENDBRANCH   1   7
TORSDOF 7
ENDMDL
