MODEL 1
REMARK VINA RESULT:      -8.3      0.000      0.000
REMARK  Name = 
REMARK  7 active torsions:
REMARK  status: ('A' for Active; 'I' for Inactive)
REMARK    1  A    between atoms: C_1  and  C_2
REMARK    2  A    between atoms: C_2  and  C_3
REMARK    3  A    between atoms: C_2  and  C_4
REMARK    4  A    between atoms: C_2  and  C_6
REMARK    5  A    between atoms: C_9  and  N_10
REMARK    6  A    between atoms: N_10  and  C_11
REMARK    7  A    between atoms: C_18  and  C_19
REMARK                            x       y       z     vdW  Elec       q    Type
REMARK                         _______ _______ _______ _____ _____    ______ ____
ROOT
ATOM      1  C   UNL     1       3.147   4.315  18.092  0.00  0.00    +0.000 A 
ATOM      2  C   UNL     1       3.389   3.118  18.795  0.00  0.00    +0.000 A 
ATOM      3  C   UNL     1       4.574   3.170  19.507  0.00  0.00    +0.000 A 
ATOM      4  N   UNL     1       5.486   4.150  19.269  0.00  0.00    +0.000 NA
ATOM      5  C   UNL     1       5.396   4.796  18.076  0.00  0.00    +0.000 A 
ATOM      6  C   UNL     1       6.493   5.414  17.529  0.00  0.00    +0.000 A 
ATOM      7  C   UNL     1       6.685   5.464  16.148  0.00  0.00    +0.000 A 
ATOM      8  C   UNL     1       5.857   4.773  15.271  0.00  0.00    +0.000 A 
ATOM      9  C   UNL     1       4.591   4.424  15.833  0.00  0.00    +0.000 A 
ATOM     10  C   UNL     1       4.279   4.647  17.280  0.00  0.00    +0.000 A 
ENDROOT
BRANCH   8  11
ATOM     11  C   UNL     1       6.454   4.405  13.944  0.00  0.00    +0.000 A 
ATOM     12  C   UNL     1       7.425   4.954  13.057  0.00  0.00    +0.000 A 
ATOM     13  N   UNL     1       7.560   4.257  11.904  0.00  0.00    +0.000 NA
ATOM     14  N   UNL     1       6.669   3.276  12.006  0.00  0.00    +0.000 N 
ATOM     15  C   UNL     1       5.979   3.334  13.188  0.00  0.00    +0.000 A 
ATOM     16  H   UNL     1       6.556   2.618  11.235  0.00  0.00    +0.000 HD
ENDBRANCH   8  11
BRANCH   1  17
ATOM     17  N   UNL     1       2.756   5.324  19.338  0.00  0.00    +0.000 N 
ATOM     18  H   UNL     1       3.713   5.411  19.726  0.00  0.00    +0.000 HD
BRANCH  17  22
ATOM     19  C   UNL     1       1.100   9.334  19.735  0.00  0.00    +0.000 A 
ATOM     20  C   UNL     1       1.125   8.443  20.836  0.00  0.00    +0.000 A 
ATOM     21  C   UNL     1       1.737   7.138  20.795  0.00  0.00    +0.000 A 
ATOM     22  C   UNL     1       2.355   6.675  19.648  0.00  0.00    +0.000 A 
ATOM     23  C   UNL     1       2.424   7.613  18.576  0.00  0.00    +0.000 A 
ATOM     24  C   UNL     1       1.824   8.899  18.613  0.00  0.00    +0.000 A 
BRANCH  19  26
ATOM     25  C   UNL     1       0.887  11.802  18.853  0.00  0.00    +0.000 C 
ATOM     26  C   UNL     1       0.251  10.647  19.669  0.00  0.00    +0.000 C 
ATOM     27  C   UNL     1      -1.160  10.441  19.057  0.00  0.00    +0.000 C 
BRANCH  26  28
ATOM     28  C   UNL     1       0.053  11.185  21.053  0.00  0.00    +0.000 C 
ATOM     29  N   UNL     1      -0.070  11.615  22.125  0.00  0.00    +0.000 NA
ENDBRANCH  26  28
ENDBRANCH  19  26
ENDBRANCH  17  22
ENDBRANCH   1  17
TORSDOF 5
ENDMDL
MODEL 2
REMARK VINA RESULT:      -8.2      0.907      1.247
REMARK  Name = 
REMARK  7 active torsions:
REMARK  status: ('A' for Active; 'I' for Inactive)
REMARK    1  A    between atoms: C_1  and  C_2
REMARK    2  A    between atoms: C_2  and  C_3
REMARK    3  A    between atoms: C_2  and  C_4
REMARK    4  A    between atoms: C_2  and  C_6
REMARK    5  A    between atoms: C_9  and  N_10
REMARK    6  A    between atoms: N_10  and  C_11
REMARK    7  A    between atoms: C_18  and  C_19
REMARK                            x       y       z     vdW  Elec       q    Type
REMARK                         _______ _______ _______ _____ _____    ______ ____
ROOT
ATOM      1  C   UNL     1       3.175   4.372  18.120  0.00  0.00    +0.000 A 
ATOM      2  C   UNL     1       3.432   3.173  18.817  0.00  0.00    +0.000 A 
ATOM      3  C   UNL     1       4.620   3.233  19.521  0.00  0.00    +0.000 A 
ATOM      4  N   UNL     1       5.523   4.223  19.281  0.00  0.00    +0.000 NA
ATOM      5  C   UNL     1       5.420   4.873  18.092  0.00  0.00    +0.000 A 
ATOM      6  C   UNL     1       6.507   5.503  17.541  0.00  0.00    +0.000 A 
ATOM      7  C   UNL     1       6.690   5.561  16.159  0.00  0.00    +0.000 A 
ATOM      8  C   UNL     1       5.862   4.867  15.284  0.00  0.00    +0.000 A 
ATOM      9  C   UNL     1       4.603   4.503  15.853  0.00  0.00    +0.000 A 
ATOM     10  C   UNL     1       4.299   4.717  17.302  0.00  0.00    +0.000 A 
ENDROOT
BRANCH   8  11
ATOM     11  C   UNL     1       6.454   4.509  13.951  0.00  0.00    +0.000 A 
ATOM     12  C   UNL     1       7.485   5.015  13.107  0.00  0.00    +0.000 A 
ATOM     13  N   UNL     1       7.586   4.361  11.926  0.00  0.00    +0.000 NA
ATOM     14  N   UNL     1       6.616   3.454  11.967  0.00  0.00    +0.000 N 
ATOM     15  C   UNL     1       5.909   3.516  13.140  0.00  0.00    +0.000 A 
ATOM     16  H   UNL     1       6.466   2.842  11.165  0.00  0.00    +0.000 HD
ENDBRANCH   8  11
BRANCH   1  17
ATOM     17  N   UNL     1       2.783   5.372  19.373  0.00  0.00    +0.000 N 
ATOM     18  H   UNL     1       3.747   5.496  19.732  0.00  0.00    +0.000 HD
BRANCH  17  22
ATOM     19  C   UNL     1       1.006   9.328  19.789  0.00  0.00    +0.000 A 
ATOM     20  C   UNL     1       1.058   8.432  20.885  0.00  0.00    +0.000 A 
ATOM     21  C   UNL     1       1.709   7.147  20.839  0.00  0.00    +0.000 A 
ATOM     22  C   UNL     1       2.341   6.708  19.689  0.00  0.00    +0.000 A 
ATOM     23  C   UNL     1       2.382   7.653  18.622  0.00  0.00    +0.000 A 
ATOM     24  C   UNL     1       1.743   8.920  18.665  0.00  0.00    +0.000 A 
BRANCH  19  26
ATOM     25  C   UNL     1      -0.454  11.084  21.093  0.00  0.00    +0.000 C 
ATOM     26  C   UNL     1       0.117  10.615  19.729  0.00  0.00    +0.000 C 
ATOM     27  C   UNL     1       0.857  11.849  19.148  0.00  0.00    +0.000 C 
BRANCH  26  28
ATOM     28  C   UNL     1      -1.070  10.363  18.853  0.00  0.00    +0.000 C 
ATOM     29  N   UNL     1      -1.971  10.162  18.146  0.00  0.00    +0.000 NA
ENDBRANCH  26  28
ENDBRANCH  19  26
ENDBRANCH  17  22
ENDBRANCH   1  17
TORSDOF 5
ENDMDL
MODEL 3
REMARK VINA RESULT:      -8.2      0.792      1.097
REMARK  Name = 
REMARK  7 active torsions:
REMARK  status: ('A' for Active; 'I' for Inactive)
REMARK    1  A    between atoms: C_1  and  C_2
REMARK    2  A    between atoms: C_2  and  C_3
REMARK    3  A    between atoms: C_2  and  C_4
REMARK    4  A    between atoms: C_2  and  C_6
REMARK    5  A    between atoms: C_9  and  N_10
REMARK    6  A    between atoms: N_10  and  C_11
REMARK    7  A    between atoms: C_18  and  C_19
REMARK                            x       y       z     vdW  Elec       q    Type
REMARK                         _______ _______ _______ _____ _____    ______ ____
ROOT
ATOM      1  C   UNL     1       3.163   4.254  18.123  0.00  0.00    +0.000 A 
ATOM      2  C   UNL     1       3.456   3.080  18.846  0.00  0.00    +0.000 A 
ATOM      3  C   UNL     1       4.642   3.191  19.548  0.00  0.00    +0.000 A 
ATOM      4  N   UNL     1       5.515   4.202  19.286  0.00  0.00    +0.000 NA
ATOM      5  C   UNL     1       5.392   4.822  18.083  0.00  0.00    +0.000 A 
ATOM      6  C   UNL     1       6.460   5.472  17.517  0.00  0.00    +0.000 A 
ATOM      7  C   UNL     1       6.641   5.505  16.134  0.00  0.00    +0.000 A 
ATOM      8  C   UNL     1       5.835   4.766  15.275  0.00  0.00    +0.000 A 
ATOM      9  C   UNL     1       4.588   4.378  15.852  0.00  0.00    +0.000 A 
ATOM     10  C   UNL     1       4.276   4.615  17.297  0.00  0.00    +0.000 A 
ENDROOT
BRANCH   8  11
ATOM     11  C   UNL     1       6.438   4.397  13.950  0.00  0.00    +0.000 A 
ATOM     12  C   UNL     1       7.416   4.944  13.070  0.00  0.00    +0.000 A 
ATOM     13  N   UNL     1       7.554   4.248  11.917  0.00  0.00    +0.000 NA
ATOM     14  N   UNL     1       6.660   3.270  12.012  0.00  0.00    +0.000 N 
ATOM     15  C   UNL     1       5.964   3.329  13.191  0.00  0.00    +0.000 A 
ATOM     16  H   UNL     1       6.549   2.613  11.240  0.00  0.00    +0.000 HD
ENDBRANCH   8  11
BRANCH   1  17
ATOM     17  N   UNL     1       2.741   5.269  19.353  0.00  0.00    +0.000 N 
ATOM     18  H   UNL     1       3.686   5.350  19.770  0.00  0.00    +0.000 HD
BRANCH  17  22
ATOM     19  C   UNL     1       1.086   9.284  19.702  0.00  0.00    +0.000 A 
ATOM     20  C   UNL     1       1.110   8.406  20.813  0.00  0.00    +0.000 A 
ATOM     21  C   UNL     1       1.722   7.101  20.788  0.00  0.00    +0.000 A 
ATOM     22  C   UNL     1       2.340   6.623  19.647  0.00  0.00    +0.000 A 
ATOM     23  C   UNL     1       2.411   7.549  18.564  0.00  0.00    +0.000 A 
ATOM     24  C   UNL     1       1.811   8.836  18.585  0.00  0.00    +0.000 A 
BRANCH  19  26
ATOM     25  C   UNL     1      -1.035  10.504  18.738  0.00  0.00    +0.000 C 
ATOM     26  C   UNL     1       0.238  10.597  19.620  0.00  0.00    +0.000 C 
ATOM     27  C   UNL     1      -0.256  11.101  21.002  0.00  0.00    +0.000 C 
BRANCH  26  28
ATOM     28  C   UNL     1       1.068  11.692  19.026  0.00  0.00    +0.000 C 
ATOM     29  N   UNL     1       1.692  12.566  18.580  0.00  0.00    +0.000 NA
ENDBRANCH  26  28
ENDBRANCH  19  26
ENDBRANCH  17  22
ENDBRANCH   1  17
TORSDOF 5
ENDMDL
MODEL 4
REMARK VINA RESULT:      -8.1      5.017      7.658
REMARK  Name = 
REMARK  7 active torsions:
REMARK  status: ('A' for Active; 'I' for Inactive)
REMARK    1  A    between atoms: C_1  and  C_2
REMARK    2  A    between atoms: C_2  and  C_3
REMARK    3  A    between atoms: C_2  and  C_4
REMARK    4  A    between atoms: C_2  and  C_6
REMARK    5  A    between atoms: C_9  and  N_10
REMARK    6  A    between atoms: N_10  and  C_11
REMARK    7  A    between atoms: C_18  and  C_19
REMARK                            x       y       z     vdW  Elec       q    Type
REMARK                         _______ _______ _______ _____ _____    ______ ____
ROOT
ATOM      1  C   UNL     1       6.996   6.203  17.746  0.00  0.00    +0.000 A 
ATOM      2  C   UNL     1       7.118   5.533  16.512  0.00  0.00    +0.000 A 
ATOM      3  C   UNL     1       6.178   5.968  15.596  0.00  0.00    +0.000 A 
ATOM      4  N   UNL     1       5.112   6.716  15.993  0.00  0.00    +0.000 NA
ATOM      5  C   UNL     1       4.785   6.666  17.311  0.00  0.00    +0.000 A 
ATOM      6  C   UNL     1       3.508   6.949  17.728  0.00  0.00    +0.000 A 
ATOM      7  C   UNL     1       2.940   6.297  18.823  0.00  0.00    +0.000 A 
ATOM      8  C   UNL     1       3.580   5.237  19.454  0.00  0.00    +0.000 A 
ATOM      9  C   UNL     1       4.987   5.189  19.207  0.00  0.00    +0.000 A 
ATOM     10  C   UNL     1       5.651   6.106  18.229  0.00  0.00    +0.000 A 
ENDROOT
BRANCH   8  11
ATOM     11  C   UNL     1       2.697   4.262  20.177  0.00  0.00    +0.000 A 
ATOM     12  C   UNL     1       2.877   3.082  20.956  0.00  0.00    +0.000 A 
ATOM     13  N   UNL     1       1.714   2.503  21.336  0.00  0.00    +0.000 NA
ATOM     14  N   UNL     1       0.772   3.265  20.792  0.00  0.00    +0.000 N 
ATOM     15  C   UNL     1       1.308   4.308  20.082  0.00  0.00    +0.000 A 
ATOM     16  H   UNL     1      -0.209   3.015  20.913  0.00  0.00    +0.000 HD
ENDBRANCH   8  11
BRANCH   1  17
ATOM     17  N   UNL     1       7.575   7.694  17.340  0.00  0.00    +0.000 N 
ATOM     18  H   UNL     1       6.693   8.058  16.937  0.00  0.00    +0.000 HD
BRANCH  17  22
ATOM     19  C   UNL     1       9.537  11.235  18.949  0.00  0.00    +0.000 A 
ATOM     20  C   UNL     1       8.638  11.331  17.858  0.00  0.00    +0.000 A 
ATOM     21  C   UNL     1       7.891  10.214  17.337  0.00  0.00    +0.000 A 
ATOM     22  C   UNL     1       8.010   8.953  17.892  0.00  0.00    +0.000 A 
ATOM     23  C   UNL     1       8.830   8.879  19.057  0.00  0.00    +0.000 A 
ATOM     24  C   UNL     1       9.567   9.977  19.574  0.00  0.00    +0.000 A 
BRANCH  19  26
ATOM     25  C   UNL     1      11.984  11.890  19.653  0.00  0.00    +0.000 C 
ATOM     26  C   UNL     1      10.531  12.362  19.389  0.00  0.00    +0.000 C 
ATOM     27  C   UNL     1      10.654  13.514  18.356  0.00  0.00    +0.000 C 
BRANCH  26  28
ATOM     28  C   UNL     1      10.059  12.972  20.672  0.00  0.00    +0.000 C 
ATOM     29  N   UNL     1       9.722  13.462  21.671  0.00  0.00    +0.000 NA
ENDBRANCH  26  28
ENDBRANCH  19  26
ENDBRANCH  17  22
ENDBRANCH   1  17
TORSDOF 5
ENDMDL
MODEL 5
REMARK VINA RESULT:      -7.7      4.927      7.702
REMARK  Name = 
REMARK  7 active torsions:
REMARK  status: ('A' for Active; 'I' for Inactive)
REMARK    1  A    between atoms: C_1  and  C_2
REMARK    2  A    between atoms: C_2  and  C_3
REMARK    3  A    between atoms: C_2  and  C_4
REMARK    4  A    between atoms: C_2  and  C_6
REMARK    5  A    between atoms: C_9  and  N_10
REMARK    6  A    between atoms: N_10  and  C_11
REMARK    7  A    between atoms: C_18  and  C_19
REMARK                            x       y       z     vdW  Elec       q    Type
REMARK                         _______ _______ _______ _____ _____    ______ ____
ROOT
ATOM      1  C   UNL     1       6.922   5.873  17.626  0.00  0.00    +0.000 A 
ATOM      2  C   UNL     1       6.930   5.247  16.363  0.00  0.00    +0.000 A 
ATOM      3  C   UNL     1       5.969   5.775  15.521  0.00  0.00    +0.000 A 
ATOM      4  N   UNL     1       4.978   6.570  16.007  0.00  0.00    +0.000 NA
ATOM      5  C   UNL     1       4.724   6.489  17.340  0.00  0.00    +0.000 A 
ATOM      6  C   UNL     1       3.494   6.834  17.842  0.00  0.00    +0.000 A 
ATOM      7  C   UNL     1       2.949   6.176  18.945  0.00  0.00    +0.000 A 
ATOM      8  C   UNL     1       3.555   5.054  19.498  0.00  0.00    +0.000 A 
ATOM      9  C   UNL     1       4.939   4.929  19.167  0.00  0.00    +0.000 A 
ATOM     10  C   UNL     1       5.603   5.841  18.184  0.00  0.00    +0.000 A 
ENDROOT
BRANCH   8  11
ATOM     11  C   UNL     1       2.654   4.108  20.237  0.00  0.00    +0.000 A 
ATOM     12  C   UNL     1       1.250   3.884  20.342  0.00  0.00    +0.000 A 
ATOM     13  N   UNL     1       0.922   2.921  21.234  0.00  0.00    +0.000 NA
ATOM     14  N   UNL     1       2.086   2.530  21.741  0.00  0.00    +0.000 N 
ATOM     15  C   UNL     1       3.137   3.217  21.193  0.00  0.00    +0.000 A 
ATOM     16  H   UNL     1       2.103   1.817  22.471  0.00  0.00    +0.000 HD
ENDBRANCH   8  11
BRANCH   1  17
ATOM     17  N   UNL     1       7.571   7.340  17.239  0.00  0.00    +0.000 N 
ATOM     18  H   UNL     1       6.788   7.664  16.644  0.00  0.00    +0.000 HD
BRANCH  17  22
ATOM     19  C   UNL     1       9.194  11.096  18.737  0.00  0.00    +0.000 A 
ATOM     20  C   UNL     1       8.189  11.082  17.739  0.00  0.00    +0.000 A 
ATOM     21  C   UNL     1       7.548   9.880  17.266  0.00  0.00    +0.000 A 
ATOM     22  C   UNL     1       7.887   8.641  17.777  0.00  0.00    +0.000 A 
ATOM     23  C   UNL     1       8.820   8.665  18.856  0.00  0.00    +0.000 A 
ATOM     24  C   UNL     1       9.451   9.847  19.327  0.00  0.00    +0.000 A 
BRANCH  19  26
ATOM     25  C   UNL     1       9.286  13.540  19.704  0.00  0.00    +0.000 C 
ATOM     26  C   UNL     1      10.068  12.341  19.106  0.00  0.00    +0.000 C 
ATOM     27  C   UNL     1      11.187  12.027  20.135  0.00  0.00    +0.000 C 
BRANCH  26  28
ATOM     28  C   UNL     1      10.739  12.863  17.875  0.00  0.00    +0.000 C 
ATOM     29  N   UNL     1      11.259  13.300  16.931  0.00  0.00    +0.000 NA
ENDBRANCH  26  28
ENDBRANCH  19  26
ENDBRANCH  17  22
ENDBRANCH   1  17
TORSDOF 5
ENDMDL
MODEL 6
REMARK VINA RESULT:      -7.7      5.121      7.605
REMARK  Name = 
REMARK  7 active torsions:
REMARK  status: ('A' for Active; 'I' for Inactive)
REMARK    1  A    between atoms: C_1  and  C_2
REMARK    2  A    between atoms: C_2  and  C_3
REMARK    3  A    between atoms: C_2  and  C_4
REMARK    4  A    between atoms: C_2  and  C_6
REMARK    5  A    between atoms: C_9  and  N_10
REMARK    6  A    between atoms: N_10  and  C_11
REMARK    7  A    between atoms: C_18  and  C_19
REMARK                            x       y       z     vdW  Elec       q    Type
REMARK                         _______ _______ _______ _____ _____    ______ ____
ROOT
ATOM      1  C   UNL     1       6.782   6.317  17.933  0.00  0.00    +0.000 A 
ATOM      2  C   UNL     1       6.963   5.621  16.721  0.00  0.00    +0.000 A 
ATOM      3  C   UNL     1       6.051   6.016  15.759  0.00  0.00    +0.000 A 
ATOM      4  N   UNL     1       4.958   6.752  16.097  0.00  0.00    +0.000 NA
ATOM      5  C   UNL     1       4.581   6.728  17.403  0.00  0.00    +0.000 A 
ATOM      6  C   UNL     1       3.284   6.996  17.764  0.00  0.00    +0.000 A 
ATOM      7  C   UNL     1       2.686   6.359  18.852  0.00  0.00    +0.000 A 
ATOM      8  C   UNL     1       3.321   5.327  19.532  0.00  0.00    +0.000 A 
ATOM      9  C   UNL     1       4.737   5.300  19.341  0.00  0.00    +0.000 A 
ATOM     10  C   UNL     1       5.421   6.206  18.366  0.00  0.00    +0.000 A 
ENDROOT
BRANCH   8  11
ATOM     11  C   UNL     1       2.429   4.352  20.245  0.00  0.00    +0.000 A 
ATOM     12  C   UNL     1       2.532   3.487  21.373  0.00  0.00    +0.000 A 
ATOM     13  N   UNL     1       1.431   2.725  21.571  0.00  0.00    +0.000 NA
ATOM     14  N   UNL     1       0.619   3.051  20.573  0.00  0.00    +0.000 N 
ATOM     15  C   UNL     1       1.174   3.998  19.752  0.00  0.00    +0.000 A 
ATOM     16  H   UNL     1      -0.283   2.583  20.484  0.00  0.00    +0.000 HD
ENDBRANCH   8  11
BRANCH   1  17
ATOM     17  N   UNL     1       7.348   7.809  17.513  0.00  0.00    +0.000 N 
ATOM     18  H   UNL     1       6.447   8.311  17.610  0.00  0.00    +0.000 HD
BRANCH  17  22
ATOM     19  C   UNL     1       9.224  11.456  18.983  0.00  0.00    +0.000 A 
ATOM     20  C   UNL     1       9.497  10.203  19.583  0.00  0.00    +0.000 A 
ATOM     21  C   UNL     1       8.980   8.950  19.090  0.00  0.00    +0.000 A 
ATOM     22  C   UNL     1       8.170   8.903  17.970  0.00  0.00    +0.000 A 
ATOM     23  C   UNL     1       7.984  10.150  17.304  0.00  0.00    +0.000 A 
ATOM     24  C   UNL     1       8.492  11.385  17.785  0.00  0.00    +0.000 A 
BRANCH  19  26
ATOM     25  C   UNL     1       8.415  13.879  19.611  0.00  0.00    +0.000 C 
ATOM     26  C   UNL     1       9.571  12.844  19.618  0.00  0.00    +0.000 C 
ATOM     27  C   UNL     1      10.029  12.749  21.097  0.00  0.00    +0.000 C 
BRANCH  26  28
ATOM     28  C   UNL     1      10.691  13.478  18.852  0.00  0.00    +0.000 C 
ATOM     29  N   UNL     1      11.544  13.963  18.230  0.00  0.00    +0.000 NA
ENDBRANCH  26  28
ENDBRANCH  19  26
ENDBRANCH  17  22
ENDBRANCH   1  17
TORSDOF 5
ENDMDL
MODEL 7
REMARK VINA RESULT:      -7.7      1.052      1.663
REMARK  Name = 
REMARK  7 active torsions:
REMARK  status: ('A' for Active; 'I' for Inactive)
REMARK    1  A    between atoms: C_1  and  C_2
REMARK    2  A    between atoms: C_2  and  C_3
REMARK    3  A    between atoms: C_2  and  C_4
REMARK    4  A    between atoms: C_2  and  C_6
REMARK    5  A    between atoms: C_9  and  N_10
REMARK    6  A    between atoms: N_10  and  C_11
REMARK    7  A    between atoms: C_18  and  C_19
REMARK                            x       y       z     vdW  Elec       q    Type
REMARK                         _______ _______ _______ _____ _____    ______ ____
ROOT
ATOM      1  C   UNL     1       3.945   4.629  18.695  0.00  0.00    +0.000 A 
ATOM      2  C   UNL     1       5.009   4.191  19.510  0.00  0.00    +0.000 A 
ATOM      3  C   UNL     1       6.052   5.099  19.525  0.00  0.00    +0.000 A 
ATOM      4  N   UNL     1       6.112   6.107  18.613  0.00  0.00    +0.000 NA
ATOM      5  C   UNL     1       5.381   5.951  17.478  0.00  0.00    +0.000 A 
ATOM      6  C   UNL     1       5.727   6.610  16.325  0.00  0.00    +0.000 A 
ATOM      7  C   UNL     1       5.526   6.035  15.070  0.00  0.00    +0.000 A 
ATOM      8  C   UNL     1       5.100   4.719  14.931  0.00  0.00    +0.000 A 
ATOM      9  C   UNL     1       4.467   4.195  16.099  0.00  0.00    +0.000 A 
ATOM     10  C   UNL     1       4.428   4.956  17.387  0.00  0.00    +0.000 A 
ENDROOT
BRANCH   8  11
ATOM     11  C   UNL     1       5.472   4.032  13.649  0.00  0.00    +0.000 A 
ATOM     12  C   UNL     1       4.788   3.327  12.616  0.00  0.00    +0.000 A 
ATOM     13  N   UNL     1       5.614   2.813  11.675  0.00  0.00    +0.000 NA
ATOM     14  N   UNL     1       6.832   3.142  12.089  0.00  0.00    +0.000 N 
ATOM     15  C   UNL     1       6.798   3.850  13.263  0.00  0.00    +0.000 A 
ATOM     16  H   UNL     1       7.645   2.839  11.553  0.00  0.00    +0.000 HD
ENDBRANCH   8  11
BRANCH   1  17
ATOM     17  N   UNL     1       3.331   5.844  19.628  0.00  0.00    +0.000 N 
ATOM     18  H   UNL     1       4.181   6.435  19.630  0.00  0.00    +0.000 HD
BRANCH  17  22
ATOM     19  C   UNL     1       0.847   9.379  20.189  0.00  0.00    +0.000 A 
ATOM     20  C   UNL     1       1.490   9.128  18.952  0.00  0.00    +0.000 A 
ATOM     21  C   UNL     1       2.251   7.936  18.674  0.00  0.00    +0.000 A 
ATOM     22  C   UNL     1       2.395   6.942  19.625  0.00  0.00    +0.000 A 
ATOM     23  C   UNL     1       1.660   7.145  20.829  0.00  0.00    +0.000 A 
ATOM     24  C   UNL     1       0.908   8.317  21.107  0.00  0.00    +0.000 A 
BRANCH  19  26
ATOM     25  C   UNL     1       1.152  11.977  20.457  0.00  0.00    +0.000 C 
ATOM     26  C   UNL     1       0.216  10.750  20.605  0.00  0.00    +0.000 C 
ATOM     27  C   UNL     1      -1.063  11.109  19.803  0.00  0.00    +0.000 C 
BRANCH  26  28
ATOM     28  C   UNL     1      -0.172  10.704  22.050  0.00  0.00    +0.000 C 
ATOM     29  N   UNL     1      -0.441  10.660  23.180  0.00  0.00    +0.000 NA
ENDBRANCH  26  28
ENDBRANCH  19  26
ENDBRANCH  17  22
ENDBRANCH   1  17
TORSDOF 5
ENDMDL
MODEL 8
REMARK VINA RESULT:      -7.7      4.911      7.386
REMARK  Name = 
REMARK  7 active torsions:
REMARK  status: ('A' for Active; 'I' for Inactive)
REMARK    1  A    between atoms: C_1  and  C_2
REMARK    2  A    between atoms: C_2  and  C_3
REMARK    3  A    between atoms: C_2  and  C_4
REMARK    4  A    between atoms: C_2  and  C_6
REMARK    5  A    between atoms: C_9  and  N_10
REMARK    6  A    between atoms: N_10  and  C_11
REMARK    7  A    between atoms: C_18  and  C_19
REMARK                            x       y       z     vdW  Elec       q    Type
REMARK                         _______ _______ _______ _____ _____    ______ ____
ROOT
ATOM      1  C   UNL     1       6.744   6.251  17.887  0.00  0.00    +0.000 A 
ATOM      2  C   UNL     1       6.851   5.572  16.656  0.00  0.00    +0.000 A 
ATOM      3  C   UNL     1       5.907   6.009  15.745  0.00  0.00    +0.000 A 
ATOM      4  N   UNL     1       4.850   6.766  16.145  0.00  0.00    +0.000 NA
ATOM      5  C   UNL     1       4.533   6.728  17.466  0.00  0.00    +0.000 A 
ATOM      6  C   UNL     1       3.262   7.023  17.891  0.00  0.00    +0.000 A 
ATOM      7  C   UNL     1       2.697   6.382  18.994  0.00  0.00    +0.000 A 
ATOM      8  C   UNL     1       3.335   5.321  19.627  0.00  0.00    +0.000 A 
ATOM      9  C   UNL     1       4.739   5.261  19.370  0.00  0.00    +0.000 A 
ATOM     10  C   UNL     1       5.402   6.167  18.380  0.00  0.00    +0.000 A 
ENDROOT
BRANCH   8  11
ATOM     11  C   UNL     1       2.450   4.357  20.363  0.00  0.00    +0.000 A 
ATOM     12  C   UNL     1       2.538   3.567  21.546  0.00  0.00    +0.000 A 
ATOM     13  N   UNL     1       1.459   2.775  21.749  0.00  0.00    +0.000 NA
ATOM     14  N   UNL     1       0.677   3.009  20.700  0.00  0.00    +0.000 N 
ATOM     15  C   UNL     1       1.231   3.925  19.845  0.00  0.00    +0.000 A 
ATOM     16  H   UNL     1      -0.202   2.500  20.606  0.00  0.00    +0.000 HD
ENDBRANCH   8  11
BRANCH   1  17
ATOM     17  N   UNL     1       7.330   7.735  17.467  0.00  0.00    +0.000 N 
ATOM     18  H   UNL     1       6.428   8.240  17.524  0.00  0.00    +0.000 HD
BRANCH  17  22
ATOM     19  C   UNL     1       9.160  11.381  18.995  0.00  0.00    +0.000 A 
ATOM     20  C   UNL     1       9.464  10.120  19.562  0.00  0.00    +0.000 A 
ATOM     21  C   UNL     1       8.963   8.870  19.048  0.00  0.00    +0.000 A 
ATOM     22  C   UNL     1       8.138   8.833  17.938  0.00  0.00    +0.000 A 
ATOM     23  C   UNL     1       7.921  10.091  17.303  0.00  0.00    +0.000 A 
ATOM     24  C   UNL     1       8.414  11.324  17.806  0.00  0.00    +0.000 A 
BRANCH  19  26
ATOM     25  C   UNL     1      10.939  13.269  19.429  0.00  0.00    +0.000 C 
ATOM     26  C   UNL     1       9.491  12.761  19.657  0.00  0.00    +0.000 C 
ATOM     27  C   UNL     1       8.570  13.913  19.175  0.00  0.00    +0.000 C 
BRANCH  26  28
ATOM     28  C   UNL     1       9.323  12.656  21.140  0.00  0.00    +0.000 C 
ATOM     29  N   UNL     1       9.186  12.609  22.294  0.00  0.00    +0.000 NA
ENDBRANCH  26  28
ENDBRANCH  19  26
ENDBRANCH  17  22
ENDBRANCH   1  17
TORSDOF 5
ENDMDL
MODEL 9
REMARK VINA RESULT:      -7.6      4.663      7.411
REMARK  Name = 
REMARK  7 active torsions:
REMARK  status: ('A' for Active; 'I' for Inactive)
REMARK    1  A    between atoms: C_1  and  C_2
REMARK    2  A    between atoms: C_2  and  C_3
REMARK    3  A    between atoms: C_2  and  C_4
REMARK    4  A    between atoms: C_2  and  C_6
REMARK    5  A    between atoms: C_9  and  N_10
REMARK    6  A    between atoms: N_10  and  C_11
REMARK    7  A    between atoms: C_18  and  C_19
REMARK                            x       y       z     vdW  Elec       q    Type
REMARK                         _______ _______ _______ _____ _____    ______ ____
ROOT
ATOM      1  C   UNL     1       6.760   5.630  17.652  0.00  0.00    +0.000 A 
ATOM      2  C   UNL     1       6.636   5.085  16.358  0.00  0.00    +0.000 A 
ATOM      3  C   UNL     1       5.716   5.780  15.594  0.00  0.00    +0.000 A 
ATOM      4  N   UNL     1       4.856   6.661  16.171  0.00  0.00    +0.000 NA
ATOM      5  C   UNL     1       4.648   6.531  17.508  0.00  0.00    +0.000 A 
ATOM      6  C   UNL     1       3.494   6.995  18.087  0.00  0.00    +0.000 A 
ATOM      7  C   UNL     1       2.915   6.344  19.177  0.00  0.00    +0.000 A 
ATOM      8  C   UNL     1       3.396   5.123  19.637  0.00  0.00    +0.000 A 
ATOM      9  C   UNL     1       4.738   4.847  19.233  0.00  0.00    +0.000 A 
ATOM     10  C   UNL     1       5.472   5.728  18.271  0.00  0.00    +0.000 A 
ENDROOT
BRANCH   8  11
ATOM     11  C   UNL     1       2.413   4.253  20.365  0.00  0.00    +0.000 A 
ATOM     12  C   UNL     1       2.375   3.544  21.601  0.00  0.00    +0.000 A 
ATOM     13  N   UNL     1       1.246   2.817  21.772  0.00  0.00    +0.000 NA
ATOM     14  N   UNL     1       0.555   3.011  20.654  0.00  0.00    +0.000 N 
ATOM     15  C   UNL     1       1.215   3.841  19.785  0.00  0.00    +0.000 A 
ATOM     16  H   UNL     1      -0.339   2.537  20.526  0.00  0.00    +0.000 HD
ENDBRANCH   8  11
BRANCH   1  17
ATOM     17  N   UNL     1       7.574   7.025  17.317  0.00  0.00    +0.000 N 
ATOM     18  H   UNL     1       6.996   7.308  16.505  0.00  0.00    +0.000 HD
BRANCH  17  22
ATOM     19  C   UNL     1       8.965  10.959  18.569  0.00  0.00    +0.000 A 
ATOM     20  C   UNL     1       7.873  10.821  17.677  0.00  0.00    +0.000 A 
ATOM     21  C   UNL     1       7.309   9.552  17.294  0.00  0.00    +0.000 A 
ATOM     22  C   UNL     1       7.814   8.365  17.794  0.00  0.00    +0.000 A 
ATOM     23  C   UNL     1       8.841   8.509  18.773  0.00  0.00    +0.000 A 
ATOM     24  C   UNL     1       9.398   9.758  19.154  0.00  0.00    +0.000 A 
BRANCH  19  26
ATOM     25  C   UNL     1      10.495  12.366  20.180  0.00  0.00    +0.000 C 
ATOM     26  C   UNL     1       9.747  12.292  18.823  0.00  0.00    +0.000 C 
ATOM     27  C   UNL     1      10.821  12.594  17.744  0.00  0.00    +0.000 C 
BRANCH  26  28
ATOM     28  C   UNL     1       8.789  13.442  18.821  0.00  0.00    +0.000 C 
ATOM     29  N   UNL     1       8.052  14.340  18.852  0.00  0.00    +0.000 NA
ENDBRANCH  26  28
ENDBRANCH  19  26
ENDBRANCH  17  22
ENDBRANCH   1  17
TORSDOF 5
ENDMDL
