MODEL 1
REMARK VINA RESULT:      -6.8      0.000      0.000
REMARK  Name = 
REMARK  8 active torsions:
REMARK  status: ('A' for Active; 'I' for Inactive)
REMARK    1  A    between atoms: C_1  and  C_2
REMARK    2  A    between atoms: C_2  and  O_4
REMARK    3  A    between atoms: O_4  and  C_5
REMARK    4  A    between atoms: C_8  and  C_9
REMARK    5  A    between atoms: C_9  and  O_11
REMARK    6  A    between atoms: C_12  and  O_13
REMARK    7  A    between atoms: O_13  and  C_14
REMARK    8  A    between atoms: C_14  and  C_15
REMARK                            x       y       z     vdW  Elec       q    Type
REMARK                         _______ _______ _______ _____ _____    ______ ____
ROOT
ATOM      1  C   UNL     1       3.195   4.465  18.500  0.00  0.00    +0.000 A 
ATOM      2  C   UNL     1       3.914   5.098  19.513  0.00  0.00    +0.000 A 
ATOM      3  C   UNL     1       5.290   5.283  19.366  0.00  0.00    +0.000 A 
ATOM      4  C   UNL     1       5.945   4.851  18.199  0.00  0.00    +0.000 A 
ATOM      5  C   UNL     1       5.194   4.260  17.168  0.00  0.00    +0.000 A 
ATOM      6  C   UNL     1       3.823   4.051  17.326  0.00  0.00    +0.000 A 
ENDROOT
BRANCH   4   7
ATOM      7  C   UNL     1       7.413   5.079  18.128  0.00  0.00    +0.000 C 
ATOM      8  O   UNL     1       7.944   6.083  18.572  0.00  0.00    +0.000 OA
BRANCH   7   9
ATOM      9  O   UNL     1       8.114   4.050  17.610  0.00  0.00    +0.000 OA
ATOM     10  H   UNL     1       8.732   4.308  16.899  0.00  0.00    +0.000 HD
ENDBRANCH   7   9
ENDBRANCH   4   7
BRANCH   1  11
ATOM     11  O   UNL     1       1.800   4.369  18.685  0.00  0.00    +0.000 OA
BRANCH  11  13
ATOM     12  C   UNL     1       1.152   3.081  20.548  0.00  0.00    +0.000 C 
ATOM     13  C   UNL     1       1.225   3.151  19.052  0.00  0.00    +0.000 C 
ATOM     14  O   UNL     1       0.851   2.262  18.300  0.00  0.00    +0.000 OA
ENDBRANCH  11  13
ENDBRANCH   1  11
BRANCH   5  15
ATOM     15  O   UNL     1       5.874   3.847  15.993  0.00  0.00    +0.000 OA
BRANCH  15  16
ATOM     16  C   UNL     1       6.002   4.675  14.869  0.00  0.00    +0.000 C 
ATOM     17  C   UNL     1       6.132   3.824  13.641  0.00  0.00    +0.000 C 
ATOM     18  O   UNL     1       6.064   5.895  14.866  0.00  0.00    +0.000 OA
ENDBRANCH  15  16
ENDBRANCH   5  15
TORSDOF 6
ENDMDL
MODEL 2
REMARK VINA RESULT:      -6.6      1.466      3.196
REMARK  Name = 
REMARK  8 active torsions:
REMARK  status: ('A' for Active; 'I' for Inactive)
REMARK    1  A    between atoms: C_1  and  C_2
REMARK    2  A    between atoms: C_2  and  O_4
REMARK    3  A    between atoms: O_4  and  C_5
REMARK    4  A    between atoms: C_8  and  C_9
REMARK    5  A    between atoms: C_9  and  O_11
REMARK    6  A    between atoms: C_12  and  O_13
REMARK    7  A    between atoms: O_13  and  C_14
REMARK    8  A    between atoms: C_14  and  C_15
REMARK                            x       y       z     vdW  Elec       q    Type
REMARK                         _______ _______ _______ _____ _____    ______ ____
ROOT
ATOM      1  C   UNL     1       3.699   3.447  18.632  0.00  0.00    +0.000 A 
ATOM      2  C   UNL     1       3.230   3.709  17.345  0.00  0.00    +0.000 A 
ATOM      3  C   UNL     1       4.088   4.282  16.404  0.00  0.00    +0.000 A 
ATOM      4  C   UNL     1       5.420   4.578  16.744  0.00  0.00    +0.000 A 
ATOM      5  C   UNL     1       5.889   4.261  18.031  0.00  0.00    +0.000 A 
ATOM      6  C   UNL     1       5.024   3.711  18.979  0.00  0.00    +0.000 A 
ENDROOT
BRANCH   4   7
ATOM      7  C   UNL     1       6.263   5.196  15.686  0.00  0.00    +0.000 C 
ATOM      8  O   UNL     1       5.895   6.157  15.031  0.00  0.00    +0.000 OA
BRANCH   7   9
ATOM      9  O   UNL     1       7.496   4.662  15.569  0.00  0.00    +0.000 OA
ATOM     10  H   UNL     1       8.194   5.313  15.365  0.00  0.00    +0.000 HD
ENDBRANCH   7   9
ENDBRANCH   4   7
BRANCH   1  11
ATOM     11  O   UNL     1       2.800   2.808  19.511  0.00  0.00    +0.000 OA
BRANCH  11  13
ATOM     12  C   UNL     1       2.181   3.062  21.770  0.00  0.00    +0.000 C 
ATOM     13  C   UNL     1       2.003   3.567  20.370  0.00  0.00    +0.000 C 
ATOM     14  O   UNL     1       1.259   4.486  20.056  0.00  0.00    +0.000 OA
ENDBRANCH  11  13
ENDBRANCH   1  11
BRANCH   5  15
ATOM     15  O   UNL     1       7.241   4.553  18.346  0.00  0.00    +0.000 OA
BRANCH  15  16
ATOM     16  C   UNL     1       7.601   5.574  19.235  0.00  0.00    +0.000 C 
ATOM     17  C   UNL     1       7.883   6.827  18.460  0.00  0.00    +0.000 C 
ATOM     18  O   UNL     1       7.734   5.474  20.445  0.00  0.00    +0.000 OA
ENDBRANCH  15  16
ENDBRANCH   5  15
TORSDOF 6
ENDMDL
MODEL 3
REMARK VINA RESULT:      -6.5      1.296      1.568
REMARK  Name = 
REMARK  8 active torsions:
REMARK  status: ('A' for Active; 'I' for Inactive)
REMARK    1  A    between atoms: C_1  and  C_2
REMARK    2  A    between atoms: C_2  and  O_4
REMARK    3  A    between atoms: O_4  and  C_5
REMARK    4  A    between atoms: C_8  and  C_9
REMARK    5  A    between atoms: C_9  and  O_11
REMARK    6  A    between atoms: C_12  and  O_13
REMARK    7  A    between atoms: O_13  and  C_14
REMARK    8  A    between atoms: C_14  and  C_15
REMARK                            x       y       z     vdW  Elec       q    Type
REMARK                         _______ _______ _______ _____ _____    ______ ____
ROOT
ATOM      1  C   UNL     1       3.995   3.855  18.027  0.00  0.00    +0.000 A 
ATOM      2  C   UNL     1       4.609   4.340  19.181  0.00  0.00    +0.000 A 
ATOM      3  C   UNL     1       5.639   5.276  19.069  0.00  0.00    +0.000 A 
ATOM      4  C   UNL     1       6.045   5.740  17.805  0.00  0.00    +0.000 A 
ATOM      5  C   UNL     1       5.380   5.277  16.656  0.00  0.00    +0.000 A 
ATOM      6  C   UNL     1       4.367   4.322  16.767  0.00  0.00    +0.000 A 
ENDROOT
BRANCH   4   7
ATOM      7  C   UNL     1       7.156   6.728  17.776  0.00  0.00    +0.000 C 
ATOM      8  O   UNL     1       8.107   6.670  18.538  0.00  0.00    +0.000 OA
BRANCH   7   9
ATOM      9  O   UNL     1       7.067   7.640  16.786  0.00  0.00    +0.000 OA
ATOM     10  H   UNL     1       6.170   8.004  16.659  0.00  0.00    +0.000 HD
ENDBRANCH   7   9
ENDBRANCH   4   7
BRANCH   1  11
ATOM     11  O   UNL     1       2.919   2.963  18.214  0.00  0.00    +0.000 OA
BRANCH  11  13
ATOM     12  C   UNL     1       1.004   3.044  19.583  0.00  0.00    +0.000 C 
ATOM     13  C   UNL     1       1.611   3.446  18.272  0.00  0.00    +0.000 C 
ATOM     14  O   UNL     1       1.026   4.079  17.405  0.00  0.00    +0.000 OA
ENDBRANCH  11  13
ENDBRANCH   1  11
BRANCH   5  15
ATOM     15  O   UNL     1       5.795   5.771  15.394  0.00  0.00    +0.000 OA
BRANCH  15  16
ATOM     16  C   UNL     1       6.749   5.113  14.605  0.00  0.00    +0.000 C 
ATOM     17  C   UNL     1       6.089   3.987  13.867  0.00  0.00    +0.000 C 
ATOM     18  O   UNL     1       7.946   5.356  14.556  0.00  0.00    +0.000 OA
ENDBRANCH  15  16
ENDBRANCH   5  15
TORSDOF 6
ENDMDL
MODEL 4
REMARK VINA RESULT:      -6.5      1.597      3.383
REMARK  Name = 
REMARK  8 active torsions:
REMARK  status: ('A' for Active; 'I' for Inactive)
REMARK    1  A    between atoms: C_1  and  C_2
REMARK    2  A    between atoms: C_2  and  O_4
REMARK    3  A    between atoms: O_4  and  C_5
REMARK    4  A    between atoms: C_8  and  C_9
REMARK    5  A    between atoms: C_9  and  O_11
REMARK    6  A    between atoms: C_12  and  O_13
REMARK    7  A    between atoms: O_13  and  C_14
REMARK    8  A    between atoms: C_14  and  C_15
REMARK                            x       y       z     vdW  Elec       q    Type
REMARK                         _______ _______ _______ _____ _____    ______ ____
ROOT
ATOM      1  C   UNL     1       3.449   3.286  18.947  0.00  0.00    +0.000 A 
ATOM      2  C   UNL     1       2.865   3.481  17.697  0.00  0.00    +0.000 A 
ATOM      3  C   UNL     1       3.627   4.023  16.659  0.00  0.00    +0.000 A 
ATOM      4  C   UNL     1       4.977   4.355  16.867  0.00  0.00    +0.000 A 
ATOM      5  C   UNL     1       5.562   4.104  18.121  0.00  0.00    +0.000 A 
ATOM      6  C   UNL     1       4.793   3.586  19.165  0.00  0.00    +0.000 A 
ENDROOT
BRANCH   4   7
ATOM      7  C   UNL     1       5.713   4.935  15.713  0.00  0.00    +0.000 C 
ATOM      8  O   UNL     1       6.387   4.257  14.956  0.00  0.00    +0.000 OA
BRANCH   7   9
ATOM      9  O   UNL     1       5.505   6.254  15.523  0.00  0.00    +0.000 OA
ATOM     10  H   UNL     1       5.867   6.597  14.683  0.00  0.00    +0.000 HD
ENDBRANCH   7   9
ENDBRANCH   4   7
BRANCH   1  11
ATOM     11  O   UNL     1       2.642   2.675  19.930  0.00  0.00    +0.000 OA
BRANCH  11  13
ATOM     12  C   UNL     1       1.378   4.555  20.572  0.00  0.00    +0.000 C 
ATOM     13  C   UNL     1       2.219   3.406  21.041  0.00  0.00    +0.000 C 
ATOM     14  O   UNL     1       2.489   3.181  22.212  0.00  0.00    +0.000 OA
ENDBRANCH  11  13
ENDBRANCH   1  11
BRANCH   5  15
ATOM     15  O   UNL     1       6.930   4.431  18.303  0.00  0.00    +0.000 OA
BRANCH  15  16
ATOM     16  C   UNL     1       7.346   5.500  19.108  0.00  0.00    +0.000 C 
ATOM     17  C   UNL     1       7.659   6.682  18.238  0.00  0.00    +0.000 C 
ATOM     18  O   UNL     1       7.500   5.483  20.320  0.00  0.00    +0.000 OA
ENDBRANCH  15  16
ENDBRANCH   5  15
TORSDOF 6
ENDMDL
MODEL 5
REMARK VINA RESULT:      -6.5      2.292      5.857
REMARK  Name = 
REMARK  8 active torsions:
REMARK  status: ('A' for Active; 'I' for Inactive)
REMARK    1  A    between atoms: C_1  and  C_2
REMARK    2  A    between atoms: C_2  and  O_4
REMARK    3  A    between atoms: O_4  and  C_5
REMARK    4  A    between atoms: C_8  and  C_9
REMARK    5  A    between atoms: C_9  and  O_11
REMARK    6  A    between atoms: C_12  and  O_13
REMARK    7  A    between atoms: O_13  and  C_14
REMARK    8  A    between atoms: C_14  and  C_15
REMARK                            x       y       z     vdW  Elec       q    Type
REMARK                         _______ _______ _______ _____ _____    ______ ____
ROOT
ATOM      1  C   UNL     1       5.787   5.677  18.249  0.00  0.00    +0.000 A 
ATOM      2  C   UNL     1       4.753   6.281  17.537  0.00  0.00    +0.000 A 
ATOM      3  C   UNL     1       3.560   5.583  17.333  0.00  0.00    +0.000 A 
ATOM      4  C   UNL     1       3.395   4.288  17.855  0.00  0.00    +0.000 A 
ATOM      5  C   UNL     1       4.432   3.716  18.614  0.00  0.00    +0.000 A 
ATOM      6  C   UNL     1       5.634   4.403  18.795  0.00  0.00    +0.000 A 
ENDROOT
BRANCH   4   7
ATOM      7  C   UNL     1       2.099   3.613  17.584  0.00  0.00    +0.000 C 
ATOM      8  O   UNL     1       1.050   4.225  17.472  0.00  0.00    +0.000 OA
BRANCH   7   9
ATOM      9  O   UNL     1       2.192   2.282  17.387  0.00  0.00    +0.000 OA
ATOM     10  H   UNL     1       2.188   1.757  18.210  0.00  0.00    +0.000 HD
ENDBRANCH   7   9
ENDBRANCH   4   7
BRANCH   1  11
ATOM     11  O   UNL     1       6.938   6.462  18.474  0.00  0.00    +0.000 OA
BRANCH  11  13
ATOM     12  C   UNL     1       7.967   8.484  17.841  0.00  0.00    +0.000 C 
ATOM     13  C   UNL     1       7.565   7.106  17.407  0.00  0.00    +0.000 C 
ATOM     14  O   UNL     1       7.752   6.653  16.286  0.00  0.00    +0.000 OA
ENDBRANCH  11  13
ENDBRANCH   1  11
BRANCH   5  15
ATOM     15  O   UNL     1       4.237   2.415  19.145  0.00  0.00    +0.000 OA
BRANCH  15  16
ATOM     16  C   UNL     1       4.249   2.156  20.522  0.00  0.00    +0.000 C 
ATOM     17  C   UNL     1       2.960   2.628  21.125  0.00  0.00    +0.000 C 
ATOM     18  O   UNL     1       5.173   1.681  21.166  0.00  0.00    +0.000 OA
ENDBRANCH  15  16
ENDBRANCH   5  15
TORSDOF 6
ENDMDL
MODEL 6
REMARK VINA RESULT:      -6.4      1.450      3.358
REMARK  Name = 
REMARK  8 active torsions:
REMARK  status: ('A' for Active; 'I' for Inactive)
REMARK    1  A    between atoms: C_1  and  C_2
REMARK    2  A    between atoms: C_2  and  O_4
REMARK    3  A    between atoms: O_4  and  C_5
REMARK    4  A    between atoms: C_8  and  C_9
REMARK    5  A    between atoms: C_9  and  O_11
REMARK    6  A    between atoms: C_12  and  O_13
REMARK    7  A    between atoms: O_13  and  C_14
REMARK    8  A    between atoms: C_14  and  C_15
REMARK                            x       y       z     vdW  Elec       q    Type
REMARK                         _______ _______ _______ _____ _____    ______ ____
ROOT
ATOM      1  C   UNL     1       3.453   4.797  19.106  0.00  0.00    +0.000 A 
ATOM      2  C   UNL     1       3.002   4.658  17.794  0.00  0.00    +0.000 A 
ATOM      3  C   UNL     1       3.931   4.538  16.757  0.00  0.00    +0.000 A 
ATOM      4  C   UNL     1       5.310   4.541  17.034  0.00  0.00    +0.000 A 
ATOM      5  C   UNL     1       5.743   4.633  18.368  0.00  0.00    +0.000 A 
ATOM      6  C   UNL     1       4.816   4.778  19.401  0.00  0.00    +0.000 A 
ENDROOT
BRANCH   4   7
ATOM      7  C   UNL     1       6.229   4.419  15.872  0.00  0.00    +0.000 C 
ATOM      8  O   UNL     1       6.136   3.520  15.053  0.00  0.00    +0.000 OA
BRANCH   7   9
ATOM      9  O   UNL     1       7.116   5.428  15.751  0.00  0.00    +0.000 OA
ATOM     10  H   UNL     1       7.886   5.354  16.347  0.00  0.00    +0.000 HD
ENDBRANCH   7   9
ENDBRANCH   4   7
BRANCH   1  11
ATOM     11  O   UNL     1       2.463   4.848  20.109  0.00  0.00    +0.000 OA
BRANCH  11  13
ATOM     12  C   UNL     1       0.965   3.032  20.027  0.00  0.00    +0.000 C 
ATOM     13  C   UNL     1       2.086   3.683  20.779  0.00  0.00    +0.000 C 
ATOM     14  O   UNL     1       2.563   3.251  21.820  0.00  0.00    +0.000 OA
ENDBRANCH  11  13
ENDBRANCH   1  11
BRANCH   5  15
ATOM     15  O   UNL     1       7.138   4.617  18.624  0.00  0.00    +0.000 OA
BRANCH  15  16
ATOM     16  C   UNL     1       7.759   5.551  19.464  0.00  0.00    +0.000 C 
ATOM     17  C   UNL     1       8.047   6.800  18.686  0.00  0.00    +0.000 C 
ATOM     18  O   UNL     1       8.081   5.381  20.631  0.00  0.00    +0.000 OA
ENDBRANCH  15  16
ENDBRANCH   5  15
TORSDOF 6
ENDMDL
MODEL 7
REMARK VINA RESULT:      -6.4      2.670      4.212
REMARK  Name = 
REMARK  8 active torsions:
REMARK  status: ('A' for Active; 'I' for Inactive)
REMARK    1  A    between atoms: C_1  and  C_2
REMARK    2  A    between atoms: C_2  and  O_4
REMARK    3  A    between atoms: O_4  and  C_5
REMARK    4  A    between atoms: C_8  and  C_9
REMARK    5  A    between atoms: C_9  and  O_11
REMARK    6  A    between atoms: C_12  and  O_13
REMARK    7  A    between atoms: O_13  and  C_14
REMARK    8  A    between atoms: C_14  and  C_15
REMARK                            x       y       z     vdW  Elec       q    Type
REMARK                         _______ _______ _______ _____ _____    ______ ____
ROOT
ATOM      1  C   UNL     1       3.270   6.340  17.984  0.00  0.00    +0.000 A 
ATOM      2  C   UNL     1       2.235   5.418  18.128  0.00  0.00    +0.000 A 
ATOM      3  C   UNL     1       2.537   4.088  18.430  0.00  0.00    +0.000 A 
ATOM      4  C   UNL     1       3.872   3.683  18.603  0.00  0.00    +0.000 A 
ATOM      5  C   UNL     1       4.899   4.638  18.503  0.00  0.00    +0.000 A 
ATOM      6  C   UNL     1       4.599   5.962  18.177  0.00  0.00    +0.000 A 
ENDROOT
BRANCH   4   7
ATOM      7  C   UNL     1       4.105   2.247  18.913  0.00  0.00    +0.000 C 
ATOM      8  O   UNL     1       3.552   1.346  18.304  0.00  0.00    +0.000 OA
BRANCH   7   9
ATOM      9  O   UNL     1       5.038   2.023  19.860  0.00  0.00    +0.000 OA
ATOM     10  H   UNL     1       4.687   1.620  20.677  0.00  0.00    +0.000 HD
ENDBRANCH   7   9
ENDBRANCH   4   7
BRANCH   1  11
ATOM     11  O   UNL     1       2.893   7.678  17.745  0.00  0.00    +0.000 OA
BRANCH  11  13
ATOM     12  C   UNL     1       1.250   9.360  17.870  0.00  0.00    +0.000 C 
ATOM     13  C   UNL     1       2.031   8.330  18.628  0.00  0.00    +0.000 C 
ATOM     14  O   UNL     1       1.925   8.129  19.830  0.00  0.00    +0.000 OA
ENDBRANCH  11  13
ENDBRANCH   1  11
BRANCH   5  15
ATOM     15  O   UNL     1       6.237   4.210  18.699  0.00  0.00    +0.000 OA
BRANCH  15  16
ATOM     16  C   UNL     1       7.327   4.856  18.101  0.00  0.00    +0.000 C 
ATOM     17  C   UNL     1       7.950   5.794  19.092  0.00  0.00    +0.000 C 
ATOM     18  O   UNL     1       7.697   4.740  16.942  0.00  0.00    +0.000 OA
ENDBRANCH  15  16
ENDBRANCH   5  15
TORSDOF 6
ENDMDL
MODEL 8
REMARK VINA RESULT:      -6.4      0.976      1.135
REMARK  Name = 
REMARK  8 active torsions:
REMARK  status: ('A' for Active; 'I' for Inactive)
REMARK    1  A    between atoms: C_1  and  C_2
REMARK    2  A    between atoms: C_2  and  O_4
REMARK    3  A    between atoms: O_4  and  C_5
REMARK    4  A    between atoms: C_8  and  C_9
REMARK    5  A    between atoms: C_9  and  O_11
REMARK    6  A    between atoms: C_12  and  O_13
REMARK    7  A    between atoms: O_13  and  C_14
REMARK    8  A    between atoms: C_14  and  C_15
REMARK                            x       y       z     vdW  Elec       q    Type
REMARK                         _______ _______ _______ _____ _____    ______ ____
ROOT
ATOM      1  C   UNL     1       3.194   4.469  18.046  0.00  0.00    +0.000 A 
ATOM      2  C   UNL     1       3.824   5.202  19.051  0.00  0.00    +0.000 A 
ATOM      3  C   UNL     1       5.208   5.388  19.000  0.00  0.00    +0.000 A 
ATOM      4  C   UNL     1       5.959   4.856  17.937  0.00  0.00    +0.000 A 
ATOM      5  C   UNL     1       5.298   4.162  16.908  0.00  0.00    +0.000 A 
ATOM      6  C   UNL     1       3.919   3.954  16.972  0.00  0.00    +0.000 A 
ENDROOT
BRANCH   4   7
ATOM      7  C   UNL     1       7.426   5.093  17.966  0.00  0.00    +0.000 C 
ATOM      8  O   UNL     1       7.913   6.157  18.309  0.00  0.00    +0.000 OA
BRANCH   7   9
ATOM      9  O   UNL     1       8.174   4.011  17.664  0.00  0.00    +0.000 OA
ATOM     10  H   UNL     1       7.735   3.380  17.063  0.00  0.00    +0.000 HD
ENDBRANCH   7   9
ENDBRANCH   4   7
BRANCH   1  11
ATOM     11  O   UNL     1       1.789   4.374  18.123  0.00  0.00    +0.000 OA
BRANCH  11  13
ATOM     12  C   UNL     1       1.114   2.226  18.815  0.00  0.00    +0.000 C 
ATOM     13  C   UNL     1       1.191   3.680  19.176  0.00  0.00    +0.000 C 
ATOM     14  O   UNL     1       0.773   4.155  20.222  0.00  0.00    +0.000 OA
ENDBRANCH  11  13
ENDBRANCH   1  11
BRANCH   5  15
ATOM     15  O   UNL     1       6.074   3.649  15.837  0.00  0.00    +0.000 OA
BRANCH  15  16
ATOM     16  C   UNL     1       6.031   4.197  14.548  0.00  0.00    +0.000 C 
ATOM     17  C   UNL     1       7.230   5.075  14.343  0.00  0.00    +0.000 C 
ATOM     18  O   UNL     1       5.141   4.050  13.723  0.00  0.00    +0.000 OA
ENDBRANCH  15  16
ENDBRANCH   5  15
TORSDOF 6
ENDMDL
MODEL 9
REMARK VINA RESULT:      -6.3      2.165      3.513
REMARK  Name = 
REMARK  8 active torsions:
REMARK  status: ('A' for Active; 'I' for Inactive)
REMARK    1  A    between atoms: C_1  and  C_2
REMARK    2  A    between atoms: C_2  and  O_4
REMARK    3  A    between atoms: O_4  and  C_5
REMARK    4  A    between atoms: C_8  and  C_9
REMARK    5  A    between atoms: C_9  and  O_11
REMARK    6  A    between atoms: C_12  and  O_13
REMARK    7  A    between atoms: O_13  and  C_14
REMARK    8  A    between atoms: C_14  and  C_15
REMARK                            x       y       z     vdW  Elec       q    Type
REMARK                         _______ _______ _______ _____ _____    ______ ____
ROOT
ATOM      1  C   UNL     1       3.350   6.006  17.853  0.00  0.00    +0.000 A 
ATOM      2  C   UNL     1       3.367   4.661  17.487  0.00  0.00    +0.000 A 
ATOM      3  C   UNL     1       4.502   4.131  16.870  0.00  0.00    +0.000 A 
ATOM      4  C   UNL     1       5.627   4.941  16.632  0.00  0.00    +0.000 A 
ATOM      5  C   UNL     1       5.610   6.282  17.054  0.00  0.00    +0.000 A 
ATOM      6  C   UNL     1       4.465   6.819  17.648  0.00  0.00    +0.000 A 
ENDROOT
BRANCH   4   7
ATOM      7  C   UNL     1       6.788   4.299  15.962  0.00  0.00    +0.000 C 
ATOM      8  O   UNL     1       6.781   4.000  14.780  0.00  0.00    +0.000 OA
BRANCH   7   9
ATOM      9  O   UNL     1       7.876   4.153  16.746  0.00  0.00    +0.000 OA
ATOM     10  H   UNL     1       7.889   3.323  17.259  0.00  0.00    +0.000 HD
ENDBRANCH   7   9
ENDBRANCH   4   7
BRANCH   1  11
ATOM     11  O   UNL     1       2.200   6.460  18.530  0.00  0.00    +0.000 OA
BRANCH  11  13
ATOM     12  C   UNL     1       1.768   7.751  20.452  0.00  0.00    +0.000 C 
ATOM     13  C   UNL     1       2.138   6.398  19.923  0.00  0.00    +0.000 C 
ATOM     14  O   UNL     1       2.361   5.421  20.623  0.00  0.00    +0.000 OA
ENDBRANCH  11  13
ENDBRANCH   1  11
BRANCH   5  15
ATOM     15  O   UNL     1       6.762   7.075  16.819  0.00  0.00    +0.000 OA
BRANCH  15  16
ATOM     16  C   UNL     1       7.656   7.422  17.841  0.00  0.00    +0.000 C 
ATOM     17  C   UNL     1       8.011   8.873  17.717  0.00  0.00    +0.000 C 
ATOM     18  O   UNL     1       8.136   6.669  18.676  0.00  0.00    +0.000 OA
ENDBRANCH  15  16
ENDBRANCH   5  15
TORSDOF 6
ENDMDL
