MODEL 1
REMARK VINA RESULT:      -7.4      0.000      0.000
REMARK  Name = 
REMARK  1 active torsions:
REMARK  status: ('A' for Active; 'I' for Inactive)
REMARK    1  A    between atoms: C_4  and  C_5
REMARK                            x       y       z     vdW  Elec       q    Type
REMARK                         _______ _______ _______ _____ _____    ______ ____
ROOT
ATOM      1  C   UNL     1       3.319   5.203  18.011  0.00  0.00    +0.000 A 
ATOM      2  C   UNL     1       3.259   6.580  18.130  0.00  0.00    +0.000 A 
ATOM      3  N   UNL     1       4.150   7.133  17.252  0.00  0.00    +0.000 N 
ATOM      4  C   UNL     1       4.806   6.149  16.554  0.00  0.00    +0.000 A 
ATOM      5  C   UNL     1       5.796   6.259  15.570  0.00  0.00    +0.000 A 
ATOM      6  C   UNL     1       6.290   5.075  15.017  0.00  0.00    +0.000 A 
ATOM      7 CL   UNL     1       7.515   5.157  13.808  0.00  0.00    +0.000 Cl
ATOM      8  C   UNL     1       5.809   3.835  15.420  0.00  0.00    +0.000 A 
ATOM      9  C   UNL     1       4.812   3.747  16.401  0.00  0.00    +0.000 A 
ATOM     10  C   UNL     1       4.302   4.922  16.998  0.00  0.00    +0.000 A 
ATOM     11  H   UNL     1       4.306   8.125  17.133  0.00  0.00    +0.000 HD
ENDROOT
BRANCH   1  15
ATOM     12  N   UNL     1       2.148   3.101  22.280  0.00  0.00    +0.000 N 
ATOM     13  C   UNL     1       1.913   3.302  20.922  0.00  0.00    +0.000 A 
ATOM     14  C   UNL     1       2.718   4.160  20.188  0.00  0.00    +0.000 A 
ATOM     15  C   UNL     1       2.499   4.303  18.815  0.00  0.00    +0.000 A 
ATOM     16  C   UNL     1       1.479   3.550  18.233  0.00  0.00    +0.000 A 
ATOM     17  C   UNL     1       0.722   2.725  19.047  0.00  0.00    +0.000 A 
ATOM     18  N   UNL     1       0.918   2.588  20.376  0.00  0.00    +0.000 NA
ATOM     19  H   UNL     1       2.181   3.974  22.791  0.00  0.00    +0.000 HD
ATOM     20  H   UNL     1       1.411   2.486  22.618  0.00  0.00    +0.000 HD
ENDBRANCH   1  15
TORSDOF 1
ENDMDL
MODEL 2
REMARK VINA RESULT:      -7.3      3.428      6.387
REMARK  Name = 
REMARK  1 active torsions:
REMARK  status: ('A' for Active; 'I' for Inactive)
REMARK    1  A    between atoms: C_4  and  C_5
REMARK                            x       y       z     vdW  Elec       q    Type
REMARK                         _______ _______ _______ _____ _____    ______ ____
ROOT
ATOM      1  C   UNL     1       5.659   4.378  16.926  0.00  0.00    +0.000 A 
ATOM      2  C   UNL     1       6.544   4.606  17.965  0.00  0.00    +0.000 A 
ATOM      3  N   UNL     1       5.856   4.550  19.146  0.00  0.00    +0.000 N 
ATOM      4  C   UNL     1       4.527   4.294  18.911  0.00  0.00    +0.000 A 
ATOM      5  C   UNL     1       3.468   4.161  19.818  0.00  0.00    +0.000 A 
ATOM      6  C   UNL     1       2.202   3.892  19.295  0.00  0.00    +0.000 A 
ATOM      7 CL   UNL     1       0.865   3.728  20.369  0.00  0.00    +0.000 Cl
ATOM      8  C   UNL     1       2.001   3.749  17.927  0.00  0.00    +0.000 A 
ATOM      9  C   UNL     1       3.076   3.877  17.037  0.00  0.00    +0.000 A 
ATOM     10  C   UNL     1       4.368   4.170  17.527  0.00  0.00    +0.000 A 
ATOM     11  H   UNL     1       6.264   4.680  20.061  0.00  0.00    +0.000 HD
ENDROOT
BRANCH   1  15
ATOM     12  N   UNL     1       8.612   5.843  13.300  0.00  0.00    +0.000 N 
ATOM     13  C   UNL     1       7.543   5.079  13.759  0.00  0.00    +0.000 A 
ATOM     14  C   UNL     1       7.179   5.110  15.098  0.00  0.00    +0.000 A 
ATOM     15  C   UNL     1       6.068   4.378  15.525  0.00  0.00    +0.000 A 
ATOM     16  C   UNL     1       5.352   3.656  14.570  0.00  0.00    +0.000 A 
ATOM     17  C   UNL     1       5.795   3.678  13.259  0.00  0.00    +0.000 A 
ATOM     18  N   UNL     1       6.873   4.373  12.837  0.00  0.00    +0.000 NA
ATOM     19  H   UNL     1       9.455   5.672  13.832  0.00  0.00    +0.000 HD
ATOM     20  H   UNL     1       8.729   5.623  12.314  0.00  0.00    +0.000 HD
ENDBRANCH   1  15
TORSDOF 1
ENDMDL
MODEL 3
REMARK VINA RESULT:      -7.2      3.309      6.090
REMARK  Name = 
REMARK  1 active torsions:
REMARK  status: ('A' for Active; 'I' for Inactive)
REMARK    1  A    between atoms: C_4  and  C_5
REMARK                            x       y       z     vdW  Elec       q    Type
REMARK                         _______ _______ _______ _____ _____    ______ ____
ROOT
ATOM      1  C   UNL     1       4.093   5.618  17.965  0.00  0.00    +0.000 A 
ATOM      2  C   UNL     1       3.291   6.741  18.054  0.00  0.00    +0.000 A 
ATOM      3  N   UNL     1       2.328   6.516  18.999  0.00  0.00    +0.000 N 
ATOM      4  C   UNL     1       2.473   5.261  19.538  0.00  0.00    +0.000 A 
ATOM      5  C   UNL     1       1.713   4.617  20.522  0.00  0.00    +0.000 A 
ATOM      6  C   UNL     1       2.093   3.324  20.887  0.00  0.00    +0.000 A 
ATOM      7 CL   UNL     1       1.185   2.486  22.087  0.00  0.00    +0.000 Cl
ATOM      8  C   UNL     1       3.193   2.704  20.306  0.00  0.00    +0.000 A 
ATOM      9  C   UNL     1       3.946   3.369  19.329  0.00  0.00    +0.000 A 
ATOM     10  C   UNL     1       3.579   4.671  18.918  0.00  0.00    +0.000 A 
ATOM     11  H   UNL     1       1.611   7.177  19.265  0.00  0.00    +0.000 HD
ENDROOT
BRANCH   1  15
ATOM     12  N   UNL     1       6.321   3.613  14.087  0.00  0.00    +0.000 N 
ATOM     13  C   UNL     1       6.288   4.551  15.116  0.00  0.00    +0.000 A 
ATOM     14  C   UNL     1       5.204   4.609  15.981  0.00  0.00    +0.000 A 
ATOM     15  C   UNL     1       5.218   5.521  17.039  0.00  0.00    +0.000 A 
ATOM     16  C   UNL     1       6.345   6.328  17.194  0.00  0.00    +0.000 A 
ATOM     17  C   UNL     1       7.375   6.205  16.277  0.00  0.00    +0.000 A 
ATOM     18  N   UNL     1       7.367   5.336  15.245  0.00  0.00    +0.000 NA
ATOM     19  H   UNL     1       5.492   3.657  13.509  0.00  0.00    +0.000 HD
ATOM     20  H   UNL     1       7.170   3.790  13.555  0.00  0.00    +0.000 HD
ENDBRANCH   1  15
TORSDOF 1
ENDMDL
MODEL 4
REMARK VINA RESULT:      -7.2      1.540      1.650
REMARK  Name = 
REMARK  1 active torsions:
REMARK  status: ('A' for Active; 'I' for Inactive)
REMARK    1  A    between atoms: C_4  and  C_5
REMARK                            x       y       z     vdW  Elec       q    Type
REMARK                         _______ _______ _______ _____ _____    ______ ____
ROOT
ATOM      1  C   UNL     1       4.680   4.116  18.421  0.00  0.00    +0.000 A 
ATOM      2  C   UNL     1       5.704   4.468  19.281  0.00  0.00    +0.000 A 
ATOM      3  N   UNL     1       6.793   4.834  18.537  0.00  0.00    +0.000 N 
ATOM      4  C   UNL     1       6.512   4.726  17.197  0.00  0.00    +0.000 A 
ATOM      5  C   UNL     1       7.326   4.988  16.088  0.00  0.00    +0.000 A 
ATOM      6  C   UNL     1       6.772   4.795  14.821  0.00  0.00    +0.000 A 
ATOM      7 CL   UNL     1       7.737   5.096  13.426  0.00  0.00    +0.000 Cl
ATOM      8  C   UNL     1       5.458   4.371  14.665  0.00  0.00    +0.000 A 
ATOM      9  C   UNL     1       4.656   4.123  15.787  0.00  0.00    +0.000 A 
ATOM     10  C   UNL     1       5.189   4.287  17.086  0.00  0.00    +0.000 A 
ATOM     11  H   UNL     1       7.678   5.139  18.917  0.00  0.00    +0.000 HD
ENDROOT
BRANCH   1  15
ATOM     12  N   UNL     1       1.684   2.549  21.968  0.00  0.00    +0.000 N 
ATOM     13  C   UNL     1       1.904   2.927  20.647  0.00  0.00    +0.000 A 
ATOM     14  C   UNL     1       3.162   3.344  20.235  0.00  0.00    +0.000 A 
ATOM     15  C   UNL     1       3.373   3.666  18.891  0.00  0.00    +0.000 A 
ATOM     16  C   UNL     1       2.302   3.531  18.009  0.00  0.00    +0.000 A 
ATOM     17  C   UNL     1       1.081   3.115  18.513  0.00  0.00    +0.000 A 
ATOM     18  N   UNL     1       0.862   2.813  19.810  0.00  0.00    +0.000 NA
ATOM     19  H   UNL     1       1.979   3.263  22.621  0.00  0.00    +0.000 HD
ATOM     20  H   UNL     1       0.692   2.338  22.052  0.00  0.00    +0.000 HD
ENDBRANCH   1  15
TORSDOF 1
ENDMDL
MODEL 5
REMARK VINA RESULT:      -7.2      3.632      5.983
REMARK  Name = 
REMARK  1 active torsions:
REMARK  status: ('A' for Active; 'I' for Inactive)
REMARK    1  A    between atoms: C_4  and  C_5
REMARK                            x       y       z     vdW  Elec       q    Type
REMARK                         _______ _______ _______ _____ _____    ______ ____
ROOT
ATOM      1  C   UNL     1       3.317   6.199  18.793  0.00  0.00    +0.000 A 
ATOM      2  C   UNL     1       3.018   5.627  20.017  0.00  0.00    +0.000 A 
ATOM      3  N   UNL     1       2.168   6.460  20.692  0.00  0.00    +0.000 N 
ATOM      4  C   UNL     1       1.900   7.579  19.940  0.00  0.00    +0.000 A 
ATOM      5  C   UNL     1       1.095   8.685  20.239  0.00  0.00    +0.000 A 
ATOM      6  C   UNL     1       0.998   9.690  19.276  0.00  0.00    +0.000 A 
ATOM      7 CL   UNL     1       0.026  11.076  19.599  0.00  0.00    +0.000 Cl
ATOM      8  C   UNL     1       1.665   9.592  18.060  0.00  0.00    +0.000 A 
ATOM      9  C   UNL     1       2.459   8.472  17.777  0.00  0.00    +0.000 A 
ATOM     10  C   UNL     1       2.598   7.444  18.736  0.00  0.00    +0.000 A 
ATOM     11  H   UNL     1       1.790   6.281  21.612  0.00  0.00    +0.000 HD
ENDROOT
BRANCH   1  15
ATOM     12  N   UNL     1       7.400   6.172  16.083  0.00  0.00    +0.000 N 
ATOM     13  C   UNL     1       6.232   5.554  16.522  0.00  0.00    +0.000 A 
ATOM     14  C   UNL     1       5.405   6.185  17.440  0.00  0.00    +0.000 A 
ATOM     15  C   UNL     1       4.210   5.571  17.824  0.00  0.00    +0.000 A 
ATOM     16  C   UNL     1       3.888   4.343  17.244  0.00  0.00    +0.000 A 
ATOM     17  C   UNL     1       4.780   3.786  16.344  0.00  0.00    +0.000 A 
ATOM     18  N   UNL     1       5.942   4.365  15.974  0.00  0.00    +0.000 NA
ATOM     19  H   UNL     1       7.989   6.459  16.854  0.00  0.00    +0.000 HD
ATOM     20  H   UNL     1       7.868   5.511  15.467  0.00  0.00    +0.000 HD
ENDBRANCH   1  15
TORSDOF 1
ENDMDL
MODEL 6
REMARK VINA RESULT:      -7.1      3.638      6.625
REMARK  Name = 
REMARK  1 active torsions:
REMARK  status: ('A' for Active; 'I' for Inactive)
REMARK    1  A    between atoms: C_4  and  C_5
REMARK                            x       y       z     vdW  Elec       q    Type
REMARK                         _______ _______ _______ _____ _____    ______ ____
ROOT
ATOM      1  C   UNL     1       6.423   4.387  16.242  0.00  0.00    +0.000 A 
ATOM      2  C   UNL     1       7.449   4.482  17.165  0.00  0.00    +0.000 A 
ATOM      3  N   UNL     1       6.906   4.501  18.421  0.00  0.00    +0.000 N 
ATOM      4  C   UNL     1       5.536   4.425  18.350  0.00  0.00    +0.000 A 
ATOM      5  C   UNL     1       4.586   4.420  19.378  0.00  0.00    +0.000 A 
ATOM      6  C   UNL     1       3.242   4.327  19.014  0.00  0.00    +0.000 A 
ATOM      7 CL   UNL     1       2.034   4.325  20.242  0.00  0.00    +0.000 Cl
ATOM      8  C   UNL     1       2.861   4.230  17.680  0.00  0.00    +0.000 A 
ATOM      9  C   UNL     1       3.828   4.228  16.666  0.00  0.00    +0.000 A 
ATOM     10  C   UNL     1       5.197   4.342  16.996  0.00  0.00    +0.000 A 
ATOM     11  H   UNL     1       7.435   4.563  19.280  0.00  0.00    +0.000 HD
ENDROOT
BRANCH   1  15
ATOM     12  N   UNL     1       5.681   2.447  11.804  0.00  0.00    +0.000 N 
ATOM     13  C   UNL     1       6.260   3.412  12.624  0.00  0.00    +0.000 A 
ATOM     14  C   UNL     1       6.020   3.409  13.991  0.00  0.00    +0.000 A 
ATOM     15  C   UNL     1       6.656   4.353  14.802  0.00  0.00    +0.000 A 
ATOM     16  C   UNL     1       7.532   5.253  14.196  0.00  0.00    +0.000 A 
ATOM     17  C   UNL     1       7.703   5.185  12.824  0.00  0.00    +0.000 A 
ATOM     18  N   UNL     1       7.085   4.286  12.029  0.00  0.00    +0.000 NA
ATOM     19  H   UNL     1       4.677   2.405  11.920  0.00  0.00    +0.000 HD
ATOM     20  H   UNL     1       5.947   2.675  10.848  0.00  0.00    +0.000 HD
ENDBRANCH   1  15
TORSDOF 1
ENDMDL
MODEL 7
REMARK VINA RESULT:      -7.0      1.664      2.229
REMARK  Name = 
REMARK  1 active torsions:
REMARK  status: ('A' for Active; 'I' for Inactive)
REMARK    1  A    between atoms: C_4  and  C_5
REMARK                            x       y       z     vdW  Elec       q    Type
REMARK                         _______ _______ _______ _____ _____    ______ ____
ROOT
ATOM      1  C   UNL     1       4.814   4.465  18.497  0.00  0.00    +0.000 A 
ATOM      2  C   UNL     1       5.928   4.685  19.287  0.00  0.00    +0.000 A 
ATOM      3  N   UNL     1       7.007   4.891  18.472  0.00  0.00    +0.000 N 
ATOM      4  C   UNL     1       6.632   4.806  17.153  0.00  0.00    +0.000 A 
ATOM      5  C   UNL     1       7.404   4.942  15.993  0.00  0.00    +0.000 A 
ATOM      6  C   UNL     1       6.752   4.811  14.765  0.00  0.00    +0.000 A 
ATOM      7 CL   UNL     1       7.660   4.961  13.309  0.00  0.00    +0.000 Cl
ATOM      8  C   UNL     1       5.385   4.567  14.696  0.00  0.00    +0.000 A 
ATOM      9  C   UNL     1       4.629   4.443  15.869  0.00  0.00    +0.000 A 
ATOM     10  C   UNL     1       5.258   4.549  17.130  0.00  0.00    +0.000 A 
ATOM     11  H   UNL     1       7.948   5.079  18.791  0.00  0.00    +0.000 HD
ENDROOT
BRANCH   1  15
ATOM     12  N   UNL     1       0.650   1.887  18.670  0.00  0.00    +0.000 N 
ATOM     13  C   UNL     1       1.464   2.909  19.150  0.00  0.00    +0.000 A 
ATOM     14  C   UNL     1       2.714   3.134  18.592  0.00  0.00    +0.000 A 
ATOM     15  C   UNL     1       3.491   4.201  19.053  0.00  0.00    +0.000 A 
ATOM     16  C   UNL     1       2.958   5.015  20.053  0.00  0.00    +0.000 A 
ATOM     17  C   UNL     1       1.705   4.708  20.555  0.00  0.00    +0.000 A 
ATOM     18  N   UNL     1       0.951   3.674  20.125  0.00  0.00    +0.000 NA
ATOM     19  H   UNL     1       1.127   0.995  18.662  0.00  0.00    +0.000 HD
ATOM     20  H   UNL     1      -0.182   1.873  19.257  0.00  0.00    +0.000 HD
ENDBRANCH   1  15
TORSDOF 1
ENDMDL
MODEL 8
REMARK VINA RESULT:      -7.0      1.986      2.447
REMARK  Name = 
REMARK  1 active torsions:
REMARK  status: ('A' for Active; 'I' for Inactive)
REMARK    1  A    between atoms: C_4  and  C_5
REMARK                            x       y       z     vdW  Elec       q    Type
REMARK                         _______ _______ _______ _____ _____    ______ ____
ROOT
ATOM      1  C   UNL     1       5.669   4.652  18.135  0.00  0.00    +0.000 A 
ATOM      2  C   UNL     1       6.887   5.144  18.567  0.00  0.00    +0.000 A 
ATOM      3  N   UNL     1       7.705   5.301  17.482  0.00  0.00    +0.000 N 
ATOM      4  C   UNL     1       7.053   4.917  16.335  0.00  0.00    +0.000 A 
ATOM      5  C   UNL     1       7.507   4.905  15.010  0.00  0.00    +0.000 A 
ATOM      6  C   UNL     1       6.618   4.464  14.028  0.00  0.00    +0.000 A 
ATOM      7 CL   UNL     1       7.132   4.423  12.384  0.00  0.00    +0.000 Cl
ATOM      8  C   UNL     1       5.327   4.064  14.351  0.00  0.00    +0.000 A 
ATOM      9  C   UNL     1       4.889   4.093  15.682  0.00  0.00    +0.000 A 
ATOM     10  C   UNL     1       5.767   4.513  16.706  0.00  0.00    +0.000 A 
ATOM     11  H   UNL     1       8.653   5.649  17.516  0.00  0.00    +0.000 HD
ENDROOT
BRANCH   1  15
ATOM     12  N   UNL     1       1.862   6.061  20.879  0.00  0.00    +0.000 N 
ATOM     13  C   UNL     1       2.680   5.060  20.364  0.00  0.00    +0.000 A 
ATOM     14  C   UNL     1       3.723   5.376  19.505  0.00  0.00    +0.000 A 
ATOM     15  C   UNL     1       4.566   4.360  19.045  0.00  0.00    +0.000 A 
ATOM     16  C   UNL     1       4.330   3.060  19.492  0.00  0.00    +0.000 A 
ATOM     17  C   UNL     1       3.260   2.839  20.342  0.00  0.00    +0.000 A 
ATOM     18  N   UNL     1       2.433   3.810  20.784  0.00  0.00    +0.000 NA
ATOM     19  H   UNL     1       1.469   6.642  20.150  0.00  0.00    +0.000 HD
ATOM     20  H   UNL     1       1.142   5.598  21.431  0.00  0.00    +0.000 HD
ENDBRANCH   1  15
TORSDOF 1
ENDMDL
MODEL 9
REMARK VINA RESULT:      -7.0      2.506      4.300
REMARK  Name = 
REMARK  1 active torsions:
REMARK  status: ('A' for Active; 'I' for Inactive)
REMARK    1  A    between atoms: C_4  and  C_5
REMARK                            x       y       z     vdW  Elec       q    Type
REMARK                         _______ _______ _______ _____ _____    ______ ____
ROOT
ATOM      1  C   UNL     1       2.782   6.102  18.568  0.00  0.00    +0.000 A 
ATOM      2  C   UNL     1       2.450   4.859  19.076  0.00  0.00    +0.000 A 
ATOM      3  N   UNL     1       3.166   3.907  18.403  0.00  0.00    +0.000 N 
ATOM      4  C   UNL     1       3.965   4.495  17.453  0.00  0.00    +0.000 A 
ATOM      5  C   UNL     1       4.850   3.907  16.541  0.00  0.00    +0.000 A 
ATOM      6  C   UNL     1       5.549   4.756  15.681  0.00  0.00    +0.000 A 
ATOM      7 CL   UNL     1       6.643   4.081  14.535  0.00  0.00    +0.000 Cl
ATOM      8  C   UNL     1       5.382   6.135  15.736  0.00  0.00    +0.000 A 
ATOM      9  C   UNL     1       4.498   6.705  16.662  0.00  0.00    +0.000 A 
ATOM     10  C   UNL     1       3.758   5.875  17.534  0.00  0.00    +0.000 A 
ATOM     11  H   UNL     1       3.115   2.913  18.578  0.00  0.00    +0.000 HD
ENDROOT
BRANCH   1  15
ATOM     12  N   UNL     1       1.274  10.718  17.904  0.00  0.00    +0.000 N 
ATOM     13  C   UNL     1       1.423   9.596  18.714  0.00  0.00    +0.000 A 
ATOM     14  C   UNL     1       1.998   8.437  18.213  0.00  0.00    +0.000 A 
ATOM     15  C   UNL     1       2.188   7.341  19.060  0.00  0.00    +0.000 A 
ATOM     16  C   UNL     1       1.806   7.472  20.395  0.00  0.00    +0.000 A 
ATOM     17  C   UNL     1       1.233   8.664  20.803  0.00  0.00    +0.000 A 
ATOM     18  N   UNL     1       1.034   9.724  19.991  0.00  0.00    +0.000 NA
ATOM     19  H   UNL     1       0.786  10.502  17.045  0.00  0.00    +0.000 HD
ATOM     20  H   UNL     1       0.786  11.418  18.458  0.00  0.00    +0.000 HD
ENDBRANCH   1  15
TORSDOF 1
ENDMDL
