MODEL 1
REMARK VINA RESULT:      -8.4      0.000      0.000
REMARK  Name = 
REMARK  3 active torsions:
REMARK  status: ('A' for Active; 'I' for Inactive)
REMARK    1  A    between atoms: C_1  and  N_2
REMARK    2  A    between atoms: N_2  and  C_3
REMARK    3  A    between atoms: N_6  and  C_7
REMARK                            x       y       z     vdW  Elec       q    Type
REMARK                         _______ _______ _______ _____ _____    ______ ____
ROOT
ATOM      1  C   UNL     1       5.494   5.017  18.064  0.00  0.00    +0.000 A 
ATOM      2  N   UNL     1       6.363   5.894  18.636  0.00  0.00    +0.000 NA
ATOM      3  C   UNL     1       7.380   6.407  17.917  0.00  0.00    +0.000 A 
ATOM      4  N   UNL     1       8.244   7.257  18.584  0.00  0.00    +0.000 N 
ATOM      5  N   UNL     1       7.676   6.141  16.641  0.00  0.00    +0.000 NA
ATOM      6  C   UNL     1       6.802   5.303  16.043  0.00  0.00    +0.000 A 
ATOM      7  C   UNL     1       5.737   4.738  16.720  0.00  0.00    +0.000 A 
ATOM      8  O   UNL     1       5.009   3.945  15.884  0.00  0.00    +0.000 OA
ATOM      9  C   UNL     1       5.593   4.020  14.662  0.00  0.00    +0.000 A 
ATOM     10  C   UNL     1       5.121   3.376  13.519  0.00  0.00    +0.000 A 
ATOM     11  C   UNL     1       5.847   3.580  12.344  0.00  0.00    +0.000 A 
ATOM     12  C   UNL     1       6.989   4.381  12.348  0.00  0.00    +0.000 A 
ATOM     13  F   UNL     1       7.659   4.551  11.200  0.00  0.00    +0.000 F 
ATOM     14  C   UNL     1       7.439   5.011  13.513  0.00  0.00    +0.000 A 
ATOM     15  F   UNL     1       8.539   5.776  13.476  0.00  0.00    +0.000 F 
ATOM     16  C   UNL     1       6.721   4.836  14.704  0.00  0.00    +0.000 A 
ATOM     17  H   UNL     1       8.211   7.076  19.578  0.00  0.00    +0.000 HD
ATOM     18  H   UNL     1       9.149   7.252  18.135  0.00  0.00    +0.000 HD
ENDROOT
BRANCH   1  22
ATOM     19  C   UNL     1       2.165   3.940  19.256  0.00  0.00    +0.000 C 
ATOM     20  C   UNL     1       2.991   2.655  19.119  0.00  0.00    +0.000 C 
ATOM     21  C   UNL     1       4.448   3.099  19.240  0.00  0.00    +0.000 C 
ATOM     22  N   UNL     1       4.447   4.474  18.774  0.00  0.00    +0.000 N 
ATOM     23  C   UNL     1       3.090   4.979  18.578  0.00  0.00    +0.000 C 
BRANCH  19  25
ATOM     24  C   UNL     1       1.421   2.993  21.378  0.00  0.00    +0.000 C 
ATOM     25  N   UNL     1       1.841   4.199  20.672  0.00  0.00    +0.000 NA
ATOM     26  H   UNL     1       2.671   4.571  21.135  0.00  0.00    +0.000 HD
ENDBRANCH  19  25
ENDBRANCH   1  22
TORSDOF 2
ENDMDL
MODEL 2
REMARK VINA RESULT:      -8.2      0.690      1.079
REMARK  Name = 
REMARK  3 active torsions:
REMARK  status: ('A' for Active; 'I' for Inactive)
REMARK    1  A    between atoms: C_1  and  N_2
REMARK    2  A    between atoms: N_2  and  C_3
REMARK    3  A    between atoms: N_6  and  C_7
REMARK                            x       y       z     vdW  Elec       q    Type
REMARK                         _______ _______ _______ _____ _____    ______ ____
ROOT
ATOM      1  C   UNL     1       5.398   5.058  17.943  0.00  0.00    +0.000 A 
ATOM      2  N   UNL     1       6.275   5.907  18.546  0.00  0.00    +0.000 NA
ATOM      3  C   UNL     1       7.328   6.393  17.860  0.00  0.00    +0.000 A 
ATOM      4  N   UNL     1       8.196   7.213  18.556  0.00  0.00    +0.000 N 
ATOM      5  N   UNL     1       7.653   6.126  16.592  0.00  0.00    +0.000 NA
ATOM      6  C   UNL     1       6.772   5.317  15.963  0.00  0.00    +0.000 A 
ATOM      7  C   UNL     1       5.672   4.780  16.605  0.00  0.00    +0.000 A 
ATOM      8  O   UNL     1       4.946   4.014  15.744  0.00  0.00    +0.000 OA
ATOM      9  C   UNL     1       5.567   4.078  14.540  0.00  0.00    +0.000 A 
ATOM     10  C   UNL     1       5.109   3.454  13.379  0.00  0.00    +0.000 A 
ATOM     11  C   UNL     1       5.875   3.643  12.227  0.00  0.00    +0.000 A 
ATOM     12  C   UNL     1       7.039   4.410  12.269  0.00  0.00    +0.000 A 
ATOM     13  F   UNL     1       7.747   4.567  11.142  0.00  0.00    +0.000 F 
ATOM     14  C   UNL     1       7.474   5.020  13.451  0.00  0.00    +0.000 A 
ATOM     15  F   UNL     1       8.596   5.752  13.450  0.00  0.00    +0.000 F 
ATOM     16  C   UNL     1       6.716   4.860  14.619  0.00  0.00    +0.000 A 
ATOM     17  H   UNL     1       8.129   7.028  19.548  0.00  0.00    +0.000 HD
ATOM     18  H   UNL     1       9.113   7.184  18.134  0.00  0.00    +0.000 HD
ENDROOT
BRANCH   1  22
ATOM     19  C   UNL     1       3.173   3.217  20.251  0.00  0.00    +0.000 C 
ATOM     20  C   UNL     1       2.833   4.700  20.444  0.00  0.00    +0.000 C 
ATOM     21  C   UNL     1       3.249   5.381  19.140  0.00  0.00    +0.000 C 
ATOM     22  N   UNL     1       4.315   4.543  18.619  0.00  0.00    +0.000 N 
ATOM     23  C   UNL     1       4.447   3.300  19.376  0.00  0.00    +0.000 C 
BRANCH  19  25
ATOM     24  C   UNL     1       0.746   3.026  20.098  0.00  0.00    +0.000 C 
ATOM     25  N   UNL     1       2.032   2.498  19.654  0.00  0.00    +0.000 NA
ATOM     26  H   UNL     1       2.083   2.586  18.639  0.00  0.00    +0.000 HD
ENDBRANCH  19  25
ENDBRANCH   1  22
TORSDOF 2
ENDMDL
MODEL 3
REMARK VINA RESULT:      -8.0      3.261      6.379
REMARK  Name = 
REMARK  3 active torsions:
REMARK  status: ('A' for Active; 'I' for Inactive)
REMARK    1  A    between atoms: C_1  and  N_2
REMARK    2  A    between atoms: N_2  and  C_3
REMARK    3  A    between atoms: N_6  and  C_7
REMARK                            x       y       z     vdW  Elec       q    Type
REMARK                         _______ _______ _______ _____ _____    ______ ____
ROOT
ATOM      1  C   UNL     1       6.409   5.132  15.422  0.00  0.00    +0.000 A 
ATOM      2  N   UNL     1       7.216   6.119  15.899  0.00  0.00    +0.000 NA
ATOM      3  C   UNL     1       6.927   6.726  17.066  0.00  0.00    +0.000 A 
ATOM      4  N   UNL     1       7.772   7.748  17.460  0.00  0.00    +0.000 N 
ATOM      5  N   UNL     1       5.881   6.481  17.861  0.00  0.00    +0.000 NA
ATOM      6  C   UNL     1       5.090   5.477  17.426  0.00  0.00    +0.000 A 
ATOM      7  C   UNL     1       5.325   4.813  16.237  0.00  0.00    +0.000 A 
ATOM      8  O   UNL     1       4.388   3.842  16.042  0.00  0.00    +0.000 OA
ATOM      9  C   UNL     1       3.565   3.866  17.119  0.00  0.00    +0.000 A 
ATOM     10  C   UNL     1       2.494   2.995  17.317  0.00  0.00    +0.000 A 
ATOM     11  C   UNL     1       1.764   3.163  18.495  0.00  0.00    +0.000 A 
ATOM     12  C   UNL     1       2.103   4.166  19.401  0.00  0.00    +0.000 A 
ATOM     13  F   UNL     1       1.376   4.296  20.519  0.00  0.00    +0.000 F 
ATOM     14  C   UNL     1       3.181   5.028  19.172  0.00  0.00    +0.000 A 
ATOM     15  F   UNL     1       3.478   5.979  20.068  0.00  0.00    +0.000 F 
ATOM     16  C   UNL     1       3.942   4.873  18.005  0.00  0.00    +0.000 A 
ATOM     17  H   UNL     1       8.246   8.135  16.656  0.00  0.00    +0.000 HD
ATOM     18  H   UNL     1       7.281   8.386  18.069  0.00  0.00    +0.000 HD
ENDROOT
BRANCH   1  22
ATOM     19  C   UNL     1       6.188   3.553  12.087  0.00  0.00    +0.000 C 
ATOM     20  C   UNL     1       7.230   4.669  11.947  0.00  0.00    +0.000 C 
ATOM     21  C   UNL     1       7.769   4.896  13.360  0.00  0.00    +0.000 C 
ATOM     22  N   UNL     1       6.677   4.496  14.231  0.00  0.00    +0.000 N 
ATOM     23  C   UNL     1       5.599   3.849  13.487  0.00  0.00    +0.000 C 
BRANCH  19  25
ATOM     24  C   UNL     1       5.985   1.300  11.174  0.00  0.00    +0.000 C 
ATOM     25  N   UNL     1       6.821   2.230  11.926  0.00  0.00    +0.000 NA
ATOM     26  H   UNL     1       7.703   2.347  11.426  0.00  0.00    +0.000 HD
ENDBRANCH  19  25
ENDBRANCH   1  22
TORSDOF 2
ENDMDL
MODEL 4
REMARK VINA RESULT:      -7.9      4.028      6.990
REMARK  Name = 
REMARK  3 active torsions:
REMARK  status: ('A' for Active; 'I' for Inactive)
REMARK    1  A    between atoms: C_1  and  N_2
REMARK    2  A    between atoms: N_2  and  C_3
REMARK    3  A    between atoms: N_6  and  C_7
REMARK                            x       y       z     vdW  Elec       q    Type
REMARK                         _______ _______ _______ _____ _____    ______ ____
ROOT
ATOM      1  C   UNL     1       4.673   4.338  17.768  0.00  0.00    +0.000 A 
ATOM      2  N   UNL     1       4.558   3.312  18.655  0.00  0.00    +0.000 NA
ATOM      3  C   UNL     1       3.816   3.459  19.769  0.00  0.00    +0.000 A 
ATOM      4  N   UNL     1       3.786   2.386  20.641  0.00  0.00    +0.000 N 
ATOM      5  N   UNL     1       3.145   4.551  20.149  0.00  0.00    +0.000 NA
ATOM      6  C   UNL     1       3.212   5.567  19.262  0.00  0.00    +0.000 A 
ATOM      7  C   UNL     1       3.957   5.487  18.100  0.00  0.00    +0.000 A 
ATOM      8  O   UNL     1       3.844   6.640  17.382  0.00  0.00    +0.000 OA
ATOM      9  C   UNL     1       3.005   7.452  18.072  0.00  0.00    +0.000 A 
ATOM     10  C   UNL     1       2.603   8.718  17.646  0.00  0.00    +0.000 A 
ATOM     11  C   UNL     1       1.723   9.406  18.484  0.00  0.00    +0.000 A 
ATOM     12  C   UNL     1       1.297   8.837  19.684  0.00  0.00    +0.000 A 
ATOM     13  F   UNL     1       0.454   9.531  20.461  0.00  0.00    +0.000 F 
ATOM     14  C   UNL     1       1.723   7.566  20.085  0.00  0.00    +0.000 A 
ATOM     15  F   UNL     1       1.289   7.052  21.244  0.00  0.00    +0.000 F 
ATOM     16  C   UNL     1       2.594   6.846  19.256  0.00  0.00    +0.000 A 
ATOM     17  H   UNL     1       4.605   1.809  20.509  0.00  0.00    +0.000 HD
ATOM     18  H   UNL     1       3.583   2.707  21.577  0.00  0.00    +0.000 HD
ENDROOT
BRANCH   1  22
ATOM     19  C   UNL     1       6.010   4.578  14.330  0.00  0.00    +0.000 C 
ATOM     20  C   UNL     1       7.129   5.088  15.246  0.00  0.00    +0.000 C 
ATOM     21  C   UNL     1       6.862   4.443  16.606  0.00  0.00    +0.000 C 
ATOM     22  N   UNL     1       5.427   4.218  16.623  0.00  0.00    +0.000 N 
ATOM     23  C   UNL     1       4.822   4.474  15.318  0.00  0.00    +0.000 C 
BRANCH  19  25
ATOM     24  C   UNL     1       6.050   3.287  12.261  0.00  0.00    +0.000 C 
ATOM     25  N   UNL     1       6.410   3.318  13.675  0.00  0.00    +0.000 NA
ATOM     26  H   UNL     1       7.422   3.215  13.752  0.00  0.00    +0.000 HD
ENDBRANCH  19  25
ENDBRANCH   1  22
TORSDOF 2
ENDMDL
MODEL 5
REMARK VINA RESULT:      -7.8      4.466      7.408
REMARK  Name = 
REMARK  3 active torsions:
REMARK  status: ('A' for Active; 'I' for Inactive)
REMARK    1  A    between atoms: C_1  and  N_2
REMARK    2  A    between atoms: N_2  and  C_3
REMARK    3  A    between atoms: N_6  and  C_7
REMARK                            x       y       z     vdW  Elec       q    Type
REMARK                         _______ _______ _______ _____ _____    ______ ____
ROOT
ATOM      1  C   UNL     1       4.003   5.188  18.413  0.00  0.00    +0.000 A 
ATOM      2  N   UNL     1       3.743   4.187  19.297  0.00  0.00    +0.000 NA
ATOM      3  C   UNL     1       2.869   4.381  20.303  0.00  0.00    +0.000 A 
ATOM      4  N   UNL     1       2.693   3.329  21.184  0.00  0.00    +0.000 N 
ATOM      5  N   UNL     1       2.190   5.500  20.573  0.00  0.00    +0.000 NA
ATOM      6  C   UNL     1       2.403   6.494  19.683  0.00  0.00    +0.000 A 
ATOM      7  C   UNL     1       3.288   6.365  18.629  0.00  0.00    +0.000 A 
ATOM      8  O   UNL     1       3.305   7.504  17.880  0.00  0.00    +0.000 OA
ATOM      9  C   UNL     1       2.412   8.357  18.441  0.00  0.00    +0.000 A 
ATOM     10  C   UNL     1       2.109   9.624  17.943  0.00  0.00    +0.000 A 
ATOM     11  C   UNL     1       1.151  10.357  18.648  0.00  0.00    +0.000 A 
ATOM     12  C   UNL     1       0.557   9.828  19.793  0.00  0.00    +0.000 A 
ATOM     13  F   UNL     1      -0.356  10.564  20.442  0.00  0.00    +0.000 F 
ATOM     14  C   UNL     1       0.887   8.554  20.270  0.00  0.00    +0.000 A 
ATOM     15  F   UNL     1       0.292   8.080  21.373  0.00  0.00    +0.000 F 
ATOM     16  C   UNL     1       1.833   7.790  19.573  0.00  0.00    +0.000 A 
ATOM     17  H   UNL     1       3.503   2.725  21.169  0.00  0.00    +0.000 HD
ATOM     18  H   UNL     1       2.382   3.677  22.080  0.00  0.00    +0.000 HD
ENDROOT
BRANCH   1  22
ATOM     19  C   UNL     1       6.987   4.497  16.344  0.00  0.00    +0.000 C 
ATOM     20  C   UNL     1       5.888   3.574  15.805  0.00  0.00    +0.000 C 
ATOM     21  C   UNL     1       4.572   4.250  16.187  0.00  0.00    +0.000 C 
ATOM     22  N   UNL     1       4.893   5.020  17.377  0.00  0.00    +0.000 N 
ATOM     23  C   UNL     1       6.331   5.044  17.635  0.00  0.00    +0.000 C 
BRANCH  19  25
ATOM     24  C   UNL     1       7.293   4.987  13.974  0.00  0.00    +0.000 C 
ATOM     25  N   UNL     1       7.355   5.509  15.335  0.00  0.00    +0.000 NA
ATOM     26  H   UNL     1       6.709   6.295  15.408  0.00  0.00    +0.000 HD
ENDBRANCH  19  25
ENDBRANCH   1  22
TORSDOF 2
ENDMDL
MODEL 6
REMARK VINA RESULT:      -7.8      3.604      6.543
REMARK  Name = 
REMARK  3 active torsions:
REMARK  status: ('A' for Active; 'I' for Inactive)
REMARK    1  A    between atoms: C_1  and  N_2
REMARK    2  A    between atoms: N_2  and  C_3
REMARK    3  A    between atoms: N_6  and  C_7
REMARK                            x       y       z     vdW  Elec       q    Type
REMARK                         _______ _______ _______ _____ _____    ______ ____
ROOT
ATOM      1  C   UNL     1       6.170   4.402  16.936  0.00  0.00    +0.000 A 
ATOM      2  N   UNL     1       7.120   4.955  17.737  0.00  0.00    +0.000 NA
ATOM      3  C   UNL     1       6.868   5.163  19.044  0.00  0.00    +0.000 A 
ATOM      4  N   UNL     1       7.869   5.769  19.781  0.00  0.00    +0.000 N 
ATOM      5  N   UNL     1       5.733   4.892  19.696  0.00  0.00    +0.000 NA
ATOM      6  C   UNL     1       4.790   4.304  18.927  0.00  0.00    +0.000 A 
ATOM      7  C   UNL     1       4.980   4.065  17.579  0.00  0.00    +0.000 A 
ATOM      8  O   UNL     1       3.884   3.455  17.045  0.00  0.00    +0.000 OA
ATOM      9  C   UNL     1       2.998   3.281  18.058  0.00  0.00    +0.000 A 
ATOM     10  C   UNL     1       1.759   2.654  17.926  0.00  0.00    +0.000 A 
ATOM     11  C   UNL     1       0.985   2.555  19.085  0.00  0.00    +0.000 A 
ATOM     12  C   UNL     1       1.448   3.077  20.292  0.00  0.00    +0.000 A 
ATOM     13  F   UNL     1       0.675   2.963  21.380  0.00  0.00    +0.000 F 
ATOM     14  C   UNL     1       2.695   3.705  20.390  0.00  0.00    +0.000 A 
ATOM     15  F   UNL     1       3.106   4.191  21.569  0.00  0.00    +0.000 F 
ATOM     16  C   UNL     1       3.500   3.804  19.247  0.00  0.00    +0.000 A 
ATOM     17  H   UNL     1       8.476   6.299  19.171  0.00  0.00    +0.000 HD
ATOM     18  H   UNL     1       7.471   6.245  20.578  0.00  0.00    +0.000 HD
ENDROOT
BRANCH   1  22
ATOM     19  C   UNL     1       5.863   4.076  13.266  0.00  0.00    +0.000 C 
ATOM     20  C   UNL     1       7.019   5.056  13.499  0.00  0.00    +0.000 C 
ATOM     21  C   UNL     1       7.545   4.733  14.897  0.00  0.00    +0.000 C 
ATOM     22  N   UNL     1       6.397   4.181  15.596  0.00  0.00    +0.000 N 
ATOM     23  C   UNL     1       5.275   3.943  14.691  0.00  0.00    +0.000 C 
BRANCH  19  25
ATOM     24  C   UNL     1       5.505   2.361  11.569  0.00  0.00    +0.000 C 
ATOM     25  N   UNL     1       6.358   2.826  12.658  0.00  0.00    +0.000 NA
ATOM     26  H   UNL     1       7.294   2.990  12.287  0.00  0.00    +0.000 HD
ENDBRANCH  19  25
ENDBRANCH   1  22
TORSDOF 2
ENDMDL
MODEL 7
REMARK VINA RESULT:      -7.8      4.049      7.152
REMARK  Name = 
REMARK  3 active torsions:
REMARK  status: ('A' for Active; 'I' for Inactive)
REMARK    1  A    between atoms: C_1  and  N_2
REMARK    2  A    between atoms: N_2  and  C_3
REMARK    3  A    between atoms: N_6  and  C_7
REMARK                            x       y       z     vdW  Elec       q    Type
REMARK                         _______ _______ _______ _____ _____    ______ ____
ROOT
ATOM      1  C   UNL     1       4.805   4.849  17.442  0.00  0.00    +0.000 A 
ATOM      2  N   UNL     1       4.823   3.760  18.257  0.00  0.00    +0.000 NA
ATOM      3  C   UNL     1       4.121   3.763  19.407  0.00  0.00    +0.000 A 
ATOM      4  N   UNL     1       4.227   2.636  20.201  0.00  0.00    +0.000 N 
ATOM      5  N   UNL     1       3.374   4.760  19.890  0.00  0.00    +0.000 NA
ATOM      6  C   UNL     1       3.309   5.835  19.075  0.00  0.00    +0.000 A 
ATOM      7  C   UNL     1       4.005   5.902  17.882  0.00  0.00    +0.000 A 
ATOM      8  O   UNL     1       3.757   7.085  17.253  0.00  0.00    +0.000 OA
ATOM      9  C   UNL     1       2.882   7.769  18.031  0.00  0.00    +0.000 A 
ATOM     10  C   UNL     1       2.349   9.018  17.712  0.00  0.00    +0.000 A 
ATOM     11  C   UNL     1       1.450   9.565  18.631  0.00  0.00    +0.000 A 
ATOM     12  C   UNL     1       1.132   8.879  19.802  0.00  0.00    +0.000 A 
ATOM     13  F   UNL     1       0.266   9.438  20.659  0.00  0.00    +0.000 F 
ATOM     14  C   UNL     1       1.687   7.629  20.095  0.00  0.00    +0.000 A 
ATOM     15  F   UNL     1       1.354   7.000  21.231  0.00  0.00    +0.000 F 
ATOM     16  C   UNL     1       2.580   7.050  19.184  0.00  0.00    +0.000 A 
ATOM     17  H   UNL     1       5.088   2.146  19.997  0.00  0.00    +0.000 HD
ATOM     18  H   UNL     1       4.039   2.872  21.165  0.00  0.00    +0.000 HD
ENDROOT
BRANCH   1  22
ATOM     19  C   UNL     1       7.278   4.315  14.747  0.00  0.00    +0.000 C 
ATOM     20  C   UNL     1       5.923   3.920  14.148  0.00  0.00    +0.000 C 
ATOM     21  C   UNL     1       4.884   4.685  14.967  0.00  0.00    +0.000 C 
ATOM     22  N   UNL     1       5.514   4.877  16.262  0.00  0.00    +0.000 N 
ATOM     23  C   UNL     1       6.921   4.485  16.243  0.00  0.00    +0.000 C 
BRANCH  19  25
ATOM     24  C   UNL     1       7.901   5.351  12.628  0.00  0.00    +0.000 C 
ATOM     25  N   UNL     1       7.812   5.515  14.076  0.00  0.00    +0.000 NA
ATOM     26  H   UNL     1       7.194   6.303  14.273  0.00  0.00    +0.000 HD
ENDBRANCH  19  25
ENDBRANCH   1  22
TORSDOF 2
ENDMDL
MODEL 8
REMARK VINA RESULT:      -7.5      1.203      1.550
REMARK  Name = 
REMARK  3 active torsions:
REMARK  status: ('A' for Active; 'I' for Inactive)
REMARK    1  A    between atoms: C_1  and  N_2
REMARK    2  A    between atoms: N_2  and  C_3
REMARK    3  A    between atoms: N_6  and  C_7
REMARK                            x       y       z     vdW  Elec       q    Type
REMARK                         _______ _______ _______ _____ _____    ______ ____
ROOT
ATOM      1  C   UNL     1       5.059   4.615  18.802  0.00  0.00    +0.000 A 
ATOM      2  N   UNL     1       6.084   5.100  19.555  0.00  0.00    +0.000 NA
ATOM      3  C   UNL     1       7.265   5.396  18.981  0.00  0.00    +0.000 A 
ATOM      4  N   UNL     1       8.269   5.842  19.821  0.00  0.00    +0.000 N 
ATOM      5  N   UNL     1       7.590   5.257  17.692  0.00  0.00    +0.000 NA
ATOM      6  C   UNL     1       6.573   4.815  16.920  0.00  0.00    +0.000 A 
ATOM      7  C   UNL     1       5.335   4.490  17.441  0.00  0.00    +0.000 A 
ATOM      8  O   UNL     1       4.493   4.084  16.450  0.00  0.00    +0.000 OA
ATOM      9  C   UNL     1       5.184   4.173  15.286  0.00  0.00    +0.000 A 
ATOM     10  C   UNL     1       4.655   3.880  14.028  0.00  0.00    +0.000 A 
ATOM     11  C   UNL     1       5.514   4.042  12.939  0.00  0.00    +0.000 A 
ATOM     12  C   UNL     1       6.830   4.463  13.131  0.00  0.00    +0.000 A 
ATOM     13  F   UNL     1       7.623   4.604  12.061  0.00  0.00    +0.000 F 
ATOM     14  C   UNL     1       7.331   4.744  14.407  0.00  0.00    +0.000 A 
ATOM     15  F   UNL     1       8.601   5.149  14.551  0.00  0.00    +0.000 F 
ATOM     16  C   UNL     1       6.487   4.606  15.517  0.00  0.00    +0.000 A 
ATOM     17  H   UNL     1       8.096   5.527  20.766  0.00  0.00    +0.000 HD
ATOM     18  H   UNL     1       9.173   5.642  19.417  0.00  0.00    +0.000 HD
ENDROOT
BRANCH   1  22
ATOM     19  C   UNL     1       2.290   3.049  20.684  0.00  0.00    +0.000 C 
ATOM     20  C   UNL     1       2.364   4.496  21.186  0.00  0.00    +0.000 C 
ATOM     21  C   UNL     1       3.022   5.282  20.051  0.00  0.00    +0.000 C 
ATOM     22  N   UNL     1       3.841   4.301  19.361  0.00  0.00    +0.000 N 
ATOM     23  C   UNL     1       3.582   2.945  19.839  0.00  0.00    +0.000 C 
BRANCH  19  25
ATOM     24  C   UNL     1       1.237   2.137  18.682  0.00  0.00    +0.000 C 
ATOM     25  N   UNL     1       1.028   2.817  19.956  0.00  0.00    +0.000 NA
ATOM     26  H   UNL     1       0.417   2.239  20.534  0.00  0.00    +0.000 HD
ENDBRANCH  19  25
ENDBRANCH   1  22
TORSDOF 2
ENDMDL
MODEL 9
REMARK VINA RESULT:      -7.5      4.836      7.742
REMARK  Name = 
REMARK  3 active torsions:
REMARK  status: ('A' for Active; 'I' for Inactive)
REMARK    1  A    between atoms: C_1  and  N_2
REMARK    2  A    between atoms: N_2  and  C_3
REMARK    3  A    between atoms: N_6  and  C_7
REMARK                            x       y       z     vdW  Elec       q    Type
REMARK                         _______ _______ _______ _____ _____    ______ ____
ROOT
ATOM      1  C   UNL     1       3.638   5.597  19.007  0.00  0.00    +0.000 A 
ATOM      2  N   UNL     1       3.332   4.587  19.866  0.00  0.00    +0.000 NA
ATOM      3  C   UNL     1       2.360   4.749  20.784  0.00  0.00    +0.000 A 
ATOM      4  N   UNL     1       2.141   3.691  21.649  0.00  0.00    +0.000 N 
ATOM      5  N   UNL     1       1.618   5.842  20.984  0.00  0.00    +0.000 NA
ATOM      6  C   UNL     1       1.877   6.842  20.115  0.00  0.00    +0.000 A 
ATOM      7  C   UNL     1       2.862   6.747  19.149  0.00  0.00    +0.000 A 
ATOM      8  O   UNL     1       2.907   7.885  18.402  0.00  0.00    +0.000 OA
ATOM      9  C   UNL     1       1.934   8.704  18.872  0.00  0.00    +0.000 A 
ATOM     10  C   UNL     1       1.632   9.959  18.343  0.00  0.00    +0.000 A 
ATOM     11  C   UNL     1       0.585  10.655  18.951  0.00  0.00    +0.000 A 
ATOM     12  C   UNL     1      -0.095  10.105  20.037  0.00  0.00    +0.000 A 
ATOM     13  F   UNL     1      -1.092  10.806  20.594  0.00  0.00    +0.000 F 
ATOM     14  C   UNL     1       0.236   8.845  20.547  0.00  0.00    +0.000 A 
ATOM     15  F   UNL     1      -0.443   8.348  21.591  0.00  0.00    +0.000 F 
ATOM     16  C   UNL     1       1.271   8.116  19.947  0.00  0.00    +0.000 A 
ATOM     17  H   UNL     1       2.971   3.118  21.713  0.00  0.00    +0.000 HD
ATOM     18  H   UNL     1       1.734   4.027  22.510  0.00  0.00    +0.000 HD
ENDROOT
BRANCH   1  22
ATOM     19  C   UNL     1       6.762   4.819  17.192  0.00  0.00    +0.000 C 
ATOM     20  C   UNL     1       5.642   4.139  16.396  0.00  0.00    +0.000 C 
ATOM     21  C   UNL     1       4.374   4.923  16.736  0.00  0.00    +0.000 C 
ATOM     22  N   UNL     1       4.628   5.463  18.060  0.00  0.00    +0.000 N 
ATOM     23  C   UNL     1       6.014   5.256  18.474  0.00  0.00    +0.000 C 
BRANCH  19  25
ATOM     24  C   UNL     1       7.520   7.137  17.173  0.00  0.00    +0.000 C 
ATOM     25  N   UNL     1       7.371   5.907  16.403  0.00  0.00    +0.000 NA
ATOM     26  H   UNL     1       8.295   5.608  16.091  0.00  0.00    +0.000 HD
ENDBRANCH  19  25
ENDBRANCH   1  22
TORSDOF 2
ENDMDL
