MODEL 1
REMARK VINA RESULT:      -8.8      0.000      0.000
REMARK  Name = 
REMARK  4 active torsions:
REMARK  status: ('A' for Active; 'I' for Inactive)
REMARK    1  A    between atoms: C_4  and  N_5
REMARK    2  A    between atoms: N_5  and  N_6
REMARK    3  A    between atoms: N_6  and  S_7
REMARK    4  A    between atoms: S_7  and  C_10
REMARK                            x       y       z     vdW  Elec       q    Type
REMARK                         _______ _______ _______ _____ _____    ______ ____
ROOT
ATOM      1  O   UNL     1       1.943   4.951  17.476  0.00  0.00    +0.000 OA
ATOM      2  C   UNL     1       2.976   5.284  18.039  0.00  0.00    +0.000 C 
ATOM      3  C   UNL     1       3.603   6.616  17.750  0.00  0.00    +0.000 C 
ATOM      4  C   UNL     1       2.705   7.622  17.724  0.00  0.00    +0.000 C 
ATOM      5  C   UNL     1       5.071   6.716  17.770  0.00  0.00    +0.000 A 
ATOM      6  C   UNL     1       5.782   7.819  17.280  0.00  0.00    +0.000 A 
ATOM      7  C   UNL     1       7.166   7.907  17.420  0.00  0.00    +0.000 A 
ATOM      8  C   UNL     1       7.876   6.871  18.011  0.00  0.00    +0.000 A 
ATOM      9  C   UNL     1       7.201   5.731  18.434  0.00  0.00    +0.000 A 
ATOM     10  C   UNL     1       5.801   5.651  18.310  0.00  0.00    +0.000 A 
ATOM     11  C   UNL     1       5.115   4.444  18.848  0.00  0.00    +0.000 C 
ATOM     12  O   UNL     1       5.826   3.510  19.197  0.00  0.00    +0.000 OA
ATOM     13  N   UNL     1       3.726   4.502  18.921  0.00  0.00    +0.000 N 
ATOM     14  C   UNL     1       2.991   3.719  19.864  0.00  0.00    +0.000 A 
ATOM     15  C   UNL     1       3.508   2.589  20.500  0.00  0.00    +0.000 A 
ATOM     16  C   UNL     1       2.763   1.953  21.498  0.00  0.00    +0.000 A 
ATOM     17  C   UNL     1       1.528   2.462  21.861  0.00  0.00    +0.000 A 
ATOM     18  C   UNL     1       1.085   3.592  21.209  0.00  0.00    +0.000 A 
ATOM     19  N   UNL     1       1.785   4.216  20.236  0.00  0.00    +0.000 NA
ENDROOT
BRANCH   4  20
ATOM     20  N   UNL     1       2.824   8.998  17.679  0.00  0.00    +0.000 N 
ATOM     21  H   UNL     1       3.355   9.393  18.450  0.00  0.00    +0.000 HD
BRANCH  20  22
ATOM     22  N   UNL     1       1.547   9.760  17.450  0.00  0.00    +0.000 NA
ATOM     23  H   UNL     1       0.753   9.276  17.012  0.00  0.00    +0.000 HD
BRANCH  22  24
ATOM     24  S   UNL     1       0.912  10.519  18.867  0.00  0.00    +0.000 S 
ATOM     25  O   UNL     1       1.054   9.575  19.955  0.00  0.00    +0.000 OA
ATOM     26  O   UNL     1       1.502  11.839  18.930  0.00  0.00    +0.000 OA
BRANCH  24  27
ATOM     27  C   UNL     1      -0.801  10.645  18.449  0.00  0.00    +0.000 A 
ATOM     28  C   UNL     1      -1.319   9.840  17.432  0.00  0.00    +0.000 A 
ATOM     29  C   UNL     1      -2.654   9.986  17.059  0.00  0.00    +0.000 A 
ATOM     30  C   UNL     1      -3.460  10.929  17.702  0.00  0.00    +0.000 A 
ATOM     31  C   UNL     1      -2.937  11.726  18.723  0.00  0.00    +0.000 A 
ATOM     32  C   UNL     1      -1.604  11.585  19.101  0.00  0.00    +0.000 A 
ENDBRANCH  24  27
ENDBRANCH  22  24
ENDBRANCH  20  22
ENDBRANCH   4  20
TORSDOF 4
ENDMDL
MODEL 2
REMARK VINA RESULT:      -8.3      2.548      5.024
REMARK  Name = 
REMARK  4 active torsions:
REMARK  status: ('A' for Active; 'I' for Inactive)
REMARK    1  A    between atoms: C_4  and  N_5
REMARK    2  A    between atoms: N_5  and  N_6
REMARK    3  A    between atoms: N_6  and  S_7
REMARK    4  A    between atoms: S_7  and  C_10
REMARK                            x       y       z     vdW  Elec       q    Type
REMARK                         _______ _______ _______ _____ _____    ______ ____
ROOT
ATOM      1  O   UNL     1       5.603   6.038  18.965  0.00  0.00    +0.000 OA
ATOM      2  C   UNL     1       4.612   5.391  18.656  0.00  0.00    +0.000 C 
ATOM      3  C   UNL     1       3.306   5.620  19.358  0.00  0.00    +0.000 C 
ATOM      4  C   UNL     1       3.018   6.929  19.512  0.00  0.00    +0.000 C 
ATOM      5  C   UNL     1       2.416   4.468  19.571  0.00  0.00    +0.000 A 
ATOM      6  C   UNL     1       1.302   4.493  20.420  0.00  0.00    +0.000 A 
ATOM      7  C   UNL     1       0.432   3.406  20.502  0.00  0.00    +0.000 A 
ATOM      8  C   UNL     1       0.684   2.252  19.773  0.00  0.00    +0.000 A 
ATOM      9  C   UNL     1       1.828   2.175  18.985  0.00  0.00    +0.000 A 
ATOM     10  C   UNL     1       2.695   3.280  18.887  0.00  0.00    +0.000 A 
ATOM     11  C   UNL     1       3.864   3.177  17.970  0.00  0.00    +0.000 C 
ATOM     12  O   UNL     1       4.105   2.072  17.498  0.00  0.00    +0.000 OA
ATOM     13  N   UNL     1       4.559   4.356  17.719  0.00  0.00    +0.000 N 
ATOM     14  C   UNL     1       5.305   4.546  16.515  0.00  0.00    +0.000 A 
ATOM     15  C   UNL     1       5.724   3.498  15.692  0.00  0.00    +0.000 A 
ATOM     16  C   UNL     1       6.344   3.781  14.471  0.00  0.00    +0.000 A 
ATOM     17  C   UNL     1       6.518   5.097  14.079  0.00  0.00    +0.000 A 
ATOM     18  C   UNL     1       6.064   6.082  14.927  0.00  0.00    +0.000 A 
ATOM     19  N   UNL     1       5.471   5.831  16.115  0.00  0.00    +0.000 NA
ENDROOT
BRANCH   4  20
ATOM     20  N   UNL     1       1.887   7.609  19.920  0.00  0.00    +0.000 N 
ATOM     21  H   UNL     1       1.580   8.330  19.272  0.00  0.00    +0.000 HD
BRANCH  20  22
ATOM     22  N   UNL     1       1.903   8.118  21.335  0.00  0.00    +0.000 NA
ATOM     23  H   UNL     1       2.671   8.734  21.632  0.00  0.00    +0.000 HD
BRANCH  22  24
ATOM     24  S   UNL     1       0.448   8.920  21.815  0.00  0.00    +0.000 S 
ATOM     25  O   UNL     1      -0.637   7.980  21.629  0.00  0.00    +0.000 OA
ATOM     26  O   UNL     1       0.713   9.523  23.104  0.00  0.00    +0.000 OA
BRANCH  24  27
ATOM     27  C   UNL     1       0.325  10.176  20.578  0.00  0.00    +0.000 A 
ATOM     28  C   UNL     1       1.137  11.309  20.669  0.00  0.00    +0.000 A 
ATOM     29  C   UNL     1       0.993  12.329  19.729  0.00  0.00    +0.000 A 
ATOM     30  C   UNL     1       0.047  12.210  18.709  0.00  0.00    +0.000 A 
ATOM     31  C   UNL     1      -0.757  11.072  18.620  0.00  0.00    +0.000 A 
ATOM     32  C   UNL     1      -0.619  10.048  19.555  0.00  0.00    +0.000 A 
ENDBRANCH  24  27
ENDBRANCH  22  24
ENDBRANCH  20  22
ENDBRANCH   4  20
TORSDOF 4
ENDMDL
MODEL 3
REMARK VINA RESULT:      -8.2      1.657      2.294
REMARK  Name = 
REMARK  4 active torsions:
REMARK  status: ('A' for Active; 'I' for Inactive)
REMARK    1  A    between atoms: C_4  and  N_5
REMARK    2  A    between atoms: N_5  and  N_6
REMARK    3  A    between atoms: N_6  and  S_7
REMARK    4  A    between atoms: S_7  and  C_10
REMARK                            x       y       z     vdW  Elec       q    Type
REMARK                         _______ _______ _______ _____ _____    ______ ____
ROOT
ATOM      1  O   UNL     1       1.816   4.761  17.473  0.00  0.00    +0.000 OA
ATOM      2  C   UNL     1       2.838   5.150  18.021  0.00  0.00    +0.000 C 
ATOM      3  C   UNL     1       3.416   6.493  17.686  0.00  0.00    +0.000 C 
ATOM      4  C   UNL     1       2.481   7.465  17.630  0.00  0.00    +0.000 C 
ATOM      5  C   UNL     1       4.879   6.647  17.696  0.00  0.00    +0.000 A 
ATOM      6  C   UNL     1       5.548   7.758  17.168  0.00  0.00    +0.000 A 
ATOM      7  C   UNL     1       6.928   7.901  17.300  0.00  0.00    +0.000 A 
ATOM      8  C   UNL     1       7.678   6.911  17.922  0.00  0.00    +0.000 A 
ATOM      9  C   UNL     1       7.045   5.762  18.385  0.00  0.00    +0.000 A 
ATOM     10  C   UNL     1       5.649   5.628  18.269  0.00  0.00    +0.000 A 
ATOM     11  C   UNL     1       5.008   4.415  18.848  0.00  0.00    +0.000 C 
ATOM     12  O   UNL     1       5.754   3.519  19.226  0.00  0.00    +0.000 OA
ATOM     13  N   UNL     1       3.618   4.425  18.926  0.00  0.00    +0.000 N 
ATOM     14  C   UNL     1       2.915   3.648  19.896  0.00  0.00    +0.000 A 
ATOM     15  C   UNL     1       3.475   2.559  20.568  0.00  0.00    +0.000 A 
ATOM     16  C   UNL     1       2.756   1.929  21.589  0.00  0.00    +0.000 A 
ATOM     17  C   UNL     1       1.505   2.405  21.940  0.00  0.00    +0.000 A 
ATOM     18  C   UNL     1       1.019   3.496  21.252  0.00  0.00    +0.000 A 
ATOM     19  N   UNL     1       1.693   4.112  20.257  0.00  0.00    +0.000 NA
ENDROOT
BRANCH   4  20
ATOM     20  N   UNL     1       2.550   8.842  17.539  0.00  0.00    +0.000 N 
ATOM     21  H   UNL     1       3.386   9.185  17.073  0.00  0.00    +0.000 HD
BRANCH  20  22
ATOM     22  N   UNL     1       2.288   9.597  18.813  0.00  0.00    +0.000 NA
ATOM     23  H   UNL     1       3.012  10.232  19.171  0.00  0.00    +0.000 HD
BRANCH  22  24
ATOM     24  S   UNL     1       0.823  10.515  18.803  0.00  0.00    +0.000 S 
ATOM     25  O   UNL     1       1.193  11.903  18.623  0.00  0.00    +0.000 OA
ATOM     26  O   UNL     1      -0.078   9.848  17.887  0.00  0.00    +0.000 OA
BRANCH  24  27
ATOM     27  C   UNL     1       0.266  10.290  20.465  0.00  0.00    +0.000 A 
ATOM     28  C   UNL     1      -0.565  11.252  21.045  0.00  0.00    +0.000 A 
ATOM     29  C   UNL     1      -0.951  11.106  22.376  0.00  0.00    +0.000 A 
ATOM     30  C   UNL     1      -0.510  10.006  23.115  0.00  0.00    +0.000 A 
ATOM     31  C   UNL     1       0.316   9.045  22.527  0.00  0.00    +0.000 A 
ATOM     32  C   UNL     1       0.705   9.183  21.197  0.00  0.00    +0.000 A 
ENDBRANCH  24  27
ENDBRANCH  22  24
ENDBRANCH  20  22
ENDBRANCH   4  20
TORSDOF 4
ENDMDL
MODEL 4
REMARK VINA RESULT:      -8.1      1.971      2.631
REMARK  Name = 
REMARK  4 active torsions:
REMARK  status: ('A' for Active; 'I' for Inactive)
REMARK    1  A    between atoms: C_4  and  N_5
REMARK    2  A    between atoms: N_5  and  N_6
REMARK    3  A    between atoms: N_6  and  S_7
REMARK    4  A    between atoms: S_7  and  C_10
REMARK                            x       y       z     vdW  Elec       q    Type
REMARK                         _______ _______ _______ _____ _____    ______ ____
ROOT
ATOM      1  O   UNL     1       1.877   4.992  17.530  0.00  0.00    +0.000 OA
ATOM      2  C   UNL     1       2.927   5.298  18.077  0.00  0.00    +0.000 C 
ATOM      3  C   UNL     1       3.573   6.622  17.794  0.00  0.00    +0.000 C 
ATOM      4  C   UNL     1       2.693   7.645  17.799  0.00  0.00    +0.000 C 
ATOM      5  C   UNL     1       5.042   6.695  17.786  0.00  0.00    +0.000 A 
ATOM      6  C   UNL     1       5.764   7.792  17.297  0.00  0.00    +0.000 A 
ATOM      7  C   UNL     1       7.152   7.853  17.411  0.00  0.00    +0.000 A 
ATOM      8  C   UNL     1       7.854   6.796  17.974  0.00  0.00    +0.000 A 
ATOM      9  C   UNL     1       7.166   5.662  18.395  0.00  0.00    +0.000 A 
ATOM     10  C   UNL     1       5.763   5.610  18.297  0.00  0.00    +0.000 A 
ATOM     11  C   UNL     1       5.065   4.408  18.832  0.00  0.00    +0.000 C 
ATOM     12  O   UNL     1       5.766   3.456  19.155  0.00  0.00    +0.000 OA
ATOM     13  N   UNL     1       3.679   4.490  18.934  0.00  0.00    +0.000 N 
ATOM     14  C   UNL     1       2.948   3.708  19.880  0.00  0.00    +0.000 A 
ATOM     15  C   UNL     1       3.457   2.560  20.491  0.00  0.00    +0.000 A 
ATOM     16  C   UNL     1       2.720   1.923  21.495  0.00  0.00    +0.000 A 
ATOM     17  C   UNL     1       1.502   2.450  21.889  0.00  0.00    +0.000 A 
ATOM     18  C   UNL     1       1.068   3.596  21.261  0.00  0.00    +0.000 A 
ATOM     19  N   UNL     1       1.760   4.221  20.283  0.00  0.00    +0.000 NA
ENDROOT
BRANCH   4  20
ATOM     20  N   UNL     1       2.836   9.019  17.771  0.00  0.00    +0.000 N 
ATOM     21  H   UNL     1       3.311   9.403  18.584  0.00  0.00    +0.000 HD
BRANCH  20  22
ATOM     22  N   UNL     1       1.595   9.801  17.443  0.00  0.00    +0.000 NA
ATOM     23  H   UNL     1       0.879   9.368  16.846  0.00  0.00    +0.000 HD
BRANCH  22  24
ATOM     24  S   UNL     1       0.751  10.401  18.828  0.00  0.00    +0.000 S 
ATOM     25  O   UNL     1      -0.592  10.727  18.399  0.00  0.00    +0.000 OA
ATOM     26  O   UNL     1       0.994   9.460  19.901  0.00  0.00    +0.000 OA
BRANCH  24  27
ATOM     27  C   UNL     1       1.626  11.905  19.138  0.00  0.00    +0.000 A 
ATOM     28  C   UNL     1       1.527  12.508  20.394  0.00  0.00    +0.000 A 
ATOM     29  C   UNL     1       2.165  13.728  20.616  0.00  0.00    +0.000 A 
ATOM     30  C   UNL     1       2.895  14.332  19.590  0.00  0.00    +0.000 A 
ATOM     31  C   UNL     1       2.995  13.720  18.339  0.00  0.00    +0.000 A 
ATOM     32  C   UNL     1       2.361  12.501  18.109  0.00  0.00    +0.000 A 
ENDBRANCH  24  27
ENDBRANCH  22  24
ENDBRANCH  20  22
ENDBRANCH   4  20
TORSDOF 4
ENDMDL
MODEL 5
REMARK VINA RESULT:      -8.1      2.118      4.524
REMARK  Name = 
REMARK  4 active torsions:
REMARK  status: ('A' for Active; 'I' for Inactive)
REMARK    1  A    between atoms: C_4  and  N_5
REMARK    2  A    between atoms: N_5  and  N_6
REMARK    3  A    between atoms: N_6  and  S_7
REMARK    4  A    between atoms: S_7  and  C_10
REMARK                            x       y       z     vdW  Elec       q    Type
REMARK                         _______ _______ _______ _____ _____    ______ ____
ROOT
ATOM      1  O   UNL     1       5.650   6.300  18.510  0.00  0.00    +0.000 OA
ATOM      2  C   UNL     1       4.663   5.608  18.303  0.00  0.00    +0.000 C 
ATOM      3  C   UNL     1       3.373   5.891  19.016  0.00  0.00    +0.000 C 
ATOM      4  C   UNL     1       3.065   7.204  19.035  0.00  0.00    +0.000 C 
ATOM      5  C   UNL     1       2.512   4.755  19.379  0.00  0.00    +0.000 A 
ATOM      6  C   UNL     1       1.422   4.854  20.253  0.00  0.00    +0.000 A 
ATOM      7  C   UNL     1       0.576   3.769  20.479  0.00  0.00    +0.000 A 
ATOM      8  C   UNL     1       0.830   2.546  19.873  0.00  0.00    +0.000 A 
ATOM      9  C   UNL     1       1.952   2.402  19.064  0.00  0.00    +0.000 A 
ATOM     10  C   UNL     1       2.795   3.503  18.820  0.00  0.00    +0.000 A 
ATOM     11  C   UNL     1       3.939   3.320  17.885  0.00  0.00    +0.000 C 
ATOM     12  O   UNL     1       4.188   2.175  17.529  0.00  0.00    +0.000 OA
ATOM     13  N   UNL     1       4.604   4.476  17.486  0.00  0.00    +0.000 N 
ATOM     14  C   UNL     1       5.312   4.545  16.247  0.00  0.00    +0.000 A 
ATOM     15  C   UNL     1       5.728   3.421  15.530  0.00  0.00    +0.000 A 
ATOM     16  C   UNL     1       6.308   3.578  14.268  0.00  0.00    +0.000 A 
ATOM     17  C   UNL     1       6.445   4.846  13.730  0.00  0.00    +0.000 A 
ATOM     18  C   UNL     1       5.995   5.911  14.480  0.00  0.00    +0.000 A 
ATOM     19  N   UNL     1       5.441   5.781  15.705  0.00  0.00    +0.000 NA
ENDROOT
BRANCH   4  20
ATOM     20  N   UNL     1       1.932   7.906  19.401  0.00  0.00    +0.000 N 
ATOM     21  H   UNL     1       1.158   7.317  19.699  0.00  0.00    +0.000 HD
BRANCH  20  22
ATOM     22  N   UNL     1       1.473   8.961  18.433  0.00  0.00    +0.000 NA
ATOM     23  H   UNL     1       0.732   8.728  17.759  0.00  0.00    +0.000 HD
BRANCH  22  24
ATOM     24  S   UNL     1       0.977  10.439  19.180  0.00  0.00    +0.000 S 
ATOM     25  O   UNL     1       0.946  10.204  20.608  0.00  0.00    +0.000 OA
ATOM     26  O   UNL     1       1.792  11.488  18.604  0.00  0.00    +0.000 OA
BRANCH  24  27
ATOM     27  C   UNL     1      -0.685  10.579  18.594  0.00  0.00    +0.000 A 
ATOM     28  C   UNL     1      -1.100   9.791  17.518  0.00  0.00    +0.000 A 
ATOM     29  C   UNL     1      -2.391   9.949  17.015  0.00  0.00    +0.000 A 
ATOM     30  C   UNL     1      -3.255  10.884  17.589  0.00  0.00    +0.000 A 
ATOM     31  C   UNL     1      -2.835  11.664  18.669  0.00  0.00    +0.000 A 
ATOM     32  C   UNL     1      -1.547  11.512  19.178  0.00  0.00    +0.000 A 
ENDBRANCH  24  27
ENDBRANCH  22  24
ENDBRANCH  20  22
ENDBRANCH   4  20
TORSDOF 4
ENDMDL
MODEL 6
REMARK VINA RESULT:      -8.1      2.173      4.778
REMARK  Name = 
REMARK  4 active torsions:
REMARK  status: ('A' for Active; 'I' for Inactive)
REMARK    1  A    between atoms: C_4  and  N_5
REMARK    2  A    between atoms: N_5  and  N_6
REMARK    3  A    between atoms: N_6  and  S_7
REMARK    4  A    between atoms: S_7  and  C_10
REMARK                            x       y       z     vdW  Elec       q    Type
REMARK                         _______ _______ _______ _____ _____    ______ ____
ROOT
ATOM      1  O   UNL     1       5.590   5.848  19.208  0.00  0.00    +0.000 OA
ATOM      2  C   UNL     1       4.604   5.212  18.868  0.00  0.00    +0.000 C 
ATOM      3  C   UNL     1       3.305   5.373  19.602  0.00  0.00    +0.000 C 
ATOM      4  C   UNL     1       3.003   6.665  19.851  0.00  0.00    +0.000 C 
ATOM      5  C   UNL     1       2.432   4.197  19.746  0.00  0.00    +0.000 A 
ATOM      6  C   UNL     1       1.330   4.148  20.609  0.00  0.00    +0.000 A 
ATOM      7  C   UNL     1       0.476   3.047  20.627  0.00  0.00    +0.000 A 
ATOM      8  C   UNL     1       0.732   1.949  19.817  0.00  0.00    +0.000 A 
ATOM      9  C   UNL     1       1.864   1.943  19.009  0.00  0.00    +0.000 A 
ATOM     10  C   UNL     1       2.716   3.063  18.977  0.00  0.00    +0.000 A 
ATOM     11  C   UNL     1       3.873   3.040  18.039  0.00  0.00    +0.000 C 
ATOM     12  O   UNL     1       4.121   1.975  17.488  0.00  0.00    +0.000 OA
ATOM     13  N   UNL     1       4.550   4.244  17.862  0.00  0.00    +0.000 N 
ATOM     14  C   UNL     1       5.276   4.527  16.664  0.00  0.00    +0.000 A 
ATOM     15  C   UNL     1       5.696   3.545  15.764  0.00  0.00    +0.000 A 
ATOM     16  C   UNL     1       6.295   3.920  14.558  0.00  0.00    +0.000 A 
ATOM     17  C   UNL     1       6.447   5.262  14.257  0.00  0.00    +0.000 A 
ATOM     18  C   UNL     1       5.992   6.180  15.178  0.00  0.00    +0.000 A 
ATOM     19  N   UNL     1       5.420   5.838  16.353  0.00  0.00    +0.000 NA
ENDROOT
BRANCH   4  20
ATOM     20  N   UNL     1       1.868   7.298  20.321  0.00  0.00    +0.000 N 
ATOM     21  H   UNL     1       1.026   6.732  20.269  0.00  0.00    +0.000 HD
BRANCH  20  22
ATOM     22  N   UNL     1       1.626   8.686  19.794  0.00  0.00    +0.000 NA
ATOM     23  H   UNL     1       1.312   8.799  18.822  0.00  0.00    +0.000 HD
BRANCH  22  24
ATOM     24  S   UNL     1       0.538   9.627  20.752  0.00  0.00    +0.000 S 
ATOM     25  O   UNL     1      -0.236   8.700  21.550  0.00  0.00    +0.000 OA
ATOM     26  O   UNL     1       1.325  10.677  21.363  0.00  0.00    +0.000 OA
BRANCH  24  27
ATOM     27  C   UNL     1      -0.512  10.311  19.505  0.00  0.00    +0.000 A 
ATOM     28  C   UNL     1      -1.314  11.413  19.814  0.00  0.00    +0.000 A 
ATOM     29  C   UNL     1      -2.188  11.911  18.849  0.00  0.00    +0.000 A 
ATOM     30  C   UNL     1      -2.255  11.312  17.589  0.00  0.00    +0.000 A 
ATOM     31  C   UNL     1      -1.445  10.215  17.286  0.00  0.00    +0.000 A 
ATOM     32  C   UNL     1      -0.568   9.711  18.244  0.00  0.00    +0.000 A 
ENDBRANCH  24  27
ENDBRANCH  22  24
ENDBRANCH  20  22
ENDBRANCH   4  20
TORSDOF 4
ENDMDL
MODEL 7
REMARK VINA RESULT:      -8.1      3.691      9.713
REMARK  Name = 
REMARK  4 active torsions:
REMARK  status: ('A' for Active; 'I' for Inactive)
REMARK    1  A    between atoms: C_4  and  N_5
REMARK    2  A    between atoms: N_5  and  N_6
REMARK    3  A    between atoms: N_6  and  S_7
REMARK    4  A    between atoms: S_7  and  C_10
REMARK                            x       y       z     vdW  Elec       q    Type
REMARK                         _______ _______ _______ _____ _____    ______ ____
ROOT
ATOM      1  O   UNL     1      -1.788  13.504  21.199  0.00  0.00    +0.000 OA
ATOM      2  C   UNL     1      -2.512  12.747  20.568  0.00  0.00    +0.000 C 
ATOM      3  C   UNL     1      -1.933  11.840  19.522  0.00  0.00    +0.000 C 
ATOM      4  C   UNL     1      -0.805  11.224  19.931  0.00  0.00    +0.000 C 
ATOM      5  C   UNL     1      -2.741  11.546  18.328  0.00  0.00    +0.000 A 
ATOM      6  C   UNL     1      -2.233  10.928  17.178  0.00  0.00    +0.000 A 
ATOM      7  C   UNL     1      -3.067  10.578  16.117  0.00  0.00    +0.000 A 
ATOM      8  C   UNL     1      -4.421  10.880  16.163  0.00  0.00    +0.000 A 
ATOM      9  C   UNL     1      -4.934  11.563  17.261  0.00  0.00    +0.000 A 
ATOM     10  C   UNL     1      -4.095  11.900  18.340  0.00  0.00    +0.000 A 
ATOM     11  C   UNL     1      -4.706  12.561  19.526  0.00  0.00    +0.000 C 
ATOM     12  O   UNL     1      -5.865  12.942  19.415  0.00  0.00    +0.000 OA
ATOM     13  N   UNL     1      -3.904  12.665  20.659  0.00  0.00    +0.000 N 
ATOM     14  C   UNL     1      -4.464  12.754  21.970  0.00  0.00    +0.000 A 
ATOM     15  C   UNL     1      -5.787  13.125  22.222  0.00  0.00    +0.000 A 
ATOM     16  C   UNL     1      -6.287  13.069  23.526  0.00  0.00    +0.000 A 
ATOM     17  C   UNL     1      -5.473  12.625  24.554  0.00  0.00    +0.000 A 
ATOM     18  C   UNL     1      -4.185  12.254  24.234  0.00  0.00    +0.000 A 
ATOM     19  N   UNL     1      -3.680  12.310  22.983  0.00  0.00    +0.000 NA
ENDROOT
BRANCH   4  20
ATOM     20  N   UNL     1      -0.041  10.198  19.406  0.00  0.00    +0.000 N 
ATOM     21  H   UNL     1      -0.573   9.362  19.178  0.00  0.00    +0.000 HD
BRANCH  20  22
ATOM     22  N   UNL     1       1.212   9.859  20.165  0.00  0.00    +0.000 NA
ATOM     23  H   UNL     1       1.665  10.591  20.726  0.00  0.00    +0.000 HD
BRANCH  22  24
ATOM     24  S   UNL     1       1.056   8.493  21.213  0.00  0.00    +0.000 S 
ATOM     25  O   UNL     1       1.897   8.743  22.364  0.00  0.00    +0.000 OA
ATOM     26  O   UNL     1      -0.362   8.238  21.354  0.00  0.00    +0.000 OA
BRANCH  24  27
ATOM     27  C   UNL     1       1.800   7.223  20.235  0.00  0.00    +0.000 A 
ATOM     28  C   UNL     1       2.359   7.551  18.997  0.00  0.00    +0.000 A 
ATOM     29  C   UNL     1       2.888   6.539  18.198  0.00  0.00    +0.000 A 
ATOM     30  C   UNL     1       2.858   5.214  18.638  0.00  0.00    +0.000 A 
ATOM     31  C   UNL     1       2.303   4.894  19.879  0.00  0.00    +0.000 A 
ATOM     32  C   UNL     1       1.773   5.900  20.683  0.00  0.00    +0.000 A 
ENDBRANCH  24  27
ENDBRANCH  22  24
ENDBRANCH  20  22
ENDBRANCH   4  20
TORSDOF 4
ENDMDL
MODEL 8
REMARK VINA RESULT:      -8.0      2.705      4.788
REMARK  Name = 
REMARK  4 active torsions:
REMARK  status: ('A' for Active; 'I' for Inactive)
REMARK    1  A    between atoms: C_4  and  N_5
REMARK    2  A    between atoms: N_5  and  N_6
REMARK    3  A    between atoms: N_6  and  S_7
REMARK    4  A    between atoms: S_7  and  C_10
REMARK                            x       y       z     vdW  Elec       q    Type
REMARK                         _______ _______ _______ _____ _____    ______ ____
ROOT
ATOM      1  O   UNL     1       5.531   7.465  17.456  0.00  0.00    +0.000 OA
ATOM      2  C   UNL     1       4.671   6.615  17.638  0.00  0.00    +0.000 C 
ATOM      3  C   UNL     1       3.379   6.973  18.312  0.00  0.00    +0.000 C 
ATOM      4  C   UNL     1       2.850   8.124  17.850  0.00  0.00    +0.000 C 
ATOM      5  C   UNL     1       2.740   5.968  19.176  0.00  0.00    +0.000 A 
ATOM      6  C   UNL     1       1.683   6.252  20.050  0.00  0.00    +0.000 A 
ATOM      7  C   UNL     1       1.046   5.241  20.766  0.00  0.00    +0.000 A 
ATOM      8  C   UNL     1       1.483   3.927  20.663  0.00  0.00    +0.000 A 
ATOM      9  C   UNL     1       2.582   3.633  19.862  0.00  0.00    +0.000 A 
ATOM     10  C   UNL     1       3.213   4.651  19.123  0.00  0.00    +0.000 A 
ATOM     11  C   UNL     1       4.336   4.274  18.221  0.00  0.00    +0.000 C 
ATOM     12  O   UNL     1       4.765   3.130  18.317  0.00  0.00    +0.000 OA
ATOM     13  N   UNL     1       4.777   5.254  17.338  0.00  0.00    +0.000 N 
ATOM     14  C   UNL     1       5.416   4.921  16.104  0.00  0.00    +0.000 A 
ATOM     15  C   UNL     1       5.992   3.675  15.844  0.00  0.00    +0.000 A 
ATOM     16  C   UNL     1       6.488   3.394  14.567  0.00  0.00    +0.000 A 
ATOM     17  C   UNL     1       6.385   4.345  13.567  0.00  0.00    +0.000 A 
ATOM     18  C   UNL     1       5.788   5.545  13.884  0.00  0.00    +0.000 A 
ATOM     19  N   UNL     1       5.310   5.840  15.113  0.00  0.00    +0.000 NA
ENDROOT
BRANCH   4  20
ATOM     20  N   UNL     1       1.628   8.744  18.028  0.00  0.00    +0.000 N 
ATOM     21  H   UNL     1       1.026   8.715  17.209  0.00  0.00    +0.000 HD
BRANCH  20  22
ATOM     22  N   UNL     1       1.673  10.125  18.622  0.00  0.00    +0.000 NA
ATOM     23  H   UNL     1       2.270  10.835  18.180  0.00  0.00    +0.000 HD
BRANCH  22  24
ATOM     24  S   UNL     1       0.123  10.865  18.811  0.00  0.00    +0.000 S 
ATOM     25  O   UNL     1       0.302  12.286  18.603  0.00  0.00    +0.000 OA
ATOM     26  O   UNL     1      -0.805  10.095  18.010  0.00  0.00    +0.000 OA
BRANCH  24  27
ATOM     27  C   UNL     1      -0.186  10.580  20.528  0.00  0.00    +0.000 A 
ATOM     28  C   UNL     1       0.015   9.303  21.058  0.00  0.00    +0.000 A 
ATOM     29  C   UNL     1      -0.290   9.065  22.397  0.00  0.00    +0.000 A 
ATOM     30  C   UNL     1      -0.790  10.097  23.194  0.00  0.00    +0.000 A 
ATOM     31  C   UNL     1      -0.982  11.372  22.660  0.00  0.00    +0.000 A 
ATOM     32  C   UNL     1      -0.679  11.619  21.323  0.00  0.00    +0.000 A 
ENDBRANCH  24  27
ENDBRANCH  22  24
ENDBRANCH  20  22
ENDBRANCH   4  20
TORSDOF 4
ENDMDL
MODEL 9
REMARK VINA RESULT:      -7.9      4.166      9.552
REMARK  Name = 
REMARK  4 active torsions:
REMARK  status: ('A' for Active; 'I' for Inactive)
REMARK    1  A    between atoms: C_4  and  N_5
REMARK    2  A    between atoms: N_5  and  N_6
REMARK    3  A    between atoms: N_6  and  S_7
REMARK    4  A    between atoms: S_7  and  C_10
REMARK                            x       y       z     vdW  Elec       q    Type
REMARK                         _______ _______ _______ _____ _____    ______ ____
ROOT
ATOM      1  O   UNL     1      -2.718  14.407  20.855  0.00  0.00    +0.000 OA
ATOM      2  C   UNL     1      -3.008  13.312  20.393  0.00  0.00    +0.000 C 
ATOM      3  C   UNL     1      -1.992  12.520  19.623  0.00  0.00    +0.000 C 
ATOM      4  C   UNL     1      -0.781  12.505  20.218  0.00  0.00    +0.000 C 
ATOM      5  C   UNL     1      -2.457  11.692  18.500  0.00  0.00    +0.000 A 
ATOM      6  C   UNL     1      -1.601  11.110  17.556  0.00  0.00    +0.000 A 
ATOM      7  C   UNL     1      -2.087  10.247  16.575  0.00  0.00    +0.000 A 
ATOM      8  C   UNL     1      -3.447   9.985  16.485  0.00  0.00    +0.000 A 
ATOM      9  C   UNL     1      -4.325  10.613  17.362  0.00  0.00    +0.000 A 
ATOM     10  C   UNL     1      -3.832  11.469  18.365  0.00  0.00    +0.000 A 
ATOM     11  C   UNL     1      -4.804  12.057  19.328  0.00  0.00    +0.000 C 
ATOM     12  O   UNL     1      -5.994  11.910  19.077  0.00  0.00    +0.000 OA
ATOM     13  N   UNL     1      -4.263  12.701  20.438  0.00  0.00    +0.000 N 
ATOM     14  C   UNL     1      -4.989  12.823  21.662  0.00  0.00    +0.000 A 
ATOM     15  C   UNL     1      -6.375  12.676  21.757  0.00  0.00    +0.000 A 
ATOM     16  C   UNL     1      -6.990  12.691  23.013  0.00  0.00    +0.000 A 
ATOM     17  C   UNL     1      -6.217  12.830  24.153  0.00  0.00    +0.000 A 
ATOM     18  C   UNL     1      -4.854  12.949  23.991  0.00  0.00    +0.000 A 
ATOM     19  N   UNL     1      -4.242  12.946  22.786  0.00  0.00    +0.000 NA
ENDROOT
BRANCH   4  20
ATOM     20  N   UNL     1       0.377  11.787  19.991  0.00  0.00    +0.000 N 
ATOM     21  H   UNL     1       0.279  11.052  19.295  0.00  0.00    +0.000 HD
BRANCH  20  22
ATOM     22  N   UNL     1       1.090  11.286  21.217  0.00  0.00    +0.000 NA
ATOM     23  H   UNL     1       1.010  11.822  22.090  0.00  0.00    +0.000 HD
BRANCH  22  24
ATOM     24  S   UNL     1       0.716   9.651  21.634  0.00  0.00    +0.000 S 
ATOM     25  O   UNL     1       1.476   9.332  22.824  0.00  0.00    +0.000 OA
ATOM     26  O   UNL     1      -0.727   9.535  21.605  0.00  0.00    +0.000 OA
BRANCH  24  27
ATOM     27  C   UNL     1       1.417   8.779  20.266  0.00  0.00    +0.000 A 
ATOM     28  C   UNL     1       1.364   9.349  18.991  0.00  0.00    +0.000 A 
ATOM     29  C   UNL     1       1.859   8.632  17.903  0.00  0.00    +0.000 A 
ATOM     30  C   UNL     1       2.402   7.360  18.093  0.00  0.00    +0.000 A 
ATOM     31  C   UNL     1       2.457   6.799  19.371  0.00  0.00    +0.000 A 
ATOM     32  C   UNL     1       1.966   7.509  20.464  0.00  0.00    +0.000 A 
ENDBRANCH  24  27
ENDBRANCH  22  24
ENDBRANCH  20  22
ENDBRANCH   4  20
TORSDOF 4
ENDMDL
