MODEL 1
REMARK VINA RESULT:      -7.8      0.000      0.000
REMARK  Name = 
REMARK  3 active torsions:
REMARK  status: ('A' for Active; 'I' for Inactive)
REMARK    1  A    between atoms: C_2  and  C_3
REMARK    2  A    between atoms: N_17  and  C_18
REMARK    3  A    between atoms: C_18  and  C_19
REMARK                            x       y       z     vdW  Elec       q    Type
REMARK                         _______ _______ _______ _____ _____    ______ ____
ROOT
ATOM      1  O   UNL     1       4.113   3.284  16.620  0.00  0.00    +0.000 OA
ATOM      2  C   UNL     1       4.292   3.961  17.631  0.00  0.00    +0.000 C 
ATOM      3  N   UNL     1       5.267   4.962  17.703  0.00  0.00    +0.000 N 
ATOM      4  C   UNL     1       5.516   5.870  18.835  0.00  0.00    +0.000 C 
ATOM      5  C   UNL     1       7.002   6.235  19.004  0.00  0.00    +0.000 C 
ATOM      6  N   UNL     1       7.680   6.668  17.764  0.00  0.00    +0.000 NA
ATOM      7  C   UNL     1       7.459   5.628  16.734  0.00  0.00    +0.000 C 
ATOM      8  C   UNL     1       5.977   5.305  16.465  0.00  0.00    +0.000 C 
ENDROOT
BRANCH   2   9
ATOM      9  C   UNL     1       3.437   3.643  18.792  0.00  0.00    +0.000 A 
ATOM     10  C   UNL     1       3.963   2.857  19.823  0.00  0.00    +0.000 A 
ATOM     11  F   UNL     1       5.226   2.418  19.784  0.00  0.00    +0.000 F 
ATOM     12  C   UNL     1       3.182   2.531  20.930  0.00  0.00    +0.000 A 
ATOM     13  F   UNL     1       3.688   1.765  21.906  0.00  0.00    +0.000 F 
ATOM     14  C   UNL     1       1.884   3.008  21.032  0.00  0.00    +0.000 A 
ATOM     15  F   UNL     1       1.149   2.739  22.120  0.00  0.00    +0.000 F 
ATOM     16  C   UNL     1       1.349   3.765  20.002  0.00  0.00    +0.000 A 
ATOM     17  F   UNL     1       0.103   4.249  20.101  0.00  0.00    +0.000 F 
ATOM     18  C   UNL     1       2.104   4.037  18.867  0.00  0.00    +0.000 A 
ATOM     19  F   UNL     1       1.516   4.694  17.857  0.00  0.00    +0.000 F 
ENDBRANCH   2   9
BRANCH   6  20
ATOM     20  C   UNL     1       7.206   8.003  17.361  0.00  0.00    +0.000 C 
BRANCH  20  21
ATOM     21  C   UNL     1       8.030   9.144  17.914  0.00  0.00    +0.000 A 
ATOM     22  C   UNL     1       8.891   8.935  19.017  0.00  0.00    +0.000 A 
ATOM     23  C   UNL     1       9.634   9.989  19.558  0.00  0.00    +0.000 A 
ATOM     24  C   UNL     1       9.498  11.232  18.980  0.00  0.00    +0.000 A 
ATOM     25  C   UNL     1       8.670  11.443  17.903  0.00  0.00    +0.000 A 
ATOM     26  C   UNL     1       7.926  10.426  17.349  0.00  0.00    +0.000 A 
ATOM     27  O   UNL     1       8.680  12.737  17.484  0.00  0.00    +0.000 OA
ATOM     28  C   UNL     1       9.593  13.320  18.437  0.00  0.00    +0.000 C 
ATOM     29  O   UNL     1      10.130  12.368  19.377  0.00  0.00    +0.000 OA
ENDBRANCH  20  21
ENDBRANCH   6  20
TORSDOF 3
ENDMDL
MODEL 2
REMARK VINA RESULT:      -7.8      5.342      7.571
REMARK  Name = 
REMARK  3 active torsions:
REMARK  status: ('A' for Active; 'I' for Inactive)
REMARK    1  A    between atoms: C_2  and  C_3
REMARK    2  A    between atoms: N_17  and  C_18
REMARK    3  A    between atoms: C_18  and  C_19
REMARK                            x       y       z     vdW  Elec       q    Type
REMARK                         _______ _______ _______ _____ _____    ______ ____
ROOT
ATOM      1  O   UNL     1       4.912   3.158  19.582  0.00  0.00    +0.000 OA
ATOM      2  C   UNL     1       4.674   4.222  19.012  0.00  0.00    +0.000 C 
ATOM      3  N   UNL     1       3.669   5.097  19.441  0.00  0.00    +0.000 N 
ATOM      4  C   UNL     1       3.350   6.418  18.875  0.00  0.00    +0.000 C 
ATOM      5  C   UNL     1       1.848   6.755  18.929  0.00  0.00    +0.000 C 
ATOM      6  N   UNL     1       1.208   6.525  20.242  0.00  0.00    +0.000 NA
ATOM      7  C   UNL     1       1.499   5.135  20.657  0.00  0.00    +0.000 C 
ATOM      8  C   UNL     1       2.999   4.787  20.710  0.00  0.00    +0.000 C 
ENDROOT
BRANCH   2   9
ATOM      9  C   UNL     1       5.491   4.524  17.819  0.00  0.00    +0.000 A 
ATOM     10  C   UNL     1       5.315   3.751  16.667  0.00  0.00    +0.000 A 
ATOM     11  F   UNL     1       4.406   2.770  16.622  0.00  0.00    +0.000 F 
ATOM     12  C   UNL     1       6.075   4.003  15.526  0.00  0.00    +0.000 A 
ATOM     13  F   UNL     1       5.911   3.248  14.431  0.00  0.00    +0.000 F 
ATOM     14  C   UNL     1       6.991   5.042  15.516  0.00  0.00    +0.000 A 
ATOM     15  F   UNL     1       7.685   5.320  14.403  0.00  0.00    +0.000 F 
ATOM     16  C   UNL     1       7.188   5.795  16.662  0.00  0.00    +0.000 A 
ATOM     17  F   UNL     1       8.057   6.816  16.655  0.00  0.00    +0.000 F 
ATOM     18  C   UNL     1       6.479   5.504  17.822  0.00  0.00    +0.000 A 
ATOM     19  F   UNL     1       6.768   6.197  18.933  0.00  0.00    +0.000 F 
ENDBRANCH   2   9
BRANCH   6  20
ATOM     20  C   UNL     1       1.660   7.534  21.215  0.00  0.00    +0.000 C 
BRANCH  20  21
ATOM     21  C   UNL     1       0.811   8.785  21.248  0.00  0.00    +0.000 A 
ATOM     22  C   UNL     1       0.608   9.542  20.071  0.00  0.00    +0.000 A 
ATOM     23  C   UNL     1      -0.149  10.717  20.094  0.00  0.00    +0.000 A 
ATOM     24  C   UNL     1      -0.688  11.109  21.300  0.00  0.00    +0.000 A 
ATOM     25  C   UNL     1      -0.503  10.376  22.448  0.00  0.00    +0.000 A 
ATOM     26  C   UNL     1       0.237   9.215  22.457  0.00  0.00    +0.000 A 
ATOM     27  O   UNL     1      -1.116  10.932  23.526  0.00  0.00    +0.000 OA
ATOM     28  C   UNL     1      -1.690  12.113  22.928  0.00  0.00    +0.000 C 
ATOM     29  O   UNL     1      -1.438  12.222  21.512  0.00  0.00    +0.000 OA
ENDBRANCH  20  21
ENDBRANCH   6  20
TORSDOF 3
ENDMDL
MODEL 3
REMARK VINA RESULT:      -7.8      5.338      7.513
REMARK  Name = 
REMARK  3 active torsions:
REMARK  status: ('A' for Active; 'I' for Inactive)
REMARK    1  A    between atoms: C_2  and  C_3
REMARK    2  A    between atoms: N_17  and  C_18
REMARK    3  A    between atoms: C_18  and  C_19
REMARK                            x       y       z     vdW  Elec       q    Type
REMARK                         _______ _______ _______ _____ _____    ______ ____
ROOT
ATOM      1  O   UNL     1       4.925   3.140  19.539  0.00  0.00    +0.000 OA
ATOM      2  C   UNL     1       4.668   4.190  18.953  0.00  0.00    +0.000 C 
ATOM      3  N   UNL     1       3.673   5.071  19.391  0.00  0.00    +0.000 N 
ATOM      4  C   UNL     1       3.334   6.380  18.806  0.00  0.00    +0.000 C 
ATOM      5  C   UNL     1       1.834   6.713  18.895  0.00  0.00    +0.000 C 
ATOM      6  N   UNL     1       1.231   6.511  20.230  0.00  0.00    +0.000 NA
ATOM      7  C   UNL     1       1.538   5.130  20.666  0.00  0.00    +0.000 C 
ATOM      8  C   UNL     1       3.040   4.788  20.685  0.00  0.00    +0.000 C 
ENDROOT
BRANCH   2   9
ATOM      9  C   UNL     1       5.450   4.468  17.731  0.00  0.00    +0.000 A 
ATOM     10  C   UNL     1       6.407   5.488  17.759  0.00  0.00    +0.000 A 
ATOM     11  F   UNL     1       6.640   6.189  18.875  0.00  0.00    +0.000 F 
ATOM     12  C   UNL     1       7.156   5.782  16.622  0.00  0.00    +0.000 A 
ATOM     13  F   UNL     1       8.060   6.772  16.652  0.00  0.00    +0.000 F 
ATOM     14  C   UNL     1       6.980   5.046  15.461  0.00  0.00    +0.000 A 
ATOM     15  F   UNL     1       7.736   5.293  14.383  0.00  0.00    +0.000 F 
ATOM     16  C   UNL     1       6.016   4.052  15.420  0.00  0.00    +0.000 A 
ATOM     17  F   UNL     1       5.853   3.320  14.309  0.00  0.00    +0.000 F 
ATOM     18  C   UNL     1       5.221   3.800  16.532  0.00  0.00    +0.000 A 
ATOM     19  F   UNL     1       4.240   2.893  16.418  0.00  0.00    +0.000 F 
ENDBRANCH   2   9
BRANCH   6  20
ATOM     20  C   UNL     1       1.707   7.542  21.168  0.00  0.00    +0.000 C 
BRANCH  20  21
ATOM     21  C   UNL     1       0.843   8.782  21.214  0.00  0.00    +0.000 A 
ATOM     22  C   UNL     1       0.622   9.543  20.043  0.00  0.00    +0.000 A 
ATOM     23  C   UNL     1      -0.149  10.709  20.078  0.00  0.00    +0.000 A 
ATOM     24  C   UNL     1      -0.684  11.086  21.290  0.00  0.00    +0.000 A 
ATOM     25  C   UNL     1      -0.482  10.349  22.432  0.00  0.00    +0.000 A 
ATOM     26  C   UNL     1       0.272   9.197  22.429  0.00  0.00    +0.000 A 
ATOM     27  O   UNL     1      -1.095  10.891  23.518  0.00  0.00    +0.000 OA
ATOM     28  C   UNL     1      -1.687  12.068  22.932  0.00  0.00    +0.000 C 
ATOM     29  O   UNL     1      -1.447  12.189  21.515  0.00  0.00    +0.000 OA
ENDBRANCH  20  21
ENDBRANCH   6  20
TORSDOF 3
ENDMDL
MODEL 4
REMARK VINA RESULT:      -7.7      0.232      1.986
REMARK  Name = 
REMARK  3 active torsions:
REMARK  status: ('A' for Active; 'I' for Inactive)
REMARK    1  A    between atoms: C_2  and  C_3
REMARK    2  A    between atoms: N_17  and  C_18
REMARK    3  A    between atoms: C_18  and  C_19
REMARK                            x       y       z     vdW  Elec       q    Type
REMARK                         _______ _______ _______ _____ _____    ______ ____
ROOT
ATOM      1  O   UNL     1       3.712   3.438  16.529  0.00  0.00    +0.000 OA
ATOM      2  C   UNL     1       4.013   4.047  17.554  0.00  0.00    +0.000 C 
ATOM      3  N   UNL     1       5.027   5.012  17.585  0.00  0.00    +0.000 N 
ATOM      4  C   UNL     1       5.419   5.842  18.737  0.00  0.00    +0.000 C 
ATOM      5  C   UNL     1       6.927   6.149  18.778  0.00  0.00    +0.000 C 
ATOM      6  N   UNL     1       7.497   6.635  17.503  0.00  0.00    +0.000 NA
ATOM      7  C   UNL     1       7.138   5.666  16.443  0.00  0.00    +0.000 C 
ATOM      8  C   UNL     1       5.626   5.406  16.304  0.00  0.00    +0.000 C 
ENDROOT
BRANCH   2   9
ATOM      9  C   UNL     1       3.265   3.687  18.775  0.00  0.00    +0.000 A 
ATOM     10  C   UNL     1       1.936   4.106  18.901  0.00  0.00    +0.000 A 
ATOM     11  F   UNL     1       1.332   4.797  17.927  0.00  0.00    +0.000 F 
ATOM     12  C   UNL     1       1.203   3.791  20.044  0.00  0.00    +0.000 A 
ATOM     13  F   UNL     1      -0.065   4.209  20.163  0.00  0.00    +0.000 F 
ATOM     14  C   UNL     1       1.777   3.034  21.053  0.00  0.00    +0.000 A 
ATOM     15  F   UNL     1       1.057   2.686  22.129  0.00  0.00    +0.000 F 
ATOM     16  C   UNL     1       3.100   2.638  20.945  0.00  0.00    +0.000 A 
ATOM     17  F   UNL     1       3.657   1.888  21.906  0.00  0.00    +0.000 F 
ATOM     18  C   UNL     1       3.854   3.007  19.837  0.00  0.00    +0.000 A 
ATOM     19  F   UNL     1       5.155   2.682  19.818  0.00  0.00    +0.000 F 
ENDBRANCH   2   9
BRANCH   6  20
ATOM     20  C   UNL     1       7.036   8.005  17.225  0.00  0.00    +0.000 C 
BRANCH  20  21
ATOM     21  C   UNL     1       7.908   9.085  17.826  0.00  0.00    +0.000 A 
ATOM     22  C   UNL     1       8.766   8.789  18.911  0.00  0.00    +0.000 A 
ATOM     23  C   UNL     1       9.554   9.784  19.496  0.00  0.00    +0.000 A 
ATOM     24  C   UNL     1       9.465  11.058  18.979  0.00  0.00    +0.000 A 
ATOM     25  C   UNL     1       8.641  11.354  17.920  0.00  0.00    +0.000 A 
ATOM     26  C   UNL     1       7.853  10.396  17.323  0.00  0.00    +0.000 A 
ATOM     27  O   UNL     1       8.702  12.664  17.563  0.00  0.00    +0.000 OA
ATOM     28  C   UNL     1       9.643  13.164  18.535  0.00  0.00    +0.000 C 
ATOM     29  O   UNL     1      10.146  12.147  19.425  0.00  0.00    +0.000 OA
ENDBRANCH  20  21
ENDBRANCH   6  20
TORSDOF 3
ENDMDL
MODEL 5
REMARK VINA RESULT:      -7.7      5.314      7.517
REMARK  Name = 
REMARK  3 active torsions:
REMARK  status: ('A' for Active; 'I' for Inactive)
REMARK    1  A    between atoms: C_2  and  C_3
REMARK    2  A    between atoms: N_17  and  C_18
REMARK    3  A    between atoms: C_18  and  C_19
REMARK                            x       y       z     vdW  Elec       q    Type
REMARK                         _______ _______ _______ _____ _____    ______ ____
ROOT
ATOM      1  O   UNL     1       4.795   3.249  19.617  0.00  0.00    +0.000 OA
ATOM      2  C   UNL     1       4.599   4.323  19.052  0.00  0.00    +0.000 C 
ATOM      3  N   UNL     1       3.629   5.235  19.486  0.00  0.00    +0.000 N 
ATOM      4  C   UNL     1       3.362   6.571  18.926  0.00  0.00    +0.000 C 
ATOM      5  C   UNL     1       1.875   6.965  18.983  0.00  0.00    +0.000 C 
ATOM      6  N   UNL     1       1.227   6.756  20.295  0.00  0.00    +0.000 NA
ATOM      7  C   UNL     1       1.463   5.353  20.703  0.00  0.00    +0.000 C 
ATOM      8  C   UNL     1       2.948   4.947  20.754  0.00  0.00    +0.000 C 
ENDROOT
BRANCH   2   9
ATOM      9  C   UNL     1       5.426   4.598  17.860  0.00  0.00    +0.000 A 
ATOM     10  C   UNL     1       5.240   3.818  16.714  0.00  0.00    +0.000 A 
ATOM     11  F   UNL     1       4.312   2.855  16.674  0.00  0.00    +0.000 F 
ATOM     12  C   UNL     1       6.009   4.045  15.574  0.00  0.00    +0.000 A 
ATOM     13  F   UNL     1       5.835   3.283  14.485  0.00  0.00    +0.000 F 
ATOM     14  C   UNL     1       6.946   5.066  15.558  0.00  0.00    +0.000 A 
ATOM     15  F   UNL     1       7.650   5.320  14.446  0.00  0.00    +0.000 F 
ATOM     16  C   UNL     1       7.153   5.825  16.698  0.00  0.00    +0.000 A 
ATOM     17  F   UNL     1       8.042   6.829  16.685  0.00  0.00    +0.000 F 
ATOM     18  C   UNL     1       6.434   5.559  17.857  0.00  0.00    +0.000 A 
ATOM     19  F   UNL     1       6.732   6.256  18.963  0.00  0.00    +0.000 F 
ENDBRANCH   2   9
BRANCH   6  20
ATOM     20  C   UNL     1       1.719   7.741  21.272  0.00  0.00    +0.000 C 
BRANCH  20  21
ATOM     21  C   UNL     1       0.783   8.908  21.497  0.00  0.00    +0.000 A 
ATOM     22  C   UNL     1       0.318   9.211  22.797  0.00  0.00    +0.000 A 
ATOM     23  C   UNL     1      -0.572  10.267  23.014  0.00  0.00    +0.000 A 
ATOM     24  C   UNL     1      -0.976  10.999  21.920  0.00  0.00    +0.000 A 
ATOM     25  C   UNL     1      -0.524  10.718  20.653  0.00  0.00    +0.000 A 
ATOM     26  C   UNL     1       0.352   9.685  20.407  0.00  0.00    +0.000 A 
ATOM     27  O   UNL     1      -1.041  11.557  19.716  0.00  0.00    +0.000 OA
ATOM     28  C   UNL     1      -1.890  12.385  20.538  0.00  0.00    +0.000 C 
ATOM     29  O   UNL     1      -1.840  12.049  21.939  0.00  0.00    +0.000 OA
ENDBRANCH  20  21
ENDBRANCH   6  20
TORSDOF 3
ENDMDL
MODEL 6
REMARK VINA RESULT:      -7.6      5.577      6.736
REMARK  Name = 
REMARK  3 active torsions:
REMARK  status: ('A' for Active; 'I' for Inactive)
REMARK    1  A    between atoms: C_2  and  C_3
REMARK    2  A    between atoms: N_17  and  C_18
REMARK    3  A    between atoms: C_18  and  C_19
REMARK                            x       y       z     vdW  Elec       q    Type
REMARK                         _______ _______ _______ _____ _____    ______ ____
ROOT
ATOM      1  O   UNL     1       2.106   5.703  20.904  0.00  0.00    +0.000 OA
ATOM      2  C   UNL     1       2.428   6.217  19.835  0.00  0.00    +0.000 C 
ATOM      3  N   UNL     1       2.083   7.530  19.497  0.00  0.00    +0.000 N 
ATOM      4  C   UNL     1       2.475   8.260  18.279  0.00  0.00    +0.000 C 
ATOM      5  C   UNL     1       1.394   9.239  17.784  0.00  0.00    +0.000 C 
ATOM      6  N   UNL     1       0.837  10.127  18.827  0.00  0.00    +0.000 NA
ATOM      7  C   UNL     1       0.373   9.279  19.949  0.00  0.00    +0.000 C 
ATOM      8  C   UNL     1       1.455   8.354  20.537  0.00  0.00    +0.000 C 
ENDROOT
BRANCH   2   9
ATOM      9  C   UNL     1       3.182   5.361  18.896  0.00  0.00    +0.000 A 
ATOM     10  C   UNL     1       2.473   4.550  18.003  0.00  0.00    +0.000 A 
ATOM     11  F   UNL     1       1.136   4.561  17.969  0.00  0.00    +0.000 F 
ATOM     12  C   UNL     1       3.153   3.724  17.111  0.00  0.00    +0.000 A 
ATOM     13  F   UNL     1       2.467   2.938  16.269  0.00  0.00    +0.000 F 
ATOM     14  C   UNL     1       4.539   3.721  17.081  0.00  0.00    +0.000 A 
ATOM     15  F   UNL     1       5.194   2.966  16.187  0.00  0.00    +0.000 F 
ATOM     16  C   UNL     1       5.246   4.503  17.980  0.00  0.00    +0.000 A 
ATOM     17  F   UNL     1       6.586   4.523  17.944  0.00  0.00    +0.000 F 
ATOM     18  C   UNL     1       4.571   5.278  18.915  0.00  0.00    +0.000 A 
ATOM     19  F   UNL     1       5.295   5.946  19.825  0.00  0.00    +0.000 F 
ENDBRANCH   2   9
BRANCH   6  20
ATOM     20  C   UNL     1       1.833  11.134  19.227  0.00  0.00    +0.000 C 
BRANCH  20  21
ATOM     21  C   UNL     1       1.351  12.563  19.104  0.00  0.00    +0.000 A 
ATOM     22  C   UNL     1      -0.024  12.867  19.236  0.00  0.00    +0.000 A 
ATOM     23  C   UNL     1      -0.487  14.178  19.092  0.00  0.00    +0.000 A 
ATOM     24  C   UNL     1       0.441  15.159  18.820  0.00  0.00    +0.000 A 
ATOM     25  C   UNL     1       1.781  14.875  18.697  0.00  0.00    +0.000 A 
ATOM     26  C   UNL     1       2.267  13.594  18.833  0.00  0.00    +0.000 A 
ATOM     27  O   UNL     1       2.525  15.980  18.429  0.00  0.00    +0.000 OA
ATOM     28  C   UNL     1       1.497  16.990  18.374  0.00  0.00    +0.000 C 
ATOM     29  O   UNL     1       0.174  16.480  18.639  0.00  0.00    +0.000 OA
ENDBRANCH  20  21
ENDBRANCH   6  20
TORSDOF 3
ENDMDL
MODEL 7
REMARK VINA RESULT:      -7.6      5.403      7.425
REMARK  Name = 
REMARK  3 active torsions:
REMARK  status: ('A' for Active; 'I' for Inactive)
REMARK    1  A    between atoms: C_2  and  C_3
REMARK    2  A    between atoms: N_17  and  C_18
REMARK    3  A    between atoms: C_18  and  C_19
REMARK                            x       y       z     vdW  Elec       q    Type
REMARK                         _______ _______ _______ _____ _____    ______ ____
ROOT
ATOM      1  O   UNL     1       4.367   3.332  19.562  0.00  0.00    +0.000 OA
ATOM      2  C   UNL     1       4.253   4.428  19.016  0.00  0.00    +0.000 C 
ATOM      3  N   UNL     1       3.356   5.403  19.467  0.00  0.00    +0.000 N 
ATOM      4  C   UNL     1       3.191   6.765  18.930  0.00  0.00    +0.000 C 
ATOM      5  C   UNL     1       1.738   7.270  18.996  0.00  0.00    +0.000 C 
ATOM      6  N   UNL     1       1.077   7.088  20.306  0.00  0.00    +0.000 NA
ATOM      7  C   UNL     1       1.206   5.664  20.690  0.00  0.00    +0.000 C 
ATOM      8  C   UNL     1       2.656   5.146  20.731  0.00  0.00    +0.000 C 
ENDROOT
BRANCH   2   9
ATOM      9  C   UNL     1       5.099   4.659  17.827  0.00  0.00    +0.000 A 
ATOM     10  C   UNL     1       6.219   5.489  17.946  0.00  0.00    +0.000 A 
ATOM     11  F   UNL     1       6.547   6.046  19.117  0.00  0.00    +0.000 F 
ATOM     12  C   UNL     1       7.033   5.736  16.843  0.00  0.00    +0.000 A 
ATOM     13  F   UNL     1       8.096   6.544  16.961  0.00  0.00    +0.000 F 
ATOM     14  C   UNL     1       6.755   5.137  15.624  0.00  0.00    +0.000 A 
ATOM     15  F   UNL     1       7.567   5.331  14.575  0.00  0.00    +0.000 F 
ATOM     16  C   UNL     1       5.633   4.335  15.494  0.00  0.00    +0.000 A 
ATOM     17  F   UNL     1       5.368   3.734  14.325  0.00  0.00    +0.000 F 
ATOM     18  C   UNL     1       4.782   4.140  16.575  0.00  0.00    +0.000 A 
ATOM     19  F   UNL     1       3.660   3.433  16.380  0.00  0.00    +0.000 F 
ENDBRANCH   2   9
BRANCH   6  20
ATOM     20  C   UNL     1       1.642   8.016  21.299  0.00  0.00    +0.000 C 
BRANCH  20  21
ATOM     21  C   UNL     1       0.738   9.178  21.644  0.00  0.00    +0.000 A 
ATOM     22  C   UNL     1       0.087   9.230  22.899  0.00  0.00    +0.000 A 
ATOM     23  C   UNL     1      -0.776  10.283  23.218  0.00  0.00    +0.000 A 
ATOM     24  C   UNL     1      -0.968  11.263  22.270  0.00  0.00    +0.000 A 
ATOM     25  C   UNL     1      -0.335  11.226  21.051  0.00  0.00    +0.000 A 
ATOM     26  C   UNL     1       0.521  10.203  20.707  0.00  0.00    +0.000 A 
ATOM     27  O   UNL     1      -0.659  12.286  20.263  0.00  0.00    +0.000 OA
ATOM     28  C   UNL     1      -1.588  12.982  21.119  0.00  0.00    +0.000 C 
ATOM     29  O   UNL     1      -1.775  12.350  22.401  0.00  0.00    +0.000 OA
ENDBRANCH  20  21
ENDBRANCH   6  20
TORSDOF 3
ENDMDL
MODEL 8
REMARK VINA RESULT:      -7.5      5.516      6.490
REMARK  Name = 
REMARK  3 active torsions:
REMARK  status: ('A' for Active; 'I' for Inactive)
REMARK    1  A    between atoms: C_2  and  C_3
REMARK    2  A    between atoms: N_17  and  C_18
REMARK    3  A    between atoms: C_18  and  C_19
REMARK                            x       y       z     vdW  Elec       q    Type
REMARK                         _______ _______ _______ _____ _____    ______ ____
ROOT
ATOM      1  O   UNL     1       2.032   5.639  20.899  0.00  0.00    +0.000 OA
ATOM      2  C   UNL     1       2.366   6.167  19.840  0.00  0.00    +0.000 C 
ATOM      3  N   UNL     1       2.044   7.492  19.526  0.00  0.00    +0.000 N 
ATOM      4  C   UNL     1       2.452   8.237  18.322  0.00  0.00    +0.000 C 
ATOM      5  C   UNL     1       1.389   9.244  17.844  0.00  0.00    +0.000 C 
ATOM      6  N   UNL     1       0.845  10.121  18.902  0.00  0.00    +0.000 NA
ATOM      7  C   UNL     1       0.363   9.262  20.007  0.00  0.00    +0.000 C 
ATOM      8  C   UNL     1       1.428   8.307  20.580  0.00  0.00    +0.000 C 
ENDROOT
BRANCH   2   9
ATOM      9  C   UNL     1       3.108   5.316  18.887  0.00  0.00    +0.000 A 
ATOM     10  C   UNL     1       4.506   5.319  18.926  0.00  0.00    +0.000 A 
ATOM     11  F   UNL     1       5.173   6.053  19.823  0.00  0.00    +0.000 F 
ATOM     12  C   UNL     1       5.237   4.534  18.036  0.00  0.00    +0.000 A 
ATOM     13  F   UNL     1       6.578   4.555  18.069  0.00  0.00    +0.000 F 
ATOM     14  C   UNL     1       4.583   3.721  17.124  0.00  0.00    +0.000 A 
ATOM     15  F   UNL     1       5.284   2.926  16.304  0.00  0.00    +0.000 F 
ATOM     16  C   UNL     1       3.199   3.733  17.065  0.00  0.00    +0.000 A 
ATOM     17  F   UNL     1       2.557   2.933  16.201  0.00  0.00    +0.000 F 
ATOM     18  C   UNL     1       2.469   4.563  17.906  0.00  0.00    +0.000 A 
ATOM     19  F   UNL     1       1.137   4.612  17.751  0.00  0.00    +0.000 F 
ENDBRANCH   2   9
BRANCH   6  20
ATOM     20  C   UNL     1       1.857  11.104  19.323  0.00  0.00    +0.000 C 
BRANCH  20  21
ATOM     21  C   UNL     1       1.422  12.545  19.168  0.00  0.00    +0.000 A 
ATOM     22  C   UNL     1       0.068  12.906  19.356  0.00  0.00    +0.000 A 
ATOM     23  C   UNL     1      -0.354  14.229  19.185  0.00  0.00    +0.000 A 
ATOM     24  C   UNL     1       0.595  15.162  18.827  0.00  0.00    +0.000 A 
ATOM     25  C   UNL     1       1.915  14.822  18.650  0.00  0.00    +0.000 A 
ATOM     26  C   UNL     1       2.360  13.529  18.811  0.00  0.00    +0.000 A 
ATOM     27  O   UNL     1       2.685  15.887  18.301  0.00  0.00    +0.000 OA
ATOM     28  C   UNL     1       1.693  16.932  18.258  0.00  0.00    +0.000 C 
ATOM     29  O   UNL     1       0.368  16.484  18.609  0.00  0.00    +0.000 OA
ENDBRANCH  20  21
ENDBRANCH   6  20
TORSDOF 3
ENDMDL
MODEL 9
REMARK VINA RESULT:      -7.4      5.894      6.945
REMARK  Name = 
REMARK  3 active torsions:
REMARK  status: ('A' for Active; 'I' for Inactive)
REMARK    1  A    between atoms: C_2  and  C_3
REMARK    2  A    between atoms: N_17  and  C_18
REMARK    3  A    between atoms: C_18  and  C_19
REMARK                            x       y       z     vdW  Elec       q    Type
REMARK                         _______ _______ _______ _____ _____    ______ ____
ROOT
ATOM      1  O   UNL     1       2.107   6.008  20.947  0.00  0.00    +0.000 OA
ATOM      2  C   UNL     1       2.399   6.422  19.826  0.00  0.00    +0.000 C 
ATOM      3  N   UNL     1       2.049   7.702  19.383  0.00  0.00    +0.000 N 
ATOM      4  C   UNL     1       2.407   8.317  18.093  0.00  0.00    +0.000 C 
ATOM      5  C   UNL     1       1.316   9.256  17.546  0.00  0.00    +0.000 C 
ATOM      6  N   UNL     1       0.794  10.237  18.521  0.00  0.00    +0.000 NA
ATOM      7  C   UNL     1       0.361   9.496  19.727  0.00  0.00    +0.000 C 
ATOM      8  C   UNL     1       1.456   8.619  20.364  0.00  0.00    +0.000 C 
ENDROOT
BRANCH   2   9
ATOM      9  C   UNL     1       3.121   5.480  18.947  0.00  0.00    +0.000 A 
ATOM     10  C   UNL     1       2.383   4.641  18.105  0.00  0.00    +0.000 A 
ATOM     11  F   UNL     1       1.048   4.700  18.066  0.00  0.00    +0.000 F 
ATOM     12  C   UNL     1       3.033   3.735  17.268  0.00  0.00    +0.000 A 
ATOM     13  F   UNL     1       2.318   2.924  16.476  0.00  0.00    +0.000 F 
ATOM     14  C   UNL     1       4.417   3.679  17.242  0.00  0.00    +0.000 A 
ATOM     15  F   UNL     1       5.044   2.846  16.400  0.00  0.00    +0.000 F 
ATOM     16  C   UNL     1       5.152   4.490  18.092  0.00  0.00    +0.000 A 
ATOM     17  F   UNL     1       6.492   4.458  18.059  0.00  0.00    +0.000 F 
ATOM     18  C   UNL     1       4.506   5.347  18.975  0.00  0.00    +0.000 A 
ATOM     19  F   UNL     1       5.254   6.045  19.843  0.00  0.00    +0.000 F 
ENDBRANCH   2   9
BRANCH   6  20
ATOM     20  C   UNL     1       1.806  11.269  18.800  0.00  0.00    +0.000 C 
BRANCH  20  21
ATOM     21  C   UNL     1       1.245  12.536  19.408  0.00  0.00    +0.000 A 
ATOM     22  C   UNL     1       0.313  13.321  18.691  0.00  0.00    +0.000 A 
ATOM     23  C   UNL     1      -0.190  14.510  19.228  0.00  0.00    +0.000 A 
ATOM     24  C   UNL     1       0.254  14.886  20.477  0.00  0.00    +0.000 A 
ATOM     25  C   UNL     1       1.154  14.126  21.185  0.00  0.00    +0.000 A 
ATOM     26  C   UNL     1       1.666  12.951  20.683  0.00  0.00    +0.000 A 
ATOM     27  O   UNL     1       1.460  14.672  22.392  0.00  0.00    +0.000 OA
ATOM     28  C   UNL     1       0.667  15.875  22.352  0.00  0.00    +0.000 C 
ATOM     29  O   UNL     1      -0.115  16.009  21.148  0.00  0.00    +0.000 OA
ENDBRANCH  20  21
ENDBRANCH   6  20
TORSDOF 3
ENDMDL
