MODEL 1
REMARK VINA RESULT:      -8.3      0.000      0.000
REMARK  Name = 
REMARK  7 active torsions:
REMARK  status: ('A' for Active; 'I' for Inactive)
REMARK    1  A    between atoms: C_1  and  C_2
REMARK    2  A    between atoms: C_2  and  O_3
REMARK    3  A    between atoms: O_3  and  C_4
REMARK    4  A    between atoms: C_4  and  C_6
REMARK    5  A    between atoms: C_8  and  C_9
REMARK    6  A    between atoms: N_16  and  C_17
REMARK    7  A    between atoms: C_17  and  C_18
REMARK                            x       y       z     vdW  Elec       q    Type
REMARK                         _______ _______ _______ _____ _____    ______ ____
ROOT
ATOM      1  C   UNL     1       2.923   4.241  18.318  0.00  0.00    +0.000 A 
ATOM      2  C   UNL     1       1.991   5.253  18.447  0.00  0.00    +0.000 A 
ATOM      3  C   UNL     1       2.709   6.467  18.542  0.00  0.00    +0.000 A 
ATOM      4  N   UNL     1       4.021   6.231  18.399  0.00  0.00    +0.000 NA
ATOM      5  N   UNL     1       4.131   4.889  18.279  0.00  0.00    +0.000 N 
ENDROOT
BRANCH   3   6
ATOM      6  C   UNL     1       2.173   7.808  18.786  0.00  0.00    +0.000 A 
ATOM      7  C   UNL     1       2.178   8.782  17.776  0.00  0.00    +0.000 A 
ATOM      8  C   UNL     1       1.616  10.041  17.999  0.00  0.00    +0.000 A 
ATOM      9  C   UNL     1       1.043  10.343  19.230  0.00  0.00    +0.000 A 
ATOM     10  C   UNL     1       1.041   9.389  20.246  0.00  0.00    +0.000 A 
ATOM     11  C   UNL     1       1.604   8.133  20.026  0.00  0.00    +0.000 A 
ENDBRANCH   3   6
BRANCH   1  12
ATOM     12  C   UNL     1       2.702   2.827  18.208  0.00  0.00    +0.000 C 
ATOM     13  O   UNL     1       2.349   2.229  17.202  0.00  0.00    +0.000 OA
BRANCH  12  14
ATOM     14  O   UNL     1       2.861   2.266  19.440  0.00  0.00    +0.000 OA
BRANCH  14  16
ATOM     15  C   UNL     1       2.145   2.877  21.633  0.00  0.00    +0.000 C 
ATOM     16  C   UNL     1       1.716   2.294  20.298  0.00  0.00    +0.000 C 
ENDBRANCH  14  16
ENDBRANCH  12  14
ENDBRANCH   1  12
BRANCH   5  17
ATOM     17  C   UNL     1       5.466   4.321  18.117  0.00  0.00    +0.000 C 
BRANCH  17  18
ATOM     18  C   UNL     1       5.996   4.520  16.722  0.00  0.00    +0.000 A 
ATOM     19  C   UNL     1       5.462   3.825  15.632  0.00  0.00    +0.000 A 
ATOM     20  C   UNL     1       5.997   4.022  14.360  0.00  0.00    +0.000 A 
ATOM     21  C   UNL     1       7.045   4.916  14.228  0.00  0.00    +0.000 A 
ATOM     22 CL   UNL     1       7.794   5.176  12.707  0.00  0.00    +0.000 Cl
ATOM     23  N   UNL     1       7.567   5.631  15.242  0.00  0.00    +0.000 NA
ATOM     24  C   UNL     1       7.031   5.420  16.464  0.00  0.00    +0.000 A 
ENDBRANCH  17  18
ENDBRANCH   5  17
TORSDOF 6
ENDMDL
MODEL 2
REMARK VINA RESULT:      -8.1      1.113      1.663
REMARK  Name = 
REMARK  7 active torsions:
REMARK  status: ('A' for Active; 'I' for Inactive)
REMARK    1  A    between atoms: C_1  and  C_2
REMARK    2  A    between atoms: C_2  and  O_3
REMARK    3  A    between atoms: O_3  and  C_4
REMARK    4  A    between atoms: C_4  and  C_6
REMARK    5  A    between atoms: C_8  and  C_9
REMARK    6  A    between atoms: N_16  and  C_17
REMARK    7  A    between atoms: C_17  and  C_18
REMARK                            x       y       z     vdW  Elec       q    Type
REMARK                         _______ _______ _______ _____ _____    ______ ____
ROOT
ATOM      1  C   UNL     1       2.936   4.284  20.068  0.00  0.00    +0.000 A 
ATOM      2  C   UNL     1       1.993   5.295  20.038  0.00  0.00    +0.000 A 
ATOM      3  C   UNL     1       2.625   6.432  19.485  0.00  0.00    +0.000 A 
ATOM      4  N   UNL     1       3.876   6.122  19.114  0.00  0.00    +0.000 NA
ATOM      5  N   UNL     1       4.048   4.833  19.484  0.00  0.00    +0.000 N 
ENDROOT
BRANCH   3   6
ATOM      6  C   UNL     1       2.070   7.779  19.334  0.00  0.00    +0.000 A 
ATOM      7  C   UNL     1       2.156   8.462  18.111  0.00  0.00    +0.000 A 
ATOM      8  C   UNL     1       1.577   9.724  17.959  0.00  0.00    +0.000 A 
ATOM      9  C   UNL     1       0.907  10.319  19.023  0.00  0.00    +0.000 A 
ATOM     10  C   UNL     1       0.824   9.657  20.247  0.00  0.00    +0.000 A 
ATOM     11  C   UNL     1       1.403   8.399  20.401  0.00  0.00    +0.000 A 
ENDBRANCH   3   6
BRANCH   1  12
ATOM     12  C   UNL     1       2.796   2.941  20.558  0.00  0.00    +0.000 C 
ATOM     13  O   UNL     1       3.404   2.451  21.498  0.00  0.00    +0.000 OA
BRANCH  12  14
ATOM     14  O   UNL     1       1.935   2.270  19.742  0.00  0.00    +0.000 OA
BRANCH  14  16
ATOM     15  C   UNL     1       3.577   1.219  18.366  0.00  0.00    +0.000 C 
ATOM     16  C   UNL     1       2.349   2.111  18.381  0.00  0.00    +0.000 C 
ENDBRANCH  14  16
ENDBRANCH  12  14
ENDBRANCH   1  12
BRANCH   5  17
ATOM     17  C   UNL     1       5.340   4.209  19.215  0.00  0.00    +0.000 C 
BRANCH  17  18
ATOM     18  C   UNL     1       5.769   4.401  17.784  0.00  0.00    +0.000 A 
ATOM     19  C   UNL     1       4.870   4.248  16.724  0.00  0.00    +0.000 A 
ATOM     20  C   UNL     1       5.315   4.413  15.414  0.00  0.00    +0.000 A 
ATOM     21  C   UNL     1       6.646   4.733  15.215  0.00  0.00    +0.000 A 
ATOM     22 CL   UNL     1       7.285   4.901  13.633  0.00  0.00    +0.000 Cl
ATOM     23  N   UNL     1       7.538   4.923  16.206  0.00  0.00    +0.000 NA
ATOM     24  C   UNL     1       7.081   4.756  17.466  0.00  0.00    +0.000 A 
ENDBRANCH  17  18
ENDBRANCH   5  17
TORSDOF 6
ENDMDL
MODEL 3
REMARK VINA RESULT:      -8.0      0.989      1.291
REMARK  Name = 
REMARK  7 active torsions:
REMARK  status: ('A' for Active; 'I' for Inactive)
REMARK    1  A    between atoms: C_1  and  C_2
REMARK    2  A    between atoms: C_2  and  O_3
REMARK    3  A    between atoms: O_3  and  C_4
REMARK    4  A    between atoms: C_4  and  C_6
REMARK    5  A    between atoms: C_8  and  C_9
REMARK    6  A    between atoms: N_16  and  C_17
REMARK    7  A    between atoms: C_17  and  C_18
REMARK                            x       y       z     vdW  Elec       q    Type
REMARK                         _______ _______ _______ _____ _____    ______ ____
ROOT
ATOM      1  C   UNL     1       3.886   4.288  19.159  0.00  0.00    +0.000 A 
ATOM      2  C   UNL     1       2.774   5.096  19.309  0.00  0.00    +0.000 A 
ATOM      3  C   UNL     1       3.157   6.401  18.926  0.00  0.00    +0.000 A 
ATOM      4  N   UNL     1       4.423   6.392  18.483  0.00  0.00    +0.000 NA
ATOM      5  N   UNL     1       4.847   5.118  18.643  0.00  0.00    +0.000 N 
ENDROOT
BRANCH   3   6
ATOM      6  C   UNL     1       2.359   7.627  18.998  0.00  0.00    +0.000 A 
ATOM      7  C   UNL     1       2.174   8.436  17.868  0.00  0.00    +0.000 A 
ATOM      8  C   UNL     1       1.366   9.574  17.931  0.00  0.00    +0.000 A 
ATOM      9  C   UNL     1       0.735   9.917  19.122  0.00  0.00    +0.000 A 
ATOM     10  C   UNL     1       0.919   9.129  20.257  0.00  0.00    +0.000 A 
ATOM     11  C   UNL     1       1.726   7.995  20.196  0.00  0.00    +0.000 A 
ENDBRANCH   3   6
BRANCH   1  12
ATOM     12  C   UNL     1       4.019   2.885  19.437  0.00  0.00    +0.000 C 
ATOM     13  O   UNL     1       4.835   2.375  20.191  0.00  0.00    +0.000 OA
BRANCH  12  14
ATOM     14  O   UNL     1       3.143   2.202  18.648  0.00  0.00    +0.000 OA
BRANCH  14  16
ATOM     15  C   UNL     1       0.760   2.314  18.699  0.00  0.00    +0.000 C 
ATOM     16  C   UNL     1       1.991   1.663  19.304  0.00  0.00    +0.000 C 
ENDBRANCH  14  16
ENDBRANCH  12  14
ENDBRANCH   1  12
BRANCH   5  17
ATOM     17  C   UNL     1       6.216   4.796  18.252  0.00  0.00    +0.000 C 
BRANCH  17  18
ATOM     18  C   UNL     1       6.363   4.690  16.757  0.00  0.00    +0.000 A 
ATOM     19  C   UNL     1       5.512   3.883  15.995  0.00  0.00    +0.000 A 
ATOM     20  C   UNL     1       5.696   3.797  14.616  0.00  0.00    +0.000 A 
ATOM     21  C   UNL     1       6.726   4.528  14.051  0.00  0.00    +0.000 A 
ATOM     22 CL   UNL     1       7.054   4.435  12.371  0.00  0.00    +0.000 Cl
ATOM     23  N   UNL     1       7.547   5.342  14.741  0.00  0.00    +0.000 NA
ATOM     24  C   UNL     1       7.346   5.407  16.076  0.00  0.00    +0.000 A 
ENDBRANCH  17  18
ENDBRANCH   5  17
TORSDOF 6
ENDMDL
MODEL 4
REMARK VINA RESULT:      -8.0      1.197      1.989
REMARK  Name = 
REMARK  7 active torsions:
REMARK  status: ('A' for Active; 'I' for Inactive)
REMARK    1  A    between atoms: C_1  and  C_2
REMARK    2  A    between atoms: C_2  and  O_3
REMARK    3  A    between atoms: O_3  and  C_4
REMARK    4  A    between atoms: C_4  and  C_6
REMARK    5  A    between atoms: C_8  and  C_9
REMARK    6  A    between atoms: N_16  and  C_17
REMARK    7  A    between atoms: C_17  and  C_18
REMARK                            x       y       z     vdW  Elec       q    Type
REMARK                         _______ _______ _______ _____ _____    ______ ____
ROOT
ATOM      1  C   UNL     1       2.778   4.290  20.213  0.00  0.00    +0.000 A 
ATOM      2  C   UNL     1       1.856   5.318  20.157  0.00  0.00    +0.000 A 
ATOM      3  C   UNL     1       2.508   6.426  19.570  0.00  0.00    +0.000 A 
ATOM      4  N   UNL     1       3.751   6.081  19.204  0.00  0.00    +0.000 NA
ATOM      5  N   UNL     1       3.899   4.800  19.611  0.00  0.00    +0.000 N 
ENDROOT
BRANCH   3   6
ATOM      6  C   UNL     1       1.980   7.779  19.381  0.00  0.00    +0.000 A 
ATOM      7  C   UNL     1       1.332   8.454  20.426  0.00  0.00    +0.000 A 
ATOM      8  C   UNL     1       0.880   9.765  20.255  0.00  0.00    +0.000 A 
ATOM      9  C   UNL     1       1.069  10.416  19.041  0.00  0.00    +0.000 A 
ATOM     10  C   UNL     1       1.701   9.754  17.990  0.00  0.00    +0.000 A 
ATOM     11  C   UNL     1       2.150   8.446  18.158  0.00  0.00    +0.000 A 
ENDBRANCH   3   6
BRANCH   1  12
ATOM     12  C   UNL     1       2.613   2.965  20.742  0.00  0.00    +0.000 C 
ATOM     13  O   UNL     1       3.158   2.514  21.739  0.00  0.00    +0.000 OA
BRANCH  12  14
ATOM     14  O   UNL     1       1.815   2.256  19.894  0.00  0.00    +0.000 OA
BRANCH  14  16
ATOM     15  C   UNL     1       3.464   1.220  18.516  0.00  0.00    +0.000 C 
ATOM     16  C   UNL     1       2.267   2.153  18.541  0.00  0.00    +0.000 C 
ENDBRANCH  14  16
ENDBRANCH  12  14
ENDBRANCH   1  12
BRANCH   5  17
ATOM     17  C   UNL     1       5.177   4.143  19.356  0.00  0.00    +0.000 C 
BRANCH  17  18
ATOM     18  C   UNL     1       5.649   4.361  17.943  0.00  0.00    +0.000 A 
ATOM     19  C   UNL     1       4.793   4.186  16.851  0.00  0.00    +0.000 A 
ATOM     20  C   UNL     1       5.277   4.377  15.558  0.00  0.00    +0.000 A 
ATOM     21  C   UNL     1       6.603   4.742  15.408  0.00  0.00    +0.000 A 
ATOM     22 CL   UNL     1       7.290   4.944  13.850  0.00  0.00    +0.000 Cl
ATOM     23  N   UNL     1       7.453   4.953  16.431  0.00  0.00    +0.000 NA
ATOM     24  C   UNL     1       6.958   4.761  17.673  0.00  0.00    +0.000 A 
ENDBRANCH  17  18
ENDBRANCH   5  17
TORSDOF 6
ENDMDL
MODEL 5
REMARK VINA RESULT:      -7.6      1.526      2.236
REMARK  Name = 
REMARK  7 active torsions:
REMARK  status: ('A' for Active; 'I' for Inactive)
REMARK    1  A    between atoms: C_1  and  C_2
REMARK    2  A    between atoms: C_2  and  O_3
REMARK    3  A    between atoms: O_3  and  C_4
REMARK    4  A    between atoms: C_4  and  C_6
REMARK    5  A    between atoms: C_8  and  C_9
REMARK    6  A    between atoms: N_16  and  C_17
REMARK    7  A    between atoms: C_17  and  C_18
REMARK                            x       y       z     vdW  Elec       q    Type
REMARK                         _______ _______ _______ _____ _____    ______ ____
ROOT
ATOM      1  C   UNL     1       2.394   4.462  20.593  0.00  0.00    +0.000 A 
ATOM      2  C   UNL     1       1.596   5.583  20.457  0.00  0.00    +0.000 A 
ATOM      3  C   UNL     1       2.350   6.542  19.743  0.00  0.00    +0.000 A 
ATOM      4  N   UNL     1       3.530   6.016  19.382  0.00  0.00    +0.000 NA
ATOM      5  N   UNL     1       3.543   4.773  19.913  0.00  0.00    +0.000 N 
ENDROOT
BRANCH   3   6
ATOM      6  C   UNL     1       1.977   7.924  19.431  0.00  0.00    +0.000 A 
ATOM      7  C   UNL     1       2.280   8.489  18.184  0.00  0.00    +0.000 A 
ATOM      8  C   UNL     1       1.872   9.789  17.874  0.00  0.00    +0.000 A 
ATOM      9  C   UNL     1       1.160  10.539  18.804  0.00  0.00    +0.000 A 
ATOM     10  C   UNL     1       0.862   9.994  20.052  0.00  0.00    +0.000 A 
ATOM     11  C   UNL     1       1.270   8.698  20.364  0.00  0.00    +0.000 A 
ENDBRANCH   3   6
BRANCH   1  12
ATOM     12  C   UNL     1       2.095   3.225  21.258  0.00  0.00    +0.000 C 
ATOM     13  O   UNL     1       2.598   2.828  22.300  0.00  0.00    +0.000 OA
BRANCH  12  14
ATOM     14  O   UNL     1       1.222   2.518  20.487  0.00  0.00    +0.000 OA
BRANCH  14  16
ATOM     15  C   UNL     1       1.311   2.579  18.104  0.00  0.00    +0.000 C 
ATOM     16  C   UNL     1       1.781   1.851  19.351  0.00  0.00    +0.000 C 
ENDBRANCH  14  16
ENDBRANCH  12  14
ENDBRANCH   1  12
BRANCH   5  17
ATOM     17  C   UNL     1       4.725   3.945  19.693  0.00  0.00    +0.000 C 
BRANCH  17  18
ATOM     18  C   UNL     1       5.319   4.166  18.327  0.00  0.00    +0.000 A 
ATOM     19  C   UNL     1       6.593   4.720  18.164  0.00  0.00    +0.000 A 
ATOM     20  C   UNL     1       7.095   4.927  16.881  0.00  0.00    +0.000 A 
ATOM     21  C   UNL     1       6.303   4.565  15.807  0.00  0.00    +0.000 A 
ATOM     22 CL   UNL     1       6.825   4.836  14.196  0.00  0.00    +0.000 Cl
ATOM     23  N   UNL     1       5.086   3.999  15.917  0.00  0.00    +0.000 NA
ATOM     24  C   UNL     1       4.623   3.809  17.172  0.00  0.00    +0.000 A 
ENDBRANCH  17  18
ENDBRANCH   5  17
TORSDOF 6
ENDMDL
MODEL 6
REMARK VINA RESULT:      -7.6      3.439      7.281
REMARK  Name = 
REMARK  7 active torsions:
REMARK  status: ('A' for Active; 'I' for Inactive)
REMARK    1  A    between atoms: C_1  and  C_2
REMARK    2  A    between atoms: C_2  and  O_3
REMARK    3  A    between atoms: O_3  and  C_4
REMARK    4  A    between atoms: C_4  and  C_6
REMARK    5  A    between atoms: C_8  and  C_9
REMARK    6  A    between atoms: N_16  and  C_17
REMARK    7  A    between atoms: C_17  and  C_18
REMARK                            x       y       z     vdW  Elec       q    Type
REMARK                         _______ _______ _______ _____ _____    ______ ____
ROOT
ATOM      1  C   UNL     1       6.581   5.781  17.429  0.00  0.00    +0.000 A 
ATOM      2  C   UNL     1       7.168   5.193  16.324  0.00  0.00    +0.000 A 
ATOM      3  C   UNL     1       6.198   5.185  15.297  0.00  0.00    +0.000 A 
ATOM      4  N   UNL     1       5.087   5.810  15.715  0.00  0.00    +0.000 NA
ATOM      5  N   UNL     1       5.332   6.149  17.001  0.00  0.00    +0.000 N 
ENDROOT
BRANCH   3   6
ATOM      6  C   UNL     1       6.307   4.583  13.966  0.00  0.00    +0.000 A 
ATOM      7  C   UNL     1       7.387   4.885  13.123  0.00  0.00    +0.000 A 
ATOM      8  C   UNL     1       7.513   4.266  11.877  0.00  0.00    +0.000 A 
ATOM      9  C   UNL     1       6.565   3.338  11.459  0.00  0.00    +0.000 A 
ATOM     10  C   UNL     1       5.481   3.036  12.282  0.00  0.00    +0.000 A 
ATOM     11  C   UNL     1       5.352   3.655  13.523  0.00  0.00    +0.000 A 
ENDBRANCH   3   6
BRANCH   1  12
ATOM     12  C   UNL     1       7.144   6.005  18.731  0.00  0.00    +0.000 C 
ATOM     13  O   UNL     1       6.769   5.493  19.776  0.00  0.00    +0.000 OA
BRANCH  12  14
ATOM     14  O   UNL     1       8.113   6.957  18.627  0.00  0.00    +0.000 OA
BRANCH  14  16
ATOM     15  C   UNL     1       8.540   9.292  18.377  0.00  0.00    +0.000 C 
ATOM     16  C   UNL     1       7.798   8.093  17.815  0.00  0.00    +0.000 C 
ENDBRANCH  14  16
ENDBRANCH  12  14
ENDBRANCH   1  12
BRANCH   5  17
ATOM     17  C   UNL     1       4.283   6.846  17.738  0.00  0.00    +0.000 C 
BRANCH  17  18
ATOM     18  C   UNL     1       3.444   5.898  18.553  0.00  0.00    +0.000 A 
ATOM     19  C   UNL     1       2.806   6.310  19.727  0.00  0.00    +0.000 A 
ATOM     20  C   UNL     1       2.058   5.393  20.463  0.00  0.00    +0.000 A 
ATOM     21  C   UNL     1       1.970   4.096  19.989  0.00  0.00    +0.000 A 
ATOM     22 CL   UNL     1       1.113   2.895  20.863  0.00  0.00    +0.000 Cl
ATOM     23  N   UNL     1       2.539   3.664  18.848  0.00  0.00    +0.000 NA
ATOM     24  C   UNL     1       3.260   4.573  18.154  0.00  0.00    +0.000 A 
ENDBRANCH  17  18
ENDBRANCH   5  17
TORSDOF 6
ENDMDL
MODEL 7
REMARK VINA RESULT:      -7.6      1.154      1.636
REMARK  Name = 
REMARK  7 active torsions:
REMARK  status: ('A' for Active; 'I' for Inactive)
REMARK    1  A    between atoms: C_1  and  C_2
REMARK    2  A    between atoms: C_2  and  O_3
REMARK    3  A    between atoms: O_3  and  C_4
REMARK    4  A    between atoms: C_4  and  C_6
REMARK    5  A    between atoms: C_8  and  C_9
REMARK    6  A    between atoms: N_16  and  C_17
REMARK    7  A    between atoms: C_17  and  C_18
REMARK                            x       y       z     vdW  Elec       q    Type
REMARK                         _______ _______ _______ _____ _____    ______ ____
ROOT
ATOM      1  C   UNL     1       3.579   4.381  19.660  0.00  0.00    +0.000 A 
ATOM      2  C   UNL     1       2.476   5.214  19.697  0.00  0.00    +0.000 A 
ATOM      3  C   UNL     1       2.907   6.488  19.263  0.00  0.00    +0.000 A 
ATOM      4  N   UNL     1       4.196   6.432  18.897  0.00  0.00    +0.000 NA
ATOM      5  N   UNL     1       4.585   5.163  19.155  0.00  0.00    +0.000 N 
ENDROOT
BRANCH   3   6
ATOM      6  C   UNL     1       2.130   7.729  19.218  0.00  0.00    +0.000 A 
ATOM      7  C   UNL     1       1.550   8.261  20.379  0.00  0.00    +0.000 A 
ATOM      8  C   UNL     1       0.857   9.473  20.338  0.00  0.00    +0.000 A 
ATOM      9  C   UNL     1       0.735  10.168  19.139  0.00  0.00    +0.000 A 
ATOM     10  C   UNL     1       1.296   9.646  17.976  0.00  0.00    +0.000 A 
ATOM     11  C   UNL     1       1.986   8.435  18.014  0.00  0.00    +0.000 A 
ENDBRANCH   3   6
BRANCH   1  12
ATOM     12  C   UNL     1       3.668   2.995  20.025  0.00  0.00    +0.000 C 
ATOM     13  O   UNL     1       4.666   2.293  19.951  0.00  0.00    +0.000 OA
BRANCH  12  14
ATOM     14  O   UNL     1       2.427   2.560  20.383  0.00  0.00    +0.000 OA
BRANCH  14  16
ATOM     15  C   UNL     1       0.813   2.406  18.632  0.00  0.00    +0.000 C 
ATOM     16  C   UNL     1       1.800   1.635  19.490  0.00  0.00    +0.000 C 
ENDBRANCH  14  16
ENDBRANCH  12  14
ENDBRANCH   1  12
BRANCH   5  17
ATOM     17  C   UNL     1       5.967   4.797  18.864  0.00  0.00    +0.000 C 
BRANCH  17  18
ATOM     18  C   UNL     1       6.245   4.781  17.384  0.00  0.00    +0.000 A 
ATOM     19  C   UNL     1       5.550   3.929  16.519  0.00  0.00    +0.000 A 
ATOM     20  C   UNL     1       5.854   3.931  15.159  0.00  0.00    +0.000 A 
ATOM     21  C   UNL     1       6.841   4.793  14.715  0.00  0.00    +0.000 A 
ATOM     22 CL   UNL     1       7.311   4.818  13.066  0.00  0.00    +0.000 Cl
ATOM     23  N   UNL     1       7.511   5.653  15.505  0.00  0.00    +0.000 NA
ATOM     24  C   UNL     1       7.197   5.630  16.819  0.00  0.00    +0.000 A 
ENDBRANCH  17  18
ENDBRANCH   5  17
TORSDOF 6
ENDMDL
MODEL 8
REMARK VINA RESULT:      -7.6      3.385      4.839
REMARK  Name = 
REMARK  7 active torsions:
REMARK  status: ('A' for Active; 'I' for Inactive)
REMARK    1  A    between atoms: C_1  and  C_2
REMARK    2  A    between atoms: C_2  and  O_3
REMARK    3  A    between atoms: O_3  and  C_4
REMARK    4  A    between atoms: C_4  and  C_6
REMARK    5  A    between atoms: C_8  and  C_9
REMARK    6  A    between atoms: N_16  and  C_17
REMARK    7  A    between atoms: C_17  and  C_18
REMARK                            x       y       z     vdW  Elec       q    Type
REMARK                         _______ _______ _______ _____ _____    ______ ____
ROOT
ATOM      1  C   UNL     1       6.137   4.799  17.542  0.00  0.00    +0.000 A 
ATOM      2  C   UNL     1       5.368   4.163  18.499  0.00  0.00    +0.000 A 
ATOM      3  C   UNL     1       4.016   4.332  18.122  0.00  0.00    +0.000 A 
ATOM      4  N   UNL     1       3.949   4.972  16.946  0.00  0.00    +0.000 NA
ATOM      5  N   UNL     1       5.231   5.255  16.621  0.00  0.00    +0.000 N 
ENDROOT
BRANCH   3   6
ATOM      6  C   UNL     1       2.821   3.922  18.864  0.00  0.00    +0.000 A 
ATOM      7  C   UNL     1       1.936   2.970  18.337  0.00  0.00    +0.000 A 
ATOM      8  C   UNL     1       0.828   2.544  19.073  0.00  0.00    +0.000 A 
ATOM      9  C   UNL     1       0.591   3.062  20.342  0.00  0.00    +0.000 A 
ATOM     10  C   UNL     1       1.456   4.017  20.873  0.00  0.00    +0.000 A 
ATOM     11  C   UNL     1       2.560   4.445  20.139  0.00  0.00    +0.000 A 
ENDBRANCH   3   6
BRANCH   1  12
ATOM     12  C   UNL     1       7.565   4.931  17.483  0.00  0.00    +0.000 C 
ATOM     13  O   UNL     1       8.381   4.055  17.731  0.00  0.00    +0.000 OA
BRANCH  12  14
ATOM     14  O   UNL     1       7.869   6.227  17.192  0.00  0.00    +0.000 OA
BRANCH  14  16
ATOM     15  C   UNL     1       7.903   8.542  17.771  0.00  0.00    +0.000 C 
ATOM     16  C   UNL     1       7.950   7.122  18.305  0.00  0.00    +0.000 C 
ENDBRANCH  14  16
ENDBRANCH  12  14
ENDBRANCH   1  12
BRANCH   5  17
ATOM     17  C   UNL     1       5.479   5.972  15.374  0.00  0.00    +0.000 C 
BRANCH  17  18
ATOM     18  C   UNL     1       5.896   5.043  14.265  0.00  0.00    +0.000 A 
ATOM     19  C   UNL     1       5.016   4.091  13.739  0.00  0.00    +0.000 A 
ATOM     20  C   UNL     1       5.450   3.235  12.728  0.00  0.00    +0.000 A 
ATOM     21  C   UNL     1       6.751   3.370  12.277  0.00  0.00    +0.000 A 
ATOM     22 CL   UNL     1       7.378   2.322  11.074  0.00  0.00    +0.000 Cl
ATOM     23  N   UNL     1       7.621   4.292  12.730  0.00  0.00    +0.000 NA
ATOM     24  C   UNL     1       7.174   5.108  13.710  0.00  0.00    +0.000 A 
ENDBRANCH  17  18
ENDBRANCH   5  17
TORSDOF 6
ENDMDL
MODEL 9
REMARK VINA RESULT:      -7.5      1.234      2.073
REMARK  Name = 
REMARK  7 active torsions:
REMARK  status: ('A' for Active; 'I' for Inactive)
REMARK    1  A    between atoms: C_1  and  C_2
REMARK    2  A    between atoms: C_2  and  O_3
REMARK    3  A    between atoms: O_3  and  C_4
REMARK    4  A    between atoms: C_4  and  C_6
REMARK    5  A    between atoms: C_8  and  C_9
REMARK    6  A    between atoms: N_16  and  C_17
REMARK    7  A    between atoms: C_17  and  C_18
REMARK                            x       y       z     vdW  Elec       q    Type
REMARK                         _______ _______ _______ _____ _____    ______ ____
ROOT
ATOM      1  C   UNL     1       3.021   4.385  19.944  0.00  0.00    +0.000 A 
ATOM      2  C   UNL     1       2.031   5.349  19.902  0.00  0.00    +0.000 A 
ATOM      3  C   UNL     1       2.630   6.536  19.425  0.00  0.00    +0.000 A 
ATOM      4  N   UNL     1       3.913   6.303  19.110  0.00  0.00    +0.000 NA
ATOM      5  N   UNL     1       4.131   5.011  19.440  0.00  0.00    +0.000 N 
ENDROOT
BRANCH   3   6
ATOM      6  C   UNL     1       2.016   7.860  19.294  0.00  0.00    +0.000 A 
ATOM      7  C   UNL     1       1.358   8.461  20.378  0.00  0.00    +0.000 A 
ATOM      8  C   UNL     1       0.823   9.746  20.260  0.00  0.00    +0.000 A 
ATOM      9  C   UNL     1       0.938  10.445  19.063  0.00  0.00    +0.000 A 
ATOM     10  C   UNL     1       1.579   9.855  17.975  0.00  0.00    +0.000 A 
ATOM     11  C   UNL     1       2.111   8.572  18.089  0.00  0.00    +0.000 A 
ENDBRANCH   3   6
BRANCH   1  12
ATOM     12  C   UNL     1       2.925   3.019  20.376  0.00  0.00    +0.000 C 
ATOM     13  O   UNL     1       2.860   2.633  21.535  0.00  0.00    +0.000 OA
BRANCH  12  14
ATOM     14  O   UNL     1       3.011   2.211  19.282  0.00  0.00    +0.000 OA
BRANCH  14  16
ATOM     15  C   UNL     1       0.660   2.122  18.888  0.00  0.00    +0.000 C 
ATOM     16  C   UNL     1       2.017   2.408  18.272  0.00  0.00    +0.000 C 
ENDBRANCH  14  16
ENDBRANCH  12  14
ENDBRANCH   1  12
BRANCH   5  17
ATOM     17  C   UNL     1       5.466   4.462  19.217  0.00  0.00    +0.000 C 
BRANCH  17  18
ATOM     18  C   UNL     1       5.809   4.397  17.753  0.00  0.00    +0.000 A 
ATOM     19  C   UNL     1       7.088   4.718  17.286  0.00  0.00    +0.000 A 
ATOM     20  C   UNL     1       7.356   4.665  15.920  0.00  0.00    +0.000 A 
ATOM     21  C   UNL     1       6.331   4.287  15.070  0.00  0.00    +0.000 A 
ATOM     22 CL   UNL     1       6.564   4.249  13.372  0.00  0.00    +0.000 Cl
ATOM     23  N   UNL     1       5.096   3.938  15.478  0.00  0.00    +0.000 NA
ATOM     24  C   UNL     1       4.863   3.998  16.808  0.00  0.00    +0.000 A 
ENDBRANCH  17  18
ENDBRANCH   5  17
TORSDOF 6
ENDMDL
