MODEL 1
REMARK VINA RESULT:      -7.5      0.000      0.000
REMARK  Name = 
REMARK  7 active torsions:
REMARK  status: ('A' for Active; 'I' for Inactive)
REMARK    1  A    between atoms: C_2  and  C_3
REMARK    2  A    between atoms: C_3  and  S_4
REMARK    3  A    between atoms: S_4  and  C_5
REMARK    4  A    between atoms: N_9  and  C_10
REMARK    5  A    between atoms: C_10  and  C_11
REMARK    6  A    between atoms: C_11  and  C_12
REMARK    7  A    between atoms: N_18  and  C_19
REMARK                            x       y       z     vdW  Elec       q    Type
REMARK                         _______ _______ _______ _____ _____    ______ ____
ROOT
ATOM      1  C   UNL     1       6.593   5.795  16.431  0.00  0.00    +0.000 A 
ATOM      2  N   UNL     1       7.561   5.772  15.545  0.00  0.00    +0.000 NA
ATOM      3  N   UNL     1       7.360   4.677  14.740  0.00  0.00    +0.000 NA
ATOM      4  C   UNL     1       6.265   4.077  15.150  0.00  0.00    +0.000 A 
ATOM      5  N   UNL     1       5.750   4.736  16.228  0.00  0.00    +0.000 N 
ENDROOT
BRANCH   1   6
ATOM      6  S   UNL     1       6.293   7.067  17.558  0.00  0.00    +0.000 S 
BRANCH   6   7
ATOM      7  C   UNL     1       7.999   7.448  18.051  0.00  0.00    +0.000 C 
BRANCH   7   9
ATOM      8  O   UNL     1       7.623   9.750  17.433  0.00  0.00    +0.000 OA
ATOM      9  C   UNL     1       8.198   8.952  18.167  0.00  0.00    +0.000 C 
ATOM     10  N   UNL     1       9.100   9.334  19.137  0.00  0.00    +0.000 N 
ATOM     11  H   UNL     1       9.617   8.610  19.633  0.00  0.00    +0.000 HD
BRANCH  10  12
ATOM     12  C   UNL     1       9.413  10.719  19.417  0.00  0.00    +0.000 C 
ATOM     13  C   UNL     1       9.387  11.018  20.912  0.00  0.00    +0.000 C 
ATOM     14  C   UNL     1      10.122  12.346  21.032  0.00  0.00    +0.000 C 
ATOM     15  C   UNL     1      11.122  12.373  19.878  0.00  0.00    +0.000 C 
ATOM     16  C   UNL     1      10.832  11.136  19.030  0.00  0.00    +0.000 C 
ENDBRANCH  10  12
ENDBRANCH   7   9
ENDBRANCH   6   7
ENDBRANCH   1   6
BRANCH   5  17
ATOM     17  C   UNL     1       4.501   4.470  16.910  0.00  0.00    +0.000 C 
BRANCH  17  18
ATOM     18  C   UNL     1       4.629   3.752  18.256  0.00  0.00    +0.000 C 
BRANCH  18  19
ATOM     19  C   UNL     1       3.276   3.600  18.907  0.00  0.00    +0.000 A 
ATOM     20  C   UNL     1       2.299   2.782  18.322  0.00  0.00    +0.000 A 
ATOM     21  C   UNL     1       1.029   2.688  18.888  0.00  0.00    +0.000 A 
ATOM     22  C   UNL     1       0.721   3.412  20.042  0.00  0.00    +0.000 A 
ATOM     23  C   UNL     1       1.689   4.225  20.630  0.00  0.00    +0.000 A 
ATOM     24  C   UNL     1       2.960   4.321  20.066  0.00  0.00    +0.000 A 
ENDBRANCH  18  19
ENDBRANCH  17  18
ENDBRANCH   5  17
TORSDOF 7
ENDMDL
MODEL 2
REMARK VINA RESULT:      -7.5      1.335      1.580
REMARK  Name = 
REMARK  7 active torsions:
REMARK  status: ('A' for Active; 'I' for Inactive)
REMARK    1  A    between atoms: C_2  and  C_3
REMARK    2  A    between atoms: C_3  and  S_4
REMARK    3  A    between atoms: S_4  and  C_5
REMARK    4  A    between atoms: N_9  and  C_10
REMARK    5  A    between atoms: C_10  and  C_11
REMARK    6  A    between atoms: C_11  and  C_12
REMARK    7  A    between atoms: N_18  and  C_19
REMARK                            x       y       z     vdW  Elec       q    Type
REMARK                         _______ _______ _______ _____ _____    ______ ____
ROOT
ATOM      1  C   UNL     1       7.096   5.599  16.680  0.00  0.00    +0.000 A 
ATOM      2  N   UNL     1       7.602   5.809  15.487  0.00  0.00    +0.000 NA
ATOM      3  N   UNL     1       6.958   4.967  14.611  0.00  0.00    +0.000 NA
ATOM      4  C   UNL     1       6.068   4.285  15.296  0.00  0.00    +0.000 A 
ATOM      5  N   UNL     1       6.127   4.635  16.613  0.00  0.00    +0.000 N 
ENDROOT
BRANCH   1   6
ATOM      6  S   UNL     1       7.442   6.526  18.094  0.00  0.00    +0.000 S 
BRANCH   6   7
ATOM      7  C   UNL     1       7.454   8.193  17.371  0.00  0.00    +0.000 C 
BRANCH   7   9
ATOM      8  O   UNL     1       8.941   8.746  19.190  0.00  0.00    +0.000 OA
ATOM      9  C   UNL     1       8.353   9.118  18.178  0.00  0.00    +0.000 C 
ATOM     10  N   UNL     1       8.420  10.408  17.698  0.00  0.00    +0.000 N 
ATOM     11  H   UNL     1       7.819  10.669  16.918  0.00  0.00    +0.000 HD
BRANCH  10  12
ATOM     12  C   UNL     1       9.235  11.434  18.314  0.00  0.00    +0.000 C 
ATOM     13  C   UNL     1      10.641  11.474  17.723  0.00  0.00    +0.000 C 
ATOM     14  C   UNL     1      11.186  12.823  18.170  0.00  0.00    +0.000 C 
ATOM     15  C   UNL     1       9.971  13.741  18.294  0.00  0.00    +0.000 C 
ATOM     16  C   UNL     1       8.744  12.861  18.072  0.00  0.00    +0.000 C 
ENDBRANCH  10  12
ENDBRANCH   7   9
ENDBRANCH   6   7
ENDBRANCH   1   6
BRANCH   5  17
ATOM     17  C   UNL     1       5.250   4.202  17.681  0.00  0.00    +0.000 C 
BRANCH  17  18
ATOM     18  C   UNL     1       3.796   3.948  17.274  0.00  0.00    +0.000 C 
BRANCH  18  19
ATOM     19  C   UNL     1       2.904   3.908  18.490  0.00  0.00    +0.000 A 
ATOM     20  C   UNL     1       1.784   3.065  18.516  0.00  0.00    +0.000 A 
ATOM     21  C   UNL     1       0.925   3.071  19.614  0.00  0.00    +0.000 A 
ATOM     22  C   UNL     1       1.174   3.920  20.694  0.00  0.00    +0.000 A 
ATOM     23  C   UNL     1       2.288   4.759  20.675  0.00  0.00    +0.000 A 
ATOM     24  C   UNL     1       3.149   4.755  19.578  0.00  0.00    +0.000 A 
ENDBRANCH  18  19
ENDBRANCH  17  18
ENDBRANCH   5  17
TORSDOF 7
ENDMDL
MODEL 3
REMARK VINA RESULT:      -7.5      5.090      6.885
REMARK  Name = 
REMARK  7 active torsions:
REMARK  status: ('A' for Active; 'I' for Inactive)
REMARK    1  A    between atoms: C_2  and  C_3
REMARK    2  A    between atoms: C_3  and  S_4
REMARK    3  A    between atoms: S_4  and  C_5
REMARK    4  A    between atoms: N_9  and  C_10
REMARK    5  A    between atoms: C_10  and  C_11
REMARK    6  A    between atoms: C_11  and  C_12
REMARK    7  A    between atoms: N_18  and  C_19
REMARK                            x       y       z     vdW  Elec       q    Type
REMARK                         _______ _______ _______ _____ _____    ______ ____
ROOT
ATOM      1  C   UNL     1       2.113   3.430  19.333  0.00  0.00    +0.000 A 
ATOM      2  N   UNL     1       1.816   2.764  18.242  0.00  0.00    +0.000 NA
ATOM      3  N   UNL     1       1.371   3.671  17.311  0.00  0.00    +0.000 NA
ATOM      4  C   UNL     1       1.428   4.864  17.859  0.00  0.00    +0.000 A 
ATOM      5  N   UNL     1       1.874   4.765  19.144  0.00  0.00    +0.000 N 
ENDROOT
BRANCH   1   6
ATOM      6  S   UNL     1       2.879   2.774  20.734  0.00  0.00    +0.000 S 
BRANCH   6   7
ATOM      7  C   UNL     1       4.475   2.295  20.013  0.00  0.00    +0.000 C 
BRANCH   7   9
ATOM      8  O   UNL     1       5.553   4.450  19.874  0.00  0.00    +0.000 OA
ATOM      9  C   UNL     1       5.105   3.471  19.282  0.00  0.00    +0.000 C 
ATOM     10  N   UNL     1       5.098   3.359  17.909  0.00  0.00    +0.000 N 
ATOM     11  H   UNL     1       4.613   2.569  17.488  0.00  0.00    +0.000 HD
BRANCH  10  12
ATOM     12  C   UNL     1       5.667   4.364  17.035  0.00  0.00    +0.000 C 
ATOM     13  C   UNL     1       5.960   3.809  15.645  0.00  0.00    +0.000 C 
ATOM     14  C   UNL     1       6.144   5.052  14.787  0.00  0.00    +0.000 C 
ATOM     15  C   UNL     1       5.272   6.131  15.427  0.00  0.00    +0.000 C 
ATOM     16  C   UNL     1       4.733   5.532  16.724  0.00  0.00    +0.000 C 
ENDBRANCH  10  12
ENDBRANCH   7   9
ENDBRANCH   6   7
ENDBRANCH   1   6
BRANCH   5  17
ATOM     17  C   UNL     1       2.183   5.845  20.057  0.00  0.00    +0.000 C 
BRANCH  17  18
ATOM     18  C   UNL     1       2.543   7.179  19.397  0.00  0.00    +0.000 C 
BRANCH  18  19
ATOM     19  C   UNL     1       1.620   8.272  19.874  0.00  0.00    +0.000 A 
ATOM     20  C   UNL     1       1.084   8.230  21.169  0.00  0.00    +0.000 A 
ATOM     21  C   UNL     1       0.185   9.206  21.592  0.00  0.00    +0.000 A 
ATOM     22  C   UNL     1      -0.192  10.234  20.724  0.00  0.00    +0.000 A 
ATOM     23  C   UNL     1       0.339  10.284  19.436  0.00  0.00    +0.000 A 
ATOM     24  C   UNL     1       1.239   9.308  19.011  0.00  0.00    +0.000 A 
ENDBRANCH  18  19
ENDBRANCH  17  18
ENDBRANCH   5  17
TORSDOF 7
ENDMDL
MODEL 4
REMARK VINA RESULT:      -7.4      4.509      6.950
REMARK  Name = 
REMARK  7 active torsions:
REMARK  status: ('A' for Active; 'I' for Inactive)
REMARK    1  A    between atoms: C_2  and  C_3
REMARK    2  A    between atoms: C_3  and  S_4
REMARK    3  A    between atoms: S_4  and  C_5
REMARK    4  A    between atoms: N_9  and  C_10
REMARK    5  A    between atoms: C_10  and  C_11
REMARK    6  A    between atoms: C_11  and  C_12
REMARK    7  A    between atoms: N_18  and  C_19
REMARK                            x       y       z     vdW  Elec       q    Type
REMARK                         _______ _______ _______ _____ _____    ______ ____
ROOT
ATOM      1  C   UNL     1       3.657   4.024  18.358  0.00  0.00    +0.000 A 
ATOM      2  N   UNL     1       3.083   3.066  17.669  0.00  0.00    +0.000 NA
ATOM      3  N   UNL     1       1.838   3.514  17.295  0.00  0.00    +0.000 NA
ATOM      4  C   UNL     1       1.702   4.738  17.753  0.00  0.00    +0.000 A 
ATOM      5  N   UNL     1       2.818   5.102  18.448  0.00  0.00    +0.000 N 
ENDROOT
BRANCH   1   6
ATOM      6  S   UNL     1       5.295   4.026  18.903  0.00  0.00    +0.000 S 
BRANCH   6   7
ATOM      7  C   UNL     1       5.967   5.342  17.847  0.00  0.00    +0.000 C 
BRANCH   7   9
ATOM      8  O   UNL     1       7.930   4.495  16.726  0.00  0.00    +0.000 OA
ATOM      9  C   UNL     1       6.729   4.747  16.672  0.00  0.00    +0.000 C 
ATOM     10  N   UNL     1       5.968   4.550  15.540  0.00  0.00    +0.000 N 
ATOM     11  H   UNL     1       5.005   4.883  15.537  0.00  0.00    +0.000 HD
BRANCH  10  12
ATOM     12  C   UNL     1       6.503   3.977  14.323  0.00  0.00    +0.000 C 
ATOM     13  C   UNL     1       5.398   3.500  13.386  0.00  0.00    +0.000 C 
ATOM     14  C   UNL     1       6.103   3.330  12.048  0.00  0.00    +0.000 C 
ATOM     15  C   UNL     1       7.244   4.345  12.048  0.00  0.00    +0.000 C 
ATOM     16  C   UNL     1       7.267   4.964  13.443  0.00  0.00    +0.000 C 
ENDBRANCH  10  12
ENDBRANCH   7   9
ENDBRANCH   6   7
ENDBRANCH   1   6
BRANCH   5  17
ATOM     17  C   UNL     1       3.119   6.398  19.018  0.00  0.00    +0.000 C 
BRANCH  17  18
ATOM     18  C   UNL     1       2.803   7.598  18.121  0.00  0.00    +0.000 C 
BRANCH  18  19
ATOM     19  C   UNL     1       1.792   8.501  18.782  0.00  0.00    +0.000 A 
ATOM     20  C   UNL     1       1.496   8.353  20.144  0.00  0.00    +0.000 A 
ATOM     21  C   UNL     1       0.519   9.146  20.743  0.00  0.00    +0.000 A 
ATOM     22  C   UNL     1      -0.174  10.094  19.986  0.00  0.00    +0.000 A 
ATOM     23  C   UNL     1       0.118  10.249  18.632  0.00  0.00    +0.000 A 
ATOM     24  C   UNL     1       1.094   9.456  18.031  0.00  0.00    +0.000 A 
ENDBRANCH  18  19
ENDBRANCH  17  18
ENDBRANCH   5  17
TORSDOF 7
ENDMDL
MODEL 5
REMARK VINA RESULT:      -7.4      3.915      6.595
REMARK  Name = 
REMARK  7 active torsions:
REMARK  status: ('A' for Active; 'I' for Inactive)
REMARK    1  A    between atoms: C_2  and  C_3
REMARK    2  A    between atoms: C_3  and  S_4
REMARK    3  A    between atoms: S_4  and  C_5
REMARK    4  A    between atoms: N_9  and  C_10
REMARK    5  A    between atoms: C_10  and  C_11
REMARK    6  A    between atoms: C_11  and  C_12
REMARK    7  A    between atoms: N_18  and  C_19
REMARK                            x       y       z     vdW  Elec       q    Type
REMARK                         _______ _______ _______ _____ _____    ______ ____
ROOT
ATOM      1  C   UNL     1       4.266   5.077  17.595  0.00  0.00    +0.000 A 
ATOM      2  N   UNL     1       4.155   4.057  16.776  0.00  0.00    +0.000 NA
ATOM      3  N   UNL     1       3.519   3.047  17.457  0.00  0.00    +0.000 NA
ATOM      4  C   UNL     1       3.246   3.491  18.664  0.00  0.00    +0.000 A 
ATOM      5  N   UNL     1       3.714   4.765  18.807  0.00  0.00    +0.000 N 
ENDROOT
BRANCH   1   6
ATOM      6  S   UNL     1       4.835   6.650  17.168  0.00  0.00    +0.000 S 
BRANCH   6   7
ATOM      7  C   UNL     1       6.623   6.390  17.352  0.00  0.00    +0.000 C 
BRANCH   7   9
ATOM      8  O   UNL     1       7.904   4.443  16.725  0.00  0.00    +0.000 OA
ATOM      9  C   UNL     1       7.107   5.316  16.390  0.00  0.00    +0.000 C 
ATOM     10  N   UNL     1       6.606   5.427  15.111  0.00  0.00    +0.000 N 
ATOM     11  H   UNL     1       6.036   6.239  14.881  0.00  0.00    +0.000 HD
BRANCH  10  12
ATOM     12  C   UNL     1       6.931   4.492  14.054  0.00  0.00    +0.000 C 
ATOM     13  C   UNL     1       5.684   3.837  13.470  0.00  0.00    +0.000 C 
ATOM     14  C   UNL     1       6.166   3.241  12.156  0.00  0.00    +0.000 C 
ATOM     15  C   UNL     1       7.313   4.136  11.690  0.00  0.00    +0.000 C 
ATOM     16  C   UNL     1       7.567   5.131  12.820  0.00  0.00    +0.000 C 
ENDBRANCH  10  12
ENDBRANCH   7   9
ENDBRANCH   6   7
ENDBRANCH   1   6
BRANCH   5  17
ATOM     17  C   UNL     1       3.526   5.651  19.936  0.00  0.00    +0.000 C 
BRANCH  17  18
ATOM     18  C   UNL     1       2.069   5.941  20.308  0.00  0.00    +0.000 C 
BRANCH  18  19
ATOM     19  C   UNL     1       1.738   7.392  20.064  0.00  0.00    +0.000 A 
ATOM     20  C   UNL     1       1.168   8.167  21.084  0.00  0.00    +0.000 A 
ATOM     21  C   UNL     1       0.806   9.491  20.842  0.00  0.00    +0.000 A 
ATOM     22  C   UNL     1       1.007  10.053  19.579  0.00  0.00    +0.000 A 
ATOM     23  C   UNL     1       1.577   9.288  18.562  0.00  0.00    +0.000 A 
ATOM     24  C   UNL     1       1.940   7.964  18.802  0.00  0.00    +0.000 A 
ENDBRANCH  18  19
ENDBRANCH  17  18
ENDBRANCH   5  17
TORSDOF 7
ENDMDL
MODEL 6
REMARK VINA RESULT:      -7.4      3.694      7.035
REMARK  Name = 
REMARK  7 active torsions:
REMARK  status: ('A' for Active; 'I' for Inactive)
REMARK    1  A    between atoms: C_2  and  C_3
REMARK    2  A    between atoms: C_3  and  S_4
REMARK    3  A    between atoms: S_4  and  C_5
REMARK    4  A    between atoms: N_9  and  C_10
REMARK    5  A    between atoms: C_10  and  C_11
REMARK    6  A    between atoms: C_11  and  C_12
REMARK    7  A    between atoms: N_18  and  C_19
REMARK                            x       y       z     vdW  Elec       q    Type
REMARK                         _______ _______ _______ _____ _____    ______ ____
ROOT
ATOM      1  C   UNL     1       6.182   5.762  16.031  0.00  0.00    +0.000 A 
ATOM      2  N   UNL     1       7.479   5.916  16.167  0.00  0.00    +0.000 NA
ATOM      3  N   UNL     1       7.684   7.036  16.937  0.00  0.00    +0.000 NA
ATOM      4  C   UNL     1       6.505   7.518  17.260  0.00  0.00    +0.000 A 
ATOM      5  N   UNL     1       5.522   6.758  16.698  0.00  0.00    +0.000 N 
ENDROOT
BRANCH   1   6
ATOM      6  S   UNL     1       5.403   4.406  15.300  0.00  0.00    +0.000 S 
BRANCH   6   7
ATOM      7  C   UNL     1       5.405   3.257  16.707  0.00  0.00    +0.000 C 
BRANCH   7   9
ATOM      8  O   UNL     1       3.000   3.466  16.717  0.00  0.00    +0.000 OA
ATOM      9  C   UNL     1       4.023   3.183  17.337  0.00  0.00    +0.000 C 
ATOM     10  N   UNL     1       4.020   2.809  18.664  0.00  0.00    +0.000 N 
ATOM     11  H   UNL     1       4.914   2.697  19.139  0.00  0.00    +0.000 HD
BRANCH  10  12
ATOM     12  C   UNL     1       2.805   2.663  19.437  0.00  0.00    +0.000 C 
ATOM     13  C   UNL     1       3.085   2.633  20.936  0.00  0.00    +0.000 C 
ATOM     14  C   UNL     1       1.724   2.892  21.567  0.00  0.00    +0.000 C 
ATOM     15  C   UNL     1       0.958   3.752  20.563  0.00  0.00    +0.000 C 
ATOM     16  C   UNL     1       1.833   3.835  19.315  0.00  0.00    +0.000 C 
ENDBRANCH  10  12
ENDBRANCH   7   9
ENDBRANCH   6   7
ENDBRANCH   1   6
BRANCH   5  17
ATOM     17  C   UNL     1       4.092   6.880  16.893  0.00  0.00    +0.000 C 
BRANCH  17  18
ATOM     18  C   UNL     1       3.601   6.630  18.321  0.00  0.00    +0.000 C 
BRANCH  18  19
ATOM     19  C   UNL     1       2.612   7.691  18.735  0.00  0.00    +0.000 A 
ATOM     20  C   UNL     1       2.040   7.662  20.015  0.00  0.00    +0.000 A 
ATOM     21  C   UNL     1       1.082   8.606  20.379  0.00  0.00    +0.000 A 
ATOM     22  C   UNL     1       0.683   9.586  19.468  0.00  0.00    +0.000 A 
ATOM     23  C   UNL     1       1.251   9.623  18.195  0.00  0.00    +0.000 A 
ATOM     24  C   UNL     1       2.210   8.680  17.829  0.00  0.00    +0.000 A 
ENDBRANCH  18  19
ENDBRANCH  17  18
ENDBRANCH   5  17
TORSDOF 7
ENDMDL
MODEL 7
REMARK VINA RESULT:      -7.3      4.634      5.891
REMARK  Name = 
REMARK  7 active torsions:
REMARK  status: ('A' for Active; 'I' for Inactive)
REMARK    1  A    between atoms: C_2  and  C_3
REMARK    2  A    between atoms: C_3  and  S_4
REMARK    3  A    between atoms: S_4  and  C_5
REMARK    4  A    between atoms: N_9  and  C_10
REMARK    5  A    between atoms: C_10  and  C_11
REMARK    6  A    between atoms: C_11  and  C_12
REMARK    7  A    between atoms: N_18  and  C_19
REMARK                            x       y       z     vdW  Elec       q    Type
REMARK                         _______ _______ _______ _____ _____    ______ ____
ROOT
ATOM      1  C   UNL     1       4.354   6.266  17.559  0.00  0.00    +0.000 A 
ATOM      2  N   UNL     1       5.370   7.046  17.273  0.00  0.00    +0.000 NA
ATOM      3  N   UNL     1       6.175   6.368  16.389  0.00  0.00    +0.000 NA
ATOM      4  C   UNL     1       5.613   5.204  16.151  0.00  0.00    +0.000 A 
ATOM      5  N   UNL     1       4.467   5.083  16.880  0.00  0.00    +0.000 N 
ENDROOT
BRANCH   1   6
ATOM      6  S   UNL     1       2.971   6.720  18.487  0.00  0.00    +0.000 S 
BRANCH   6   7
ATOM      7  C   UNL     1       2.641   8.354  17.766  0.00  0.00    +0.000 C 
BRANCH   7   9
ATOM      8  O   UNL     1       0.601   9.643  17.823  0.00  0.00    +0.000 OA
ATOM      9  C   UNL     1       1.448   9.008  18.447  0.00  0.00    +0.000 C 
ATOM     10  N   UNL     1       1.419   8.856  19.816  0.00  0.00    +0.000 N 
ATOM     11  H   UNL     1       2.213   8.410  20.273  0.00  0.00    +0.000 HD
BRANCH  10  12
ATOM     12  C   UNL     1       0.357   9.388  20.644  0.00  0.00    +0.000 C 
ATOM     13  C   UNL     1       0.333   8.739  22.024  0.00  0.00    +0.000 C 
ATOM     14  C   UNL     1      -0.530   9.679  22.854  0.00  0.00    +0.000 C 
ATOM     15  C   UNL     1      -0.337  11.066  22.245  0.00  0.00    +0.000 C 
ATOM     16  C   UNL     1       0.505  10.869  20.987  0.00  0.00    +0.000 C 
ENDBRANCH  10  12
ENDBRANCH   7   9
ENDBRANCH   6   7
ENDBRANCH   1   6
BRANCH   5  17
ATOM     17  C   UNL     1       3.497   4.010  16.828  0.00  0.00    +0.000 C 
BRANCH  17  18
ATOM     18  C   UNL     1       3.775   2.829  17.762  0.00  0.00    +0.000 C 
BRANCH  18  19
ATOM     19  C   UNL     1       2.900   2.907  18.989  0.00  0.00    +0.000 A 
ATOM     20  C   UNL     1       3.452   2.711  20.263  0.00  0.00    +0.000 A 
ATOM     21  C   UNL     1       2.636   2.723  21.393  0.00  0.00    +0.000 A 
ATOM     22  C   UNL     1       1.261   2.927  21.261  0.00  0.00    +0.000 A 
ATOM     23  C   UNL     1       0.706   3.126  19.997  0.00  0.00    +0.000 A 
ATOM     24  C   UNL     1       1.520   3.114  18.866  0.00  0.00    +0.000 A 
ENDBRANCH  18  19
ENDBRANCH  17  18
ENDBRANCH   5  17
TORSDOF 7
ENDMDL
MODEL 8
REMARK VINA RESULT:      -7.3      4.399      7.305
REMARK  Name = 
REMARK  7 active torsions:
REMARK  status: ('A' for Active; 'I' for Inactive)
REMARK    1  A    between atoms: C_2  and  C_3
REMARK    2  A    between atoms: C_3  and  S_4
REMARK    3  A    between atoms: S_4  and  C_5
REMARK    4  A    between atoms: N_9  and  C_10
REMARK    5  A    between atoms: C_10  and  C_11
REMARK    6  A    between atoms: C_11  and  C_12
REMARK    7  A    between atoms: N_18  and  C_19
REMARK                            x       y       z     vdW  Elec       q    Type
REMARK                         _______ _______ _______ _____ _____    ______ ____
ROOT
ATOM      1  C   UNL     1       5.564   5.023  18.919  0.00  0.00    +0.000 A 
ATOM      2  N   UNL     1       6.473   5.086  19.864  0.00  0.00    +0.000 NA
ATOM      3  N   UNL     1       7.660   5.447  19.272  0.00  0.00    +0.000 NA
ATOM      4  C   UNL     1       7.431   5.611  17.988  0.00  0.00    +0.000 A 
ATOM      5  N   UNL     1       6.124   5.337  17.711  0.00  0.00    +0.000 N 
ENDROOT
BRANCH   1   6
ATOM      6  S   UNL     1       3.873   4.781  19.168  0.00  0.00    +0.000 S 
BRANCH   6   7
ATOM      7  C   UNL     1       3.302   6.503  19.077  0.00  0.00    +0.000 C 
BRANCH   7   9
ATOM      8  O   UNL     1       1.620   5.823  20.670  0.00  0.00    +0.000 OA
ATOM      9  C   UNL     1       2.162   6.740  20.057  0.00  0.00    +0.000 C 
ATOM     10  N   UNL     1       1.770   8.057  20.168  0.00  0.00    +0.000 N 
ATOM     11  H   UNL     1       2.194   8.744  19.548  0.00  0.00    +0.000 HD
BRANCH  10  12
ATOM     12  C   UNL     1       0.717   8.490  21.061  0.00  0.00    +0.000 C 
ATOM     13  C   UNL     1       1.268   8.977  22.397  0.00  0.00    +0.000 C 
ATOM     14  C   UNL     1       0.110   9.752  23.010  0.00  0.00    +0.000 C 
ATOM     15  C   UNL     1      -0.688  10.307  21.831  0.00  0.00    +0.000 C 
ATOM     16  C   UNL     1      -0.064   9.709  20.572  0.00  0.00    +0.000 C 
ENDBRANCH  10  12
ENDBRANCH   7   9
ENDBRANCH   6   7
ENDBRANCH   1   6
BRANCH   5  17
ATOM     17  C   UNL     1       5.438   5.500  16.446  0.00  0.00    +0.000 C 
BRANCH  17  18
ATOM     18  C   UNL     1       5.184   4.207  15.667  0.00  0.00    +0.000 C 
BRANCH  18  19
ATOM     19  C   UNL     1       5.952   4.210  14.369  0.00  0.00    +0.000 A 
ATOM     20  C   UNL     1       7.078   5.032  14.217  0.00  0.00    +0.000 A 
ATOM     21  C   UNL     1       7.754   5.082  12.999  0.00  0.00    +0.000 A 
ATOM     22  C   UNL     1       7.311   4.313  11.921  0.00  0.00    +0.000 A 
ATOM     23  C   UNL     1       6.194   3.491  12.066  0.00  0.00    +0.000 A 
ATOM     24  C   UNL     1       5.517   3.440  13.283  0.00  0.00    +0.000 A 
ENDBRANCH  18  19
ENDBRANCH  17  18
ENDBRANCH   5  17
TORSDOF 7
ENDMDL
MODEL 9
REMARK VINA RESULT:      -7.3      4.399      6.063
REMARK  Name = 
REMARK  7 active torsions:
REMARK  status: ('A' for Active; 'I' for Inactive)
REMARK    1  A    between atoms: C_2  and  C_3
REMARK    2  A    between atoms: C_3  and  S_4
REMARK    3  A    between atoms: S_4  and  C_5
REMARK    4  A    between atoms: N_9  and  C_10
REMARK    5  A    between atoms: C_10  and  C_11
REMARK    6  A    between atoms: C_11  and  C_12
REMARK    7  A    between atoms: N_18  and  C_19
REMARK                            x       y       z     vdW  Elec       q    Type
REMARK                         _______ _______ _______ _____ _____    ______ ____
ROOT
ATOM      1  C   UNL     1       4.187   6.669  17.488  0.00  0.00    +0.000 A 
ATOM      2  N   UNL     1       4.537   7.016  16.271  0.00  0.00    +0.000 NA
ATOM      3  N   UNL     1       5.778   6.477  16.028  0.00  0.00    +0.000 NA
ATOM      4  C   UNL     1       6.136   5.804  17.098  0.00  0.00    +0.000 A 
ATOM      5  N   UNL     1       5.171   5.908  18.058  0.00  0.00    +0.000 N 
ENDROOT
BRANCH   1   6
ATOM      6  S   UNL     1       2.642   6.946  18.206  0.00  0.00    +0.000 S 
BRANCH   6   7
ATOM      7  C   UNL     1       2.462   8.722  17.868  0.00  0.00    +0.000 C 
BRANCH   7   9
ATOM      8  O   UNL     1       0.276   9.743  17.936  0.00  0.00    +0.000 OA
ATOM      9  C   UNL     1       1.224   9.274  18.560  0.00  0.00    +0.000 C 
ATOM     10  N   UNL     1       1.275   9.236  19.937  0.00  0.00    +0.000 N 
ATOM     11  H   UNL     1       2.139   8.933  20.383  0.00  0.00    +0.000 HD
BRANCH  10  12
ATOM     12  C   UNL     1       0.190   9.696  20.777  0.00  0.00    +0.000 C 
ATOM     13  C   UNL     1       0.228   9.052  22.159  0.00  0.00    +0.000 C 
ATOM     14  C   UNL     1      -0.687   9.933  22.997  0.00  0.00    +0.000 C 
ATOM     15  C   UNL     1      -0.596  11.329  22.383  0.00  0.00    +0.000 C 
ATOM     16  C   UNL     1       0.241  11.185  21.114  0.00  0.00    +0.000 C 
ENDBRANCH  10  12
ENDBRANCH   7   9
ENDBRANCH   6   7
ENDBRANCH   1   6
BRANCH   5  17
ATOM     17  C   UNL     1       5.123   5.231  19.336  0.00  0.00    +0.000 C 
BRANCH  17  18
ATOM     18  C   UNL     1       4.811   3.734  19.275  0.00  0.00    +0.000 C 
BRANCH  18  19
ATOM     19  C   UNL     1       3.328   3.495  19.410  0.00  0.00    +0.000 A 
ATOM     20  C   UNL     1       2.675   3.773  20.619  0.00  0.00    +0.000 A 
ATOM     21  C   UNL     1       1.317   3.497  20.765  0.00  0.00    +0.000 A 
ATOM     22  C   UNL     1       0.598   2.939  19.706  0.00  0.00    +0.000 A 
ATOM     23  C   UNL     1       1.240   2.663  18.500  0.00  0.00    +0.000 A 
ATOM     24  C   UNL     1       2.598   2.938  18.352  0.00  0.00    +0.000 A 
ENDBRANCH  18  19
ENDBRANCH  17  18
ENDBRANCH   5  17
TORSDOF 7
ENDMDL
