MODEL 1
REMARK VINA RESULT:      -7.3      0.000      0.000
REMARK  Name = 
REMARK  4 active torsions:
REMARK  status: ('A' for Active; 'I' for Inactive)
REMARK    1  A    between atoms: C_2  and  C_3
REMARK    2  A    between atoms: C_3  and  N_4
REMARK    3  A    between atoms: C_9  and  C_10
REMARK    4  A    between atoms: C_13  and  N_14
REMARK                            x       y       z     vdW  Elec       q    Type
REMARK                         _______ _______ _______ _____ _____    ______ ____
ROOT
ATOM      1  N   UNL     1       1.413   9.064  19.492  0.00  0.00    +0.000 N 
ATOM      2  C   UNL     1       1.187   8.970  20.847  0.00  0.00    +0.000 C 
ATOM      3  O   UNL     1       0.842   9.855  21.611  0.00  0.00    +0.000 OA
ATOM      4  N   UNL     1       1.458   7.665  21.230  0.00  0.00    +0.000 N 
ATOM      5  C   UNL     1       1.903   6.941  20.159  0.00  0.00    +0.000 C 
ATOM      6  C   UNL     1       2.302   5.668  20.219  0.00  0.00    +0.000 C 
ATOM      7  C   UNL     1       1.882   7.877  18.981  0.00  0.00    +0.000 C 
ATOM      8  O   UNL     1       2.256   7.647  17.847  0.00  0.00    +0.000 OA
ATOM      9  H   UNL     1       1.389   7.352  22.186  0.00  0.00    +0.000 HD
ENDROOT
BRANCH   6  10
ATOM     10  C   UNL     1       2.815   4.999  19.080  0.00  0.00    +0.000 A 
ATOM     11  C   UNL     1       2.148   4.196  18.168  0.00  0.00    +0.000 A 
ATOM     12  C   UNL     1       3.103   3.727  17.237  0.00  0.00    +0.000 A 
ATOM     13  C   UNL     1       4.311   4.281  17.598  0.00  0.00    +0.000 A 
ATOM     14  O   UNL     1       4.131   5.068  18.695  0.00  0.00    +0.000 OA
BRANCH  13  15
ATOM     15  N   UNL     1       5.554   4.198  17.071  0.00  0.00    +0.000 N 
ATOM     16  C   UNL     1       6.708   4.826  17.725  0.00  0.00    +0.000 C 
ATOM     17  C   UNL     1       7.217   6.012  16.888  0.00  0.00    +0.000 C 
ATOM     18  O   UNL     1       7.502   5.622  15.534  0.00  0.00    +0.000 OA
ATOM     19  C   UNL     1       6.311   5.113  14.908  0.00  0.00    +0.000 C 
ATOM     20  C   UNL     1       5.769   3.885  15.652  0.00  0.00    +0.000 C 
ENDBRANCH  13  15
ENDBRANCH   6  10
BRANCH   1  21
ATOM     21  C   UNL     1       1.319  10.284  18.730  0.00  0.00    +0.000 C 
BRANCH  21  23
ATOM     22  C   UNL     1      -1.003   9.968  17.820  0.00  0.00    +0.000 C 
ATOM     23  C   UNL     1      -0.123  10.662  18.556  0.00  0.00    +0.000 C 
ENDBRANCH  21  23
ENDBRANCH   1  21
TORSDOF 4
ENDMDL
MODEL 2
REMARK VINA RESULT:      -7.1      3.235      7.527
REMARK  Name = 
REMARK  4 active torsions:
REMARK  status: ('A' for Active; 'I' for Inactive)
REMARK    1  A    between atoms: C_2  and  C_3
REMARK    2  A    between atoms: C_3  and  N_4
REMARK    3  A    between atoms: C_9  and  C_10
REMARK    4  A    between atoms: C_13  and  N_14
REMARK                            x       y       z     vdW  Elec       q    Type
REMARK                         _______ _______ _______ _____ _____    ______ ____
ROOT
ATOM      1  N   UNL     1       6.143   3.977  13.303  0.00  0.00    +0.000 N 
ATOM      2  C   UNL     1       7.237   4.735  12.952  0.00  0.00    +0.000 C 
ATOM      3  O   UNL     1       7.830   4.744  11.886  0.00  0.00    +0.000 OA
ATOM      4  N   UNL     1       7.598   5.492  14.057  0.00  0.00    +0.000 N 
ATOM      5  C   UNL     1       6.791   5.191  15.118  0.00  0.00    +0.000 C 
ATOM      6  C   UNL     1       6.926   5.711  16.342  0.00  0.00    +0.000 C 
ATOM      7  C   UNL     1       5.807   4.167  14.623  0.00  0.00    +0.000 C 
ATOM      8  O   UNL     1       4.950   3.593  15.266  0.00  0.00    +0.000 OA
ATOM      9  H   UNL     1       8.393   6.113  14.056  0.00  0.00    +0.000 HD
ENDROOT
BRANCH   6  10
ATOM     10  C   UNL     1       6.092   5.304  17.413  0.00  0.00    +0.000 A 
ATOM     11  C   UNL     1       6.430   4.611  18.565  0.00  0.00    +0.000 A 
ATOM     12  C   UNL     1       5.242   4.407  19.303  0.00  0.00    +0.000 A 
ATOM     13  C   UNL     1       4.227   5.004  18.588  0.00  0.00    +0.000 A 
ATOM     14  O   UNL     1       4.746   5.567  17.461  0.00  0.00    +0.000 OA
BRANCH  13  15
ATOM     15  N   UNL     1       2.899   5.136  18.812  0.00  0.00    +0.000 N 
ATOM     16  C   UNL     1       2.382   5.608  20.102  0.00  0.00    +0.000 C 
ATOM     17  C   UNL     1       1.657   4.467  20.837  0.00  0.00    +0.000 C 
ATOM     18  O   UNL     1       0.631   3.877  20.020  0.00  0.00    +0.000 OA
ATOM     19  C   UNL     1       1.211   3.336  18.819  0.00  0.00    +0.000 C 
ATOM     20  C   UNL     1       1.907   4.427  17.993  0.00  0.00    +0.000 C 
ENDBRANCH  13  15
ENDBRANCH   6  10
BRANCH   1  21
ATOM     21  C   UNL     1       5.517   2.999  12.449  0.00  0.00    +0.000 C 
BRANCH  21  23
ATOM     22  C   UNL     1       3.611   2.992  10.811  0.00  0.00    +0.000 C 
ATOM     23  C   UNL     1       4.421   3.646  11.656  0.00  0.00    +0.000 C 
ENDBRANCH  21  23
ENDBRANCH   1  21
TORSDOF 4
ENDMDL
MODEL 3
REMARK VINA RESULT:      -6.9      1.089      1.581
REMARK  Name = 
REMARK  4 active torsions:
REMARK  status: ('A' for Active; 'I' for Inactive)
REMARK    1  A    between atoms: C_2  and  C_3
REMARK    2  A    between atoms: C_3  and  N_4
REMARK    3  A    between atoms: C_9  and  C_10
REMARK    4  A    between atoms: C_13  and  N_14
REMARK                            x       y       z     vdW  Elec       q    Type
REMARK                         _______ _______ _______ _____ _____    ______ ____
ROOT
ATOM      1  N   UNL     1       0.966   9.865  19.862  0.00  0.00    +0.000 N 
ATOM      2  C   UNL     1       0.817   9.725  21.223  0.00  0.00    +0.000 C 
ATOM      3  O   UNL     1       0.431  10.561  22.022  0.00  0.00    +0.000 OA
ATOM      4  N   UNL     1       1.226   8.444  21.563  0.00  0.00    +0.000 N 
ATOM      5  C   UNL     1       1.682   7.785  20.456  0.00  0.00    +0.000 C 
ATOM      6  C   UNL     1       2.199   6.553  20.468  0.00  0.00    +0.000 C 
ATOM      7  C   UNL     1       1.515   8.735  19.302  0.00  0.00    +0.000 C 
ATOM      8  O   UNL     1       1.851   8.561  18.147  0.00  0.00    +0.000 OA
ATOM      9  H   UNL     1       1.234   8.110  22.515  0.00  0.00    +0.000 HD
ENDROOT
BRANCH   6  10
ATOM     10  C   UNL     1       2.713   5.955  19.292  0.00  0.00    +0.000 A 
ATOM     11  C   UNL     1       2.146   4.974  18.494  0.00  0.00    +0.000 A 
ATOM     12  C   UNL     1       3.065   4.681  17.461  0.00  0.00    +0.000 A 
ATOM     13  C   UNL     1       4.147   5.512  17.650  0.00  0.00    +0.000 A 
ATOM     14  O   UNL     1       3.922   6.298  18.739  0.00  0.00    +0.000 OA
BRANCH  13  15
ATOM     15  N   UNL     1       5.305   5.683  16.970  0.00  0.00    +0.000 N 
ATOM     16  C   UNL     1       5.468   5.193  15.596  0.00  0.00    +0.000 C 
ATOM     17  C   UNL     1       6.464   4.021  15.561  0.00  0.00    +0.000 C 
ATOM     18  O   UNL     1       7.719   4.373  16.168  0.00  0.00    +0.000 OA
ATOM     19  C   UNL     1       7.513   4.742  17.544  0.00  0.00    +0.000 C 
ATOM     20  C   UNL     1       6.572   5.949  17.664  0.00  0.00    +0.000 C 
ENDBRANCH  13  15
ENDBRANCH   6  10
BRANCH   1  21
ATOM     21  C   UNL     1       0.722  11.083  19.132  0.00  0.00    +0.000 C 
BRANCH  21  23
ATOM     22  C   UNL     1      -1.580  12.078  18.951  0.00  0.00    +0.000 C 
ATOM     23  C   UNL     1      -0.700  11.111  18.654  0.00  0.00    +0.000 C 
ENDBRANCH  21  23
ENDBRANCH   1  21
TORSDOF 4
ENDMDL
MODEL 4
REMARK VINA RESULT:      -6.9      1.367      7.100
REMARK  Name = 
REMARK  4 active torsions:
REMARK  status: ('A' for Active; 'I' for Inactive)
REMARK    1  A    between atoms: C_2  and  C_3
REMARK    2  A    between atoms: C_3  and  N_4
REMARK    3  A    between atoms: C_9  and  C_10
REMARK    4  A    between atoms: C_13  and  N_14
REMARK                            x       y       z     vdW  Elec       q    Type
REMARK                         _______ _______ _______ _____ _____    ______ ____
ROOT
ATOM      1  N   UNL     1       6.340   4.763  17.753  0.00  0.00    +0.000 N 
ATOM      2  C   UNL     1       5.994   4.303  16.503  0.00  0.00    +0.000 C 
ATOM      3  O   UNL     1       6.738   3.967  15.597  0.00  0.00    +0.000 OA
ATOM      4  N   UNL     1       4.610   4.316  16.417  0.00  0.00    +0.000 N 
ATOM      5  C   UNL     1       4.071   4.825  17.565  0.00  0.00    +0.000 C 
ATOM      6  C   UNL     1       2.764   5.021  17.766  0.00  0.00    +0.000 C 
ATOM      7  C   UNL     1       5.230   5.134  18.474  0.00  0.00    +0.000 C 
ATOM      8  O   UNL     1       5.190   5.654  19.571  0.00  0.00    +0.000 OA
ATOM      9  H   UNL     1       4.113   4.045  15.582  0.00  0.00    +0.000 HD
ENDROOT
BRANCH   6  10
ATOM     10  C   UNL     1       2.281   5.614  18.958  0.00  0.00    +0.000 A 
ATOM     11  C   UNL     1       1.845   5.000  20.122  0.00  0.00    +0.000 A 
ATOM     12  C   UNL     1       1.420   6.017  21.007  0.00  0.00    +0.000 A 
ATOM     13  C   UNL     1       1.636   7.215  20.362  0.00  0.00    +0.000 A 
ATOM     14  O   UNL     1       2.179   6.971  19.137  0.00  0.00    +0.000 OA
BRANCH  13  15
ATOM     15  N   UNL     1       1.435   8.503  20.724  0.00  0.00    +0.000 N 
ATOM     16  C   UNL     1       1.200   8.880  22.123  0.00  0.00    +0.000 C 
ATOM     17  C   UNL     1      -0.250   9.359  22.311  0.00  0.00    +0.000 C 
ATOM     18  O   UNL     1      -0.582  10.418  21.397  0.00  0.00    +0.000 OA
ATOM     19  C   UNL     1      -0.436   9.960  20.041  0.00  0.00    +0.000 C 
ATOM     20  C   UNL     1       1.005   9.517  19.752  0.00  0.00    +0.000 C 
ENDBRANCH  13  15
ENDBRANCH   6  10
BRANCH   1  21
ATOM     21  C   UNL     1       7.694   4.973  18.202  0.00  0.00    +0.000 C 
BRANCH  21  23
ATOM     22  C   UNL     1       7.647   7.401  17.554  0.00  0.00    +0.000 C 
ATOM     23  C   UNL     1       7.926   6.436  18.442  0.00  0.00    +0.000 C 
ENDBRANCH  21  23
ENDBRANCH   1  21
TORSDOF 4
ENDMDL
MODEL 5
REMARK VINA RESULT:      -6.9      1.312      1.921
REMARK  Name = 
REMARK  4 active torsions:
REMARK  status: ('A' for Active; 'I' for Inactive)
REMARK    1  A    between atoms: C_2  and  C_3
REMARK    2  A    between atoms: C_3  and  N_4
REMARK    3  A    between atoms: C_9  and  C_10
REMARK    4  A    between atoms: C_13  and  N_14
REMARK                            x       y       z     vdW  Elec       q    Type
REMARK                         _______ _______ _______ _____ _____    ______ ____
ROOT
ATOM      1  N   UNL     1       0.881  10.055  19.748  0.00  0.00    +0.000 N 
ATOM      2  C   UNL     1       0.699   9.942  21.108  0.00  0.00    +0.000 C 
ATOM      3  O   UNL     1       0.276  10.788  21.878  0.00  0.00    +0.000 OA
ATOM      4  N   UNL     1       1.123   8.677  21.487  0.00  0.00    +0.000 N 
ATOM      5  C   UNL     1       1.621   8.003  20.407  0.00  0.00    +0.000 C 
ATOM      6  C   UNL     1       2.160   6.782  20.460  0.00  0.00    +0.000 C 
ATOM      7  C   UNL     1       1.467   8.925  19.228  0.00  0.00    +0.000 C 
ATOM      8  O   UNL     1       1.837   8.732  18.086  0.00  0.00    +0.000 OA
ATOM      9  H   UNL     1       1.112   8.364  22.446  0.00  0.00    +0.000 HD
ENDROOT
BRANCH   6  10
ATOM     10  C   UNL     1       2.717   6.169  19.310  0.00  0.00    +0.000 A 
ATOM     11  C   UNL     1       2.168   5.195  18.491  0.00  0.00    +0.000 A 
ATOM     12  C   UNL     1       3.129   4.880  17.503  0.00  0.00    +0.000 A 
ATOM     13  C   UNL     1       4.217   5.691  17.739  0.00  0.00    +0.000 A 
ATOM     14  O   UNL     1       3.957   6.486  18.814  0.00  0.00    +0.000 OA
BRANCH  13  15
ATOM     15  N   UNL     1       5.408   5.836  17.113  0.00  0.00    +0.000 N 
ATOM     16  C   UNL     1       5.592   5.444  15.711  0.00  0.00    +0.000 C 
ATOM     17  C   UNL     1       6.512   4.214  15.617  0.00  0.00    +0.000 C 
ATOM     18  O   UNL     1       7.763   4.434  16.290  0.00  0.00    +0.000 OA
ATOM     19  C   UNL     1       7.529   4.710  17.683  0.00  0.00    +0.000 C 
ATOM     20  C   UNL     1       6.662   5.963  17.868  0.00  0.00    +0.000 C 
ENDBRANCH  13  15
ENDBRANCH   6  10
BRANCH   1  21
ATOM     21  C   UNL     1       0.634  11.253  18.986  0.00  0.00    +0.000 C 
BRANCH  21  23
ATOM     22  C   UNL     1       2.571  12.599  18.116  0.00  0.00    +0.000 C 
ATOM     23  C   UNL     1       1.794  12.194  19.131  0.00  0.00    +0.000 C 
ENDBRANCH  21  23
ENDBRANCH   1  21
TORSDOF 4
ENDMDL
MODEL 6
REMARK VINA RESULT:      -6.8      0.857      1.199
REMARK  Name = 
REMARK  4 active torsions:
REMARK  status: ('A' for Active; 'I' for Inactive)
REMARK    1  A    between atoms: C_2  and  C_3
REMARK    2  A    between atoms: C_3  and  N_4
REMARK    3  A    between atoms: C_9  and  C_10
REMARK    4  A    between atoms: C_13  and  N_14
REMARK                            x       y       z     vdW  Elec       q    Type
REMARK                         _______ _______ _______ _____ _____    ______ ____
ROOT
ATOM      1  N   UNL     1       1.164   9.612  19.516  0.00  0.00    +0.000 N 
ATOM      2  C   UNL     1       1.079   9.633  20.890  0.00  0.00    +0.000 C 
ATOM      3  O   UNL     1       0.766  10.569  21.605  0.00  0.00    +0.000 OA
ATOM      4  N   UNL     1       1.455   8.381  21.355  0.00  0.00    +0.000 N 
ATOM      5  C   UNL     1       1.829   7.582  20.311  0.00  0.00    +0.000 C 
ATOM      6  C   UNL     1       2.298   6.338  20.440  0.00  0.00    +0.000 C 
ATOM      7  C   UNL     1       1.641   8.404  19.064  0.00  0.00    +0.000 C 
ATOM      8  O   UNL     1       1.912   8.086  17.923  0.00  0.00    +0.000 OA
ATOM      9  H   UNL     1       1.498   8.156  22.338  0.00  0.00    +0.000 HD
ENDROOT
BRANCH   6  10
ATOM     10  C   UNL     1       2.729   5.591  19.317  0.00  0.00    +0.000 A 
ATOM     11  C   UNL     1       1.978   4.817  18.445  0.00  0.00    +0.000 A 
ATOM     12  C   UNL     1       2.870   4.237  17.515  0.00  0.00    +0.000 A 
ATOM     13  C   UNL     1       4.128   4.697  17.836  0.00  0.00    +0.000 A 
ATOM     14  O   UNL     1       4.038   5.533  18.907  0.00  0.00    +0.000 OA
BRANCH  13  15
ATOM     15  N   UNL     1       5.349   4.491  17.291  0.00  0.00    +0.000 N 
ATOM     16  C   UNL     1       6.563   5.061  17.887  0.00  0.00    +0.000 C 
ATOM     17  C   UNL     1       7.141   6.159  16.976  0.00  0.00    +0.000 C 
ATOM     18  O   UNL     1       7.364   5.676  15.641  0.00  0.00    +0.000 OA
ATOM     19  C   UNL     1       6.123   5.228  15.066  0.00  0.00    +0.000 C 
ATOM     20  C   UNL     1       5.506   4.087  15.887  0.00  0.00    +0.000 C 
ENDBRANCH  13  15
ENDBRANCH   6  10
BRANCH   1  21
ATOM     21  C   UNL     1       0.931  10.750  18.664  0.00  0.00    +0.000 C 
BRANCH  21  23
ATOM     22  C   UNL     1       2.318  12.797  18.210  0.00  0.00    +0.000 C 
ATOM     23  C   UNL     1       2.222  11.477  18.425  0.00  0.00    +0.000 C 
ENDBRANCH  21  23
ENDBRANCH   1  21
TORSDOF 4
ENDMDL
MODEL 7
REMARK VINA RESULT:      -6.7      3.236      7.222
REMARK  Name = 
REMARK  4 active torsions:
REMARK  status: ('A' for Active; 'I' for Inactive)
REMARK    1  A    between atoms: C_2  and  C_3
REMARK    2  A    between atoms: C_3  and  N_4
REMARK    3  A    between atoms: C_9  and  C_10
REMARK    4  A    between atoms: C_13  and  N_14
REMARK                            x       y       z     vdW  Elec       q    Type
REMARK                         _______ _______ _______ _____ _____    ______ ____
ROOT
ATOM      1  N   UNL     1       6.301   4.390  14.163  0.00  0.00    +0.000 N 
ATOM      2  C   UNL     1       7.467   5.118  14.099  0.00  0.00    +0.000 C 
ATOM      3  O   UNL     1       8.395   4.977  13.321  0.00  0.00    +0.000 OA
ATOM      4  N   UNL     1       7.438   6.053  15.123  0.00  0.00    +0.000 N 
ATOM      5  C   UNL     1       6.303   5.899  15.869  0.00  0.00    +0.000 C 
ATOM      6  C   UNL     1       6.013   6.611  16.962  0.00  0.00    +0.000 C 
ATOM      7  C   UNL     1       5.529   4.776  15.233  0.00  0.00    +0.000 C 
ATOM      8  O   UNL     1       4.488   4.284  15.620  0.00  0.00    +0.000 OA
ATOM      9  H   UNL     1       8.198   6.692  15.299  0.00  0.00    +0.000 HD
ENDROOT
BRANCH   6  10
ATOM     10  C   UNL     1       4.848   6.353  17.725  0.00  0.00    +0.000 A 
ATOM     11  C   UNL     1       3.662   7.069  17.773  0.00  0.00    +0.000 A 
ATOM     12  C   UNL     1       2.820   6.436  18.716  0.00  0.00    +0.000 A 
ATOM     13  C   UNL     1       3.513   5.344  19.191  0.00  0.00    +0.000 A 
ATOM     14  O   UNL     1       4.725   5.281  18.573  0.00  0.00    +0.000 OA
BRANCH  13  15
ATOM     15  N   UNL     1       3.204   4.378  20.087  0.00  0.00    +0.000 N 
ATOM     16  C   UNL     1       3.644   2.990  19.902  0.00  0.00    +0.000 C 
ATOM     17  C   UNL     1       2.438   2.084  19.599  0.00  0.00    +0.000 C 
ATOM     18  O   UNL     1       1.418   2.204  20.605  0.00  0.00    +0.000 OA
ATOM     19  C   UNL     1       0.949   3.563  20.669  0.00  0.00    +0.000 C 
ATOM     20  C   UNL     1       2.085   4.531  21.027  0.00  0.00    +0.000 C 
ENDBRANCH  13  15
ENDBRANCH   6  10
BRANCH   1  21
ATOM     21  C   UNL     1       5.990   3.267  13.314  0.00  0.00    +0.000 C 
BRANCH  21  23
ATOM     22  C   UNL     1       4.251   3.225  11.499  0.00  0.00    +0.000 C 
ATOM     23  C   UNL     1       5.357   3.753  12.043  0.00  0.00    +0.000 C 
ENDBRANCH  21  23
ENDBRANCH   1  21
TORSDOF 4
ENDMDL
MODEL 8
REMARK VINA RESULT:      -6.6      1.258      1.720
REMARK  Name = 
REMARK  4 active torsions:
REMARK  status: ('A' for Active; 'I' for Inactive)
REMARK    1  A    between atoms: C_2  and  C_3
REMARK    2  A    between atoms: C_3  and  N_4
REMARK    3  A    between atoms: C_9  and  C_10
REMARK    4  A    between atoms: C_13  and  N_14
REMARK                            x       y       z     vdW  Elec       q    Type
REMARK                         _______ _______ _______ _____ _____    ______ ____
ROOT
ATOM      1  N   UNL     1       0.984   9.914  19.758  0.00  0.00    +0.000 N 
ATOM      2  C   UNL     1       0.969   9.892  21.134  0.00  0.00    +0.000 C 
ATOM      3  O   UNL     1       0.704  10.809  21.894  0.00  0.00    +0.000 OA
ATOM      4  N   UNL     1       1.352   8.623  21.541  0.00  0.00    +0.000 N 
ATOM      5  C   UNL     1       1.663   7.854  20.454  0.00  0.00    +0.000 C 
ATOM      6  C   UNL     1       2.123   6.601  20.521  0.00  0.00    +0.000 C 
ATOM      7  C   UNL     1       1.422   8.716  19.245  0.00  0.00    +0.000 C 
ATOM      8  O   UNL     1       1.631   8.432  18.082  0.00  0.00    +0.000 OA
ATOM      9  H   UNL     1       1.442   8.366  22.512  0.00  0.00    +0.000 HD
ENDROOT
BRANCH   6  10
ATOM     10  C   UNL     1       2.487   5.884  19.354  0.00  0.00    +0.000 A 
ATOM     11  C   UNL     1       1.812   4.854  18.719  0.00  0.00    +0.000 A 
ATOM     12  C   UNL     1       2.602   4.441  17.622  0.00  0.00    +0.000 A 
ATOM     13  C   UNL     1       3.716   5.250  17.611  0.00  0.00    +0.000 A 
ATOM     14  O   UNL     1       3.633   6.137  18.642  0.00  0.00    +0.000 OA
BRANCH  13  15
ATOM     15  N   UNL     1       4.792   5.323  16.794  0.00  0.00    +0.000 N 
ATOM     16  C   UNL     1       5.733   4.205  16.664  0.00  0.00    +0.000 C 
ATOM     17  C   UNL     1       7.091   4.573  17.289  0.00  0.00    +0.000 C 
ATOM     18  O   UNL     1       7.614   5.795  16.740  0.00  0.00    +0.000 OA
ATOM     19  C   UNL     1       6.699   6.877  16.991  0.00  0.00    +0.000 C 
ATOM     20  C   UNL     1       5.331   6.614  16.346  0.00  0.00    +0.000 C 
ENDBRANCH  13  15
ENDBRANCH   6  10
BRANCH   1  21
ATOM     21  C   UNL     1       0.722  11.082  18.955  0.00  0.00    +0.000 C 
BRANCH  21  23
ATOM     22  C   UNL     1       2.237  13.075  18.738  0.00  0.00    +0.000 C 
ATOM     23  C   UNL     1       2.016  11.760  18.610  0.00  0.00    +0.000 C 
ENDBRANCH  21  23
ENDBRANCH   1  21
TORSDOF 4
ENDMDL
MODEL 9
REMARK VINA RESULT:      -6.6      3.149      7.050
REMARK  Name = 
REMARK  4 active torsions:
REMARK  status: ('A' for Active; 'I' for Inactive)
REMARK    1  A    between atoms: C_2  and  C_3
REMARK    2  A    between atoms: C_3  and  N_4
REMARK    3  A    between atoms: C_9  and  C_10
REMARK    4  A    between atoms: C_13  and  N_14
REMARK                            x       y       z     vdW  Elec       q    Type
REMARK                         _______ _______ _______ _____ _____    ______ ____
ROOT
ATOM      1  N   UNL     1       6.282   4.490  14.429  0.00  0.00    +0.000 N 
ATOM      2  C   UNL     1       7.399   5.289  14.525  0.00  0.00    +0.000 C 
ATOM      3  O   UNL     1       8.417   5.235  13.856  0.00  0.00    +0.000 OA
ATOM      4  N   UNL     1       7.192   6.179  15.568  0.00  0.00    +0.000 N 
ATOM      5  C   UNL     1       5.992   5.927  16.172  0.00  0.00    +0.000 C 
ATOM      6  C   UNL     1       5.534   6.577  17.246  0.00  0.00    +0.000 C 
ATOM      7  C   UNL     1       5.370   4.786  15.414  0.00  0.00    +0.000 C 
ATOM      8  O   UNL     1       4.325   4.216  15.662  0.00  0.00    +0.000 OA
ATOM      9  H   UNL     1       7.884   6.855  15.853  0.00  0.00    +0.000 HD
ENDROOT
BRANCH   6  10
ATOM     10  C   UNL     1       4.308   6.218  17.860  0.00  0.00    +0.000 A 
ATOM     11  C   UNL     1       3.160   6.978  18.022  0.00  0.00    +0.000 A 
ATOM     12  C   UNL     1       2.226   6.192  18.734  0.00  0.00    +0.000 A 
ATOM     13  C   UNL     1       2.828   4.973  18.958  0.00  0.00    +0.000 A 
ATOM     14  O   UNL     1       4.074   4.982  18.408  0.00  0.00    +0.000 OA
BRANCH  13  15
ATOM     15  N   UNL     1       2.410   3.840  19.569  0.00  0.00    +0.000 N 
ATOM     16  C   UNL     1       1.442   3.875  20.672  0.00  0.00    +0.000 C 
ATOM     17  C   UNL     1       2.122   3.476  21.993  0.00  0.00    +0.000 C 
ATOM     18  O   UNL     1       2.782   2.203  21.887  0.00  0.00    +0.000 OA
ATOM     19  C   UNL     1       3.793   2.259  20.864  0.00  0.00    +0.000 C 
ATOM     20  C   UNL     1       3.186   2.596  19.495  0.00  0.00    +0.000 C 
ENDBRANCH  13  15
ENDBRANCH   6  10
BRANCH   1  21
ATOM     21  C   UNL     1       6.143   3.384  13.514  0.00  0.00    +0.000 C 
BRANCH  21  23
ATOM     22  C   UNL     1       4.451   3.169  11.668  0.00  0.00    +0.000 C 
ATOM     23  C   UNL     1       5.442   3.843  12.269  0.00  0.00    +0.000 C 
ENDBRANCH  21  23
ENDBRANCH   1  21
TORSDOF 4
ENDMDL
