MODEL 1
REMARK VINA RESULT:      -8.3      0.000      0.000
REMARK  Name = 
REMARK  9 active torsions:
REMARK  status: ('A' for Active; 'I' for Inactive)
REMARK    1  A    between atoms: C_1  and  C_2
REMARK    2  A    between atoms: C_2  and  O_3
REMARK    3  A    between atoms: C_2  and  C_30
REMARK    4  A    between atoms: O_3  and  C_4
REMARK    5  A    between atoms: C_7  and  S_8
REMARK    6  A    between atoms: S_8  and  C_9
REMARK    7  A    between atoms: C_13  and  C_14
REMARK    8  A    between atoms: C_18  and  C_19
REMARK    9  A    between atoms: C_22  and  C_23
REMARK                            x       y       z     vdW  Elec       q    Type
REMARK                         _______ _______ _______ _____ _____    ______ ____
ROOT
ATOM      1  C   UNL     1       2.507   5.492  19.232  0.00  0.00    +0.000 A 
ATOM      2  C   UNL     1       1.829   5.267  20.434  0.00  0.00    +0.000 A 
ATOM      3  C   UNL     1       1.312   6.334  21.173  0.00  0.00    +0.000 A 
ATOM      4  C   UNL     1       1.479   7.638  20.711  0.00  0.00    +0.000 A 
ATOM      5  C   UNL     1       2.199   7.890  19.542  0.00  0.00    +0.000 A 
ATOM      6  C   UNL     1       2.751   6.820  18.816  0.00  0.00    +0.000 A 
ENDROOT
BRANCH   6   7
ATOM      7  C   UNL     1       3.710   7.177  17.720  0.00  0.00    +0.000 C 
ATOM      8  O   UNL     1       3.273   7.716  16.709  0.00  0.00    +0.000 OA
ATOM      9  N   UNL     1       5.054   6.949  17.931  0.00  0.00    +0.000 N 
ATOM     10  C   UNL     1       6.131   7.417  17.058  0.00  0.00    +0.000 C 
ATOM     11  C   UNL     1       6.630   5.966  16.967  0.00  0.00    +0.000 C 
ATOM     12  C   UNL     1       5.650   5.620  18.102  0.00  0.00    +0.000 C 
BRANCH  11  13
ATOM     13  C   UNL     1       6.465   5.172  15.597  0.00  0.00    +0.000 A 
ATOM     14  C   UNL     1       7.444   5.242  14.587  0.00  0.00    +0.000 A 
ATOM     15  C   UNL     1       7.319   4.539  13.384  0.00  0.00    +0.000 A 
ATOM     16  C   UNL     1       6.200   3.731  13.148  0.00  0.00    +0.000 A 
ATOM     17  C   UNL     1       5.216   3.646  14.138  0.00  0.00    +0.000 A 
ATOM     18  C   UNL     1       5.353   4.350  15.334  0.00  0.00    +0.000 A 
BRANCH  16  19
ATOM     19  C   UNL     1       6.035   2.963  11.864  0.00  0.00    +0.000 C 
ATOM     20  F   UNL     1       5.638   1.672  12.047  0.00  0.00    +0.000 F 
ATOM     21  F   UNL     1       5.109   3.523  11.038  0.00  0.00    +0.000 F 
ATOM     22  F   UNL     1       7.189   2.899  11.145  0.00  0.00    +0.000 F 
ENDBRANCH  16  19
ENDBRANCH  11  13
ENDBRANCH   6   7
BRANCH   4  23
ATOM     23  S   UNL     1       0.746   8.985  21.610  0.00  0.00    +0.000 S 
ATOM     24  C   UNL     1       0.608  10.273  20.400  0.00  0.00    +0.000 C 
ATOM     25  O   UNL     1      -0.586   8.568  21.999  0.00  0.00    +0.000 OA
ATOM     26  O   UNL     1       1.711   9.409  22.609  0.00  0.00    +0.000 OA
ENDBRANCH   4  23
BRANCH   1  27
ATOM     27  O   UNL     1       2.999   4.474  18.469  0.00  0.00    +0.000 OA
BRANCH  27  29
ATOM     28  C   UNL     1       2.544   2.246  17.487  0.00  0.00    +0.000 C 
ATOM     29  C   UNL     1       2.673   3.100  18.755  0.00  0.00    +0.000 C 
BRANCH  29  30
ATOM     30  C   UNL     1       3.776   2.514  19.668  0.00  0.00    +0.000 C 
ATOM     31  F   UNL     1       4.867   3.309  19.738  0.00  0.00    +0.000 F 
ATOM     32  F   UNL     1       3.355   2.317  20.938  0.00  0.00    +0.000 F 
ATOM     33  F   UNL     1       4.190   1.311  19.196  0.00  0.00    +0.000 F 
ENDBRANCH  29  30
ENDBRANCH  27  29
ENDBRANCH   1  27
TORSDOF 7
ENDMDL
MODEL 2
REMARK VINA RESULT:      -8.3      0.067      1.249
REMARK  Name = 
REMARK  9 active torsions:
REMARK  status: ('A' for Active; 'I' for Inactive)
REMARK    1  A    between atoms: C_1  and  C_2
REMARK    2  A    between atoms: C_2  and  O_3
REMARK    3  A    between atoms: C_2  and  C_30
REMARK    4  A    between atoms: O_3  and  C_4
REMARK    5  A    between atoms: C_7  and  S_8
REMARK    6  A    between atoms: S_8  and  C_9
REMARK    7  A    between atoms: C_13  and  C_14
REMARK    8  A    between atoms: C_18  and  C_19
REMARK    9  A    between atoms: C_22  and  C_23
REMARK                            x       y       z     vdW  Elec       q    Type
REMARK                         _______ _______ _______ _____ _____    ______ ____
ROOT
ATOM      1  C   UNL     1       2.480   5.522  19.268  0.00  0.00    +0.000 A 
ATOM      2  C   UNL     1       1.796   5.306  20.469  0.00  0.00    +0.000 A 
ATOM      3  C   UNL     1       1.279   6.379  21.200  0.00  0.00    +0.000 A 
ATOM      4  C   UNL     1       1.452   7.680  20.731  0.00  0.00    +0.000 A 
ATOM      5  C   UNL     1       2.178   7.922  19.563  0.00  0.00    +0.000 A 
ATOM      6  C   UNL     1       2.730   6.846  18.846  0.00  0.00    +0.000 A 
ENDROOT
BRANCH   6   7
ATOM      7  C   UNL     1       3.695   7.193  17.752  0.00  0.00    +0.000 C 
ATOM      8  O   UNL     1       3.262   7.723  16.733  0.00  0.00    +0.000 OA
ATOM      9  N   UNL     1       5.037   6.968  17.972  0.00  0.00    +0.000 N 
ATOM     10  C   UNL     1       6.119   7.428  17.101  0.00  0.00    +0.000 C 
ATOM     11  C   UNL     1       6.619   5.976  17.025  0.00  0.00    +0.000 C 
ATOM     12  C   UNL     1       5.633   5.641  18.158  0.00  0.00    +0.000 C 
BRANCH  11  13
ATOM     13  C   UNL     1       6.461   5.170  15.662  0.00  0.00    +0.000 A 
ATOM     14  C   UNL     1       5.327   4.373  15.409  0.00  0.00    +0.000 A 
ATOM     15  C   UNL     1       5.168   3.670  14.210  0.00  0.00    +0.000 A 
ATOM     16  C   UNL     1       6.146   3.743  13.211  0.00  0.00    +0.000 A 
ATOM     17  C   UNL     1       7.279   4.529  13.439  0.00  0.00    +0.000 A 
ATOM     18  C   UNL     1       7.426   5.228  14.638  0.00  0.00    +0.000 A 
BRANCH  16  19
ATOM     19  C   UNL     1       6.005   2.998  11.910  0.00  0.00    +0.000 C 
ATOM     20  F   UNL     1       7.149   2.970  11.169  0.00  0.00    +0.000 F 
ATOM     21  F   UNL     1       5.649   1.697  12.093  0.00  0.00    +0.000 F 
ATOM     22  F   UNL     1       5.050   3.537  11.103  0.00  0.00    +0.000 F 
ENDBRANCH  16  19
ENDBRANCH  11  13
ENDBRANCH   6   7
BRANCH   4  23
ATOM     23  S   UNL     1       0.720   9.034  21.618  0.00  0.00    +0.000 S 
ATOM     24  C   UNL     1       0.600  10.318  20.402  0.00  0.00    +0.000 C 
ATOM     25  O   UNL     1      -0.619   8.627  21.996  0.00  0.00    +0.000 OA
ATOM     26  O   UNL     1       1.678   9.456  22.623  0.00  0.00    +0.000 OA
ENDBRANCH   4  23
BRANCH   1  27
ATOM     27  O   UNL     1       2.972   4.498  18.514  0.00  0.00    +0.000 OA
BRANCH  27  29
ATOM     28  C   UNL     1       2.466   2.269  17.558  0.00  0.00    +0.000 C 
ATOM     29  C   UNL     1       2.654   3.125  18.818  0.00  0.00    +0.000 C 
BRANCH  29  30
ATOM     30  C   UNL     1       3.795   2.537  19.682  0.00  0.00    +0.000 C 
ATOM     31  F   UNL     1       3.438   2.388  20.978  0.00  0.00    +0.000 F 
ATOM     32  F   UNL     1       4.208   1.324  19.250  0.00  0.00    +0.000 F 
ATOM     33  F   UNL     1       4.876   3.356  19.659  0.00  0.00    +0.000 F 
ENDBRANCH  29  30
ENDBRANCH  27  29
ENDBRANCH   1  27
TORSDOF 7
ENDMDL
MODEL 3
REMARK VINA RESULT:      -8.3      3.058      4.638
REMARK  Name = 
REMARK  9 active torsions:
REMARK  status: ('A' for Active; 'I' for Inactive)
REMARK    1  A    between atoms: C_1  and  C_2
REMARK    2  A    between atoms: C_2  and  O_3
REMARK    3  A    between atoms: C_2  and  C_30
REMARK    4  A    between atoms: O_3  and  C_4
REMARK    5  A    between atoms: C_7  and  S_8
REMARK    6  A    between atoms: S_8  and  C_9
REMARK    7  A    between atoms: C_13  and  C_14
REMARK    8  A    between atoms: C_18  and  C_19
REMARK    9  A    between atoms: C_22  and  C_23
REMARK                            x       y       z     vdW  Elec       q    Type
REMARK                         _______ _______ _______ _____ _____    ______ ____
ROOT
ATOM      1  C   UNL     1       2.267   7.051  19.777  0.00  0.00    +0.000 A 
ATOM      2  C   UNL     1       1.367   6.446  20.660  0.00  0.00    +0.000 A 
ATOM      3  C   UNL     1       1.458   5.082  20.950  0.00  0.00    +0.000 A 
ATOM      4  C   UNL     1       2.453   4.314  20.347  0.00  0.00    +0.000 A 
ATOM      5  C   UNL     1       3.328   4.885  19.421  0.00  0.00    +0.000 A 
ATOM      6  C   UNL     1       3.215   6.249  19.101  0.00  0.00    +0.000 A 
ENDROOT
BRANCH   6   7
ATOM      7  C   UNL     1       4.016   6.733  17.930  0.00  0.00    +0.000 C 
ATOM      8  O   UNL     1       3.427   7.266  16.995  0.00  0.00    +0.000 OA
ATOM      9  N   UNL     1       5.389   6.623  17.991  0.00  0.00    +0.000 N 
ATOM     10  C   UNL     1       6.322   7.220  17.034  0.00  0.00    +0.000 C 
ATOM     11  C   UNL     1       6.934   5.825  16.825  0.00  0.00    +0.000 C 
ATOM     12  C   UNL     1       6.115   5.350  18.038  0.00  0.00    +0.000 C 
BRANCH  11  13
ATOM     13  C   UNL     1       6.694   5.070  15.445  0.00  0.00    +0.000 A 
ATOM     14  C   UNL     1       7.585   5.219  14.364  0.00  0.00    +0.000 A 
ATOM     15  C   UNL     1       7.395   4.551  13.150  0.00  0.00    +0.000 A 
ATOM     16  C   UNL     1       6.297   3.700  12.974  0.00  0.00    +0.000 A 
ATOM     17  C   UNL     1       5.400   3.537  14.034  0.00  0.00    +0.000 A 
ATOM     18  C   UNL     1       5.602   4.206  15.241  0.00  0.00    +0.000 A 
BRANCH  16  19
ATOM     19  C   UNL     1       6.064   2.968  11.679  0.00  0.00    +0.000 C 
ATOM     20  F   UNL     1       5.600   1.697  11.847  0.00  0.00    +0.000 F 
ATOM     21  F   UNL     1       5.153   3.594  10.885  0.00  0.00    +0.000 F 
ATOM     22  F   UNL     1       7.197   2.856  10.933  0.00  0.00    +0.000 F 
ENDBRANCH  16  19
ENDBRANCH  11  13
ENDBRANCH   6   7
BRANCH   4  23
ATOM     23  S   UNL     1       2.618   2.598  20.784  0.00  0.00    +0.000 S 
ATOM     24  C   UNL     1       4.258   2.186  20.253  0.00  0.00    +0.000 C 
ATOM     25  O   UNL     1       2.564   2.516  22.230  0.00  0.00    +0.000 OA
ATOM     26  O   UNL     1       1.680   1.855  19.963  0.00  0.00    +0.000 OA
ENDBRANCH   4  23
BRANCH   1  27
ATOM     27  O   UNL     1       2.227   8.384  19.493  0.00  0.00    +0.000 OA
BRANCH  27  29
ATOM     28  C   UNL     1       0.965  10.011  20.870  0.00  0.00    +0.000 C 
ATOM     29  C   UNL     1       1.004   9.137  19.609  0.00  0.00    +0.000 C 
BRANCH  29  30
ATOM     30  C   UNL     1       0.854  10.028  18.353  0.00  0.00    +0.000 C 
ATOM     31  F   UNL     1       0.741  11.340  18.659  0.00  0.00    +0.000 F 
ATOM     32  F   UNL     1       1.899   9.914  17.502  0.00  0.00    +0.000 F 
ATOM     33  F   UNL     1      -0.261   9.684  17.660  0.00  0.00    +0.000 F 
ENDBRANCH  29  30
ENDBRANCH  27  29
ENDBRANCH   1  27
TORSDOF 7
ENDMDL
MODEL 4
REMARK VINA RESULT:      -8.2      3.040      4.705
REMARK  Name = 
REMARK  9 active torsions:
REMARK  status: ('A' for Active; 'I' for Inactive)
REMARK    1  A    between atoms: C_1  and  C_2
REMARK    2  A    between atoms: C_2  and  O_3
REMARK    3  A    between atoms: C_2  and  C_30
REMARK    4  A    between atoms: O_3  and  C_4
REMARK    5  A    between atoms: C_7  and  S_8
REMARK    6  A    between atoms: S_8  and  C_9
REMARK    7  A    between atoms: C_13  and  C_14
REMARK    8  A    between atoms: C_18  and  C_19
REMARK    9  A    between atoms: C_22  and  C_23
REMARK                            x       y       z     vdW  Elec       q    Type
REMARK                         _______ _______ _______ _____ _____    ______ ____
ROOT
ATOM      1  C   UNL     1       2.219   7.092  19.810  0.00  0.00    +0.000 A 
ATOM      2  C   UNL     1       1.308   6.501  20.692  0.00  0.00    +0.000 A 
ATOM      3  C   UNL     1       1.355   5.130  20.954  0.00  0.00    +0.000 A 
ATOM      4  C   UNL     1       2.315   4.339  20.324  0.00  0.00    +0.000 A 
ATOM      5  C   UNL     1       3.199   4.899  19.399  0.00  0.00    +0.000 A 
ATOM      6  C   UNL     1       3.130   6.272  19.107  0.00  0.00    +0.000 A 
ENDROOT
BRANCH   6   7
ATOM      7  C   UNL     1       3.935   6.751  17.936  0.00  0.00    +0.000 C 
ATOM      8  O   UNL     1       3.347   7.259  16.988  0.00  0.00    +0.000 OA
ATOM      9  N   UNL     1       5.309   6.665  18.012  0.00  0.00    +0.000 N 
ATOM     10  C   UNL     1       6.241   7.262  17.055  0.00  0.00    +0.000 C 
ATOM     11  C   UNL     1       6.879   5.876  16.874  0.00  0.00    +0.000 C 
ATOM     12  C   UNL     1       6.056   5.405  18.086  0.00  0.00    +0.000 C 
BRANCH  11  13
ATOM     13  C   UNL     1       6.665   5.095  15.503  0.00  0.00    +0.000 A 
ATOM     14  C   UNL     1       5.545   4.264  15.300  0.00  0.00    +0.000 A 
ATOM     15  C   UNL     1       5.336   3.584  14.096  0.00  0.00    +0.000 A 
ATOM     16  C   UNL     1       6.249   3.713  13.042  0.00  0.00    +0.000 A 
ATOM     17  C   UNL     1       7.366   4.534  13.221  0.00  0.00    +0.000 A 
ATOM     18  C   UNL     1       7.563   5.210  14.425  0.00  0.00    +0.000 A 
BRANCH  16  19
ATOM     19  C   UNL     1       6.053   2.993  11.734  0.00  0.00    +0.000 C 
ATOM     20  F   UNL     1       5.565   1.728  11.875  0.00  0.00    +0.000 F 
ATOM     21  F   UNL     1       5.182   3.639  10.911  0.00  0.00    +0.000 F 
ATOM     22  F   UNL     1       7.212   2.869  11.030  0.00  0.00    +0.000 F 
ENDBRANCH  16  19
ENDBRANCH  11  13
ENDBRANCH   6   7
BRANCH   4  23
ATOM     23  S   UNL     1       2.425   2.611  20.725  0.00  0.00    +0.000 S 
ATOM     24  C   UNL     1       4.144   2.237  20.506  0.00  0.00    +0.000 C 
ATOM     25  O   UNL     1       2.095   2.474  22.130  0.00  0.00    +0.000 OA
ATOM     26  O   UNL     1       1.676   1.888  19.714  0.00  0.00    +0.000 OA
ENDBRANCH   4  23
BRANCH   1  27
ATOM     27  O   UNL     1       2.223   8.432  19.553  0.00  0.00    +0.000 OA
BRANCH  27  29
ATOM     28  C   UNL     1       1.021  10.171  20.844  0.00  0.00    +0.000 C 
ATOM     29  C   UNL     1       1.016   9.214  19.644  0.00  0.00    +0.000 C 
BRANCH  29  30
ATOM     30  C   UNL     1       0.853  10.021  18.334  0.00  0.00    +0.000 C 
ATOM     31  F   UNL     1      -0.154   9.556  17.561  0.00  0.00    +0.000 F 
ATOM     32  F   UNL     1       0.603  11.332  18.553  0.00  0.00    +0.000 F 
ATOM     33  F   UNL     1       1.988   9.952  17.592  0.00  0.00    +0.000 F 
ENDBRANCH  29  30
ENDBRANCH  27  29
ENDBRANCH   1  27
TORSDOF 7
ENDMDL
MODEL 5
REMARK VINA RESULT:      -8.1      0.581      1.286
REMARK  Name = 
REMARK  9 active torsions:
REMARK  status: ('A' for Active; 'I' for Inactive)
REMARK    1  A    between atoms: C_1  and  C_2
REMARK    2  A    between atoms: C_2  and  O_3
REMARK    3  A    between atoms: C_2  and  C_30
REMARK    4  A    between atoms: O_3  and  C_4
REMARK    5  A    between atoms: C_7  and  S_8
REMARK    6  A    between atoms: S_8  and  C_9
REMARK    7  A    between atoms: C_13  and  C_14
REMARK    8  A    between atoms: C_18  and  C_19
REMARK    9  A    between atoms: C_22  and  C_23
REMARK                            x       y       z     vdW  Elec       q    Type
REMARK                         _______ _______ _______ _____ _____    ______ ____
ROOT
ATOM      1  C   UNL     1       2.388   5.626  19.330  0.00  0.00    +0.000 A 
ATOM      2  C   UNL     1       1.684   5.431  20.523  0.00  0.00    +0.000 A 
ATOM      3  C   UNL     1       1.165   6.517  21.231  0.00  0.00    +0.000 A 
ATOM      4  C   UNL     1       1.358   7.811  20.749  0.00  0.00    +0.000 A 
ATOM      5  C   UNL     1       2.104   8.032  19.590  0.00  0.00    +0.000 A 
ATOM      6  C   UNL     1       2.657   6.943  18.895  0.00  0.00    +0.000 A 
ENDROOT
BRANCH   6   7
ATOM      7  C   UNL     1       3.642   7.267  17.812  0.00  0.00    +0.000 C 
ATOM      8  O   UNL     1       3.234   7.808  16.790  0.00  0.00    +0.000 OA
ATOM      9  N   UNL     1       4.977   7.010  18.047  0.00  0.00    +0.000 N 
ATOM     10  C   UNL     1       6.079   7.445  17.189  0.00  0.00    +0.000 C 
ATOM     11  C   UNL     1       6.545   5.983  17.117  0.00  0.00    +0.000 C 
ATOM     12  C   UNL     1       5.539   5.670  18.239  0.00  0.00    +0.000 C 
BRANCH  11  13
ATOM     13  C   UNL     1       6.383   5.181  15.752  0.00  0.00    +0.000 A 
ATOM     14  C   UNL     1       5.203   4.473  15.453  0.00  0.00    +0.000 A 
ATOM     15  C   UNL     1       5.040   3.777  14.251  0.00  0.00    +0.000 A 
ATOM     16  C   UNL     1       6.064   3.765  13.295  0.00  0.00    +0.000 A 
ATOM     17  C   UNL     1       7.244   4.462  13.570  0.00  0.00    +0.000 A 
ATOM     18  C   UNL     1       7.393   5.156  14.771  0.00  0.00    +0.000 A 
BRANCH  16  19
ATOM     19  C   UNL     1       5.921   3.024  11.992  0.00  0.00    +0.000 C 
ATOM     20  F   UNL     1       4.966   3.544  11.170  0.00  0.00    +0.000 F 
ATOM     21  F   UNL     1       7.073   3.021  11.267  0.00  0.00    +0.000 F 
ATOM     22  F   UNL     1       5.587   1.717  12.171  0.00  0.00    +0.000 F 
ENDBRANCH  16  19
ENDBRANCH  11  13
ENDBRANCH   6   7
BRANCH   4  23
ATOM     23  S   UNL     1       0.624   9.183  21.608  0.00  0.00    +0.000 S 
ATOM     24  C   UNL     1       0.422  10.410  20.346  0.00  0.00    +0.000 C 
ATOM     25  O   UNL     1      -0.688   8.757  22.056  0.00  0.00    +0.000 OA
ATOM     26  O   UNL     1       1.608   9.671  22.556  0.00  0.00    +0.000 OA
ENDBRANCH   4  23
BRANCH   1  27
ATOM     27  O   UNL     1       2.884   4.588  18.596  0.00  0.00    +0.000 OA
BRANCH  27  29
ATOM     28  C   UNL     1       1.350   2.673  18.253  0.00  0.00    +0.000 C 
ATOM     29  C   UNL     1       2.602   3.220  18.951  0.00  0.00    +0.000 C 
BRANCH  29  30
ATOM     30  C   UNL     1       3.828   2.353  18.576  0.00  0.00    +0.000 C 
ATOM     31  F   UNL     1       4.160   2.465  17.270  0.00  0.00    +0.000 F 
ATOM     32  F   UNL     1       4.933   2.671  19.288  0.00  0.00    +0.000 F 
ATOM     33  F   UNL     1       3.569   1.042  18.810  0.00  0.00    +0.000 F 
ENDBRANCH  29  30
ENDBRANCH  27  29
ENDBRANCH   1  27
TORSDOF 7
ENDMDL
MODEL 6
REMARK VINA RESULT:      -8.0      0.663      1.475
REMARK  Name = 
REMARK  9 active torsions:
REMARK  status: ('A' for Active; 'I' for Inactive)
REMARK    1  A    between atoms: C_1  and  C_2
REMARK    2  A    between atoms: C_2  and  O_3
REMARK    3  A    between atoms: C_2  and  C_30
REMARK    4  A    between atoms: O_3  and  C_4
REMARK    5  A    between atoms: C_7  and  S_8
REMARK    6  A    between atoms: S_8  and  C_9
REMARK    7  A    between atoms: C_13  and  C_14
REMARK    8  A    between atoms: C_18  and  C_19
REMARK    9  A    between atoms: C_22  and  C_23
REMARK                            x       y       z     vdW  Elec       q    Type
REMARK                         _______ _______ _______ _____ _____    ______ ____
ROOT
ATOM      1  C   UNL     1       2.591   5.628  19.258  0.00  0.00    +0.000 A 
ATOM      2  C   UNL     1       1.904   5.450  20.464  0.00  0.00    +0.000 A 
ATOM      3  C   UNL     1       1.384   6.545  21.158  0.00  0.00    +0.000 A 
ATOM      4  C   UNL     1       1.557   7.831  20.647  0.00  0.00    +0.000 A 
ATOM      5  C   UNL     1       2.285   8.036  19.474  0.00  0.00    +0.000 A 
ATOM      6  C   UNL     1       2.840   6.938  18.793  0.00  0.00    +0.000 A 
ENDROOT
BRANCH   6   7
ATOM      7  C   UNL     1       3.807   7.251  17.690  0.00  0.00    +0.000 C 
ATOM      8  O   UNL     1       3.381   7.779  16.668  0.00  0.00    +0.000 OA
ATOM      9  N   UNL     1       5.145   6.999  17.907  0.00  0.00    +0.000 N 
ATOM     10  C   UNL     1       6.233   7.425  17.025  0.00  0.00    +0.000 C 
ATOM     11  C   UNL     1       6.700   5.962  16.965  0.00  0.00    +0.000 C 
ATOM     12  C   UNL     1       5.713   5.661  18.106  0.00  0.00    +0.000 C 
BRANCH  11  13
ATOM     13  C   UNL     1       6.518   5.143  15.612  0.00  0.00    +0.000 A 
ATOM     14  C   UNL     1       5.395   4.319  15.400  0.00  0.00    +0.000 A 
ATOM     15  C   UNL     1       5.214   3.606  14.210  0.00  0.00    +0.000 A 
ATOM     16  C   UNL     1       6.159   3.693  13.181  0.00  0.00    +0.000 A 
ATOM     17  C   UNL     1       7.280   4.506  13.369  0.00  0.00    +0.000 A 
ATOM     18  C   UNL     1       7.449   5.215  14.558  0.00  0.00    +0.000 A 
BRANCH  16  19
ATOM     19  C   UNL     1       5.993   2.937  11.889  0.00  0.00    +0.000 C 
ATOM     20  F   UNL     1       5.082   3.495  11.042  0.00  0.00    +0.000 F 
ATOM     21  F   UNL     1       7.155   2.854  11.184  0.00  0.00    +0.000 F 
ATOM     22  F   UNL     1       5.583   1.654  12.087  0.00  0.00    +0.000 F 
ENDBRANCH  16  19
ENDBRANCH  11  13
ENDBRANCH   6   7
BRANCH   4  23
ATOM     23  S   UNL     1       0.820   9.212  21.489  0.00  0.00    +0.000 S 
ATOM     24  C   UNL     1      -0.694   8.554  22.133  0.00  0.00    +0.000 C 
ATOM     25  O   UNL     1       1.689   9.552  22.599  0.00  0.00    +0.000 OA
ATOM     26  O   UNL     1       0.487  10.200  20.479  0.00  0.00    +0.000 OA
ENDBRANCH   4  23
BRANCH   1  27
ATOM     27  O   UNL     1       3.086   4.581  18.538  0.00  0.00    +0.000 OA
BRANCH  27  29
ATOM     28  C   UNL     1       2.317   2.451  17.533  0.00  0.00    +0.000 C 
ATOM     29  C   UNL     1       2.674   3.226  18.808  0.00  0.00    +0.000 C 
BRANCH  29  30
ATOM     30  C   UNL     1       3.822   2.503  19.553  0.00  0.00    +0.000 C 
ATOM     31  F   UNL     1       3.580   2.375  20.877  0.00  0.00    +0.000 F 
ATOM     32  F   UNL     1       4.053   1.259  19.077  0.00  0.00    +0.000 F 
ATOM     33  F   UNL     1       4.980   3.199  19.426  0.00  0.00    +0.000 F 
ENDBRANCH  29  30
ENDBRANCH  27  29
ENDBRANCH   1  27
TORSDOF 7
ENDMDL
MODEL 7
REMARK VINA RESULT:      -8.0      3.073      4.682
REMARK  Name = 
REMARK  9 active torsions:
REMARK  status: ('A' for Active; 'I' for Inactive)
REMARK    1  A    between atoms: C_1  and  C_2
REMARK    2  A    between atoms: C_2  and  O_3
REMARK    3  A    between atoms: C_2  and  C_30
REMARK    4  A    between atoms: O_3  and  C_4
REMARK    5  A    between atoms: C_7  and  S_8
REMARK    6  A    between atoms: S_8  and  C_9
REMARK    7  A    between atoms: C_13  and  C_14
REMARK    8  A    between atoms: C_18  and  C_19
REMARK    9  A    between atoms: C_22  and  C_23
REMARK                            x       y       z     vdW  Elec       q    Type
REMARK                         _______ _______ _______ _____ _____    ______ ____
ROOT
ATOM      1  C   UNL     1       2.276   7.062  19.799  0.00  0.00    +0.000 A 
ATOM      2  C   UNL     1       1.339   6.449  20.637  0.00  0.00    +0.000 A 
ATOM      3  C   UNL     1       1.428   5.086  20.931  0.00  0.00    +0.000 A 
ATOM      4  C   UNL     1       2.458   4.327  20.378  0.00  0.00    +0.000 A 
ATOM      5  C   UNL     1       3.372   4.906  19.495  0.00  0.00    +0.000 A 
ATOM      6  C   UNL     1       3.262   6.270  19.170  0.00  0.00    +0.000 A 
ENDROOT
BRANCH   6   7
ATOM      7  C   UNL     1       4.115   6.761  18.039  0.00  0.00    +0.000 C 
ATOM      8  O   UNL     1       3.573   7.334  17.100  0.00  0.00    +0.000 OA
ATOM      9  N   UNL     1       5.482   6.611  18.142  0.00  0.00    +0.000 N 
ATOM     10  C   UNL     1       6.463   7.206  17.233  0.00  0.00    +0.000 C 
ATOM     11  C   UNL     1       7.044   5.802  17.007  0.00  0.00    +0.000 C 
ATOM     12  C   UNL     1       6.172   5.318  18.180  0.00  0.00    +0.000 C 
BRANCH  11  13
ATOM     13  C   UNL     1       6.830   5.089  15.600  0.00  0.00    +0.000 A 
ATOM     14  C   UNL     1       7.611   5.433  14.479  0.00  0.00    +0.000 A 
ATOM     15  C   UNL     1       7.445   4.806  13.240  0.00  0.00    +0.000 A 
ATOM     16  C   UNL     1       6.483   3.801  13.078  0.00  0.00    +0.000 A 
ATOM     17  C   UNL     1       5.698   3.443  14.177  0.00  0.00    +0.000 A 
ATOM     18  C   UNL     1       5.875   4.073  15.409  0.00  0.00    +0.000 A 
BRANCH  16  19
ATOM     19  C   UNL     1       6.278   3.107  11.757  0.00  0.00    +0.000 C 
ATOM     20  F   UNL     1       6.045   3.963  10.721  0.00  0.00    +0.000 F 
ATOM     21  F   UNL     1       7.357   2.363  11.389  0.00  0.00    +0.000 F 
ATOM     22  F   UNL     1       5.221   2.250  11.778  0.00  0.00    +0.000 F 
ENDBRANCH  16  19
ENDBRANCH  11  13
ENDBRANCH   6   7
BRANCH   4  23
ATOM     23  S   UNL     1       2.618   2.613  20.822  0.00  0.00    +0.000 S 
ATOM     24  C   UNL     1       1.741   1.762  19.538  0.00  0.00    +0.000 C 
ATOM     25  O   UNL     1       4.024   2.273  20.728  0.00  0.00    +0.000 OA
ATOM     26  O   UNL     1       1.891   2.423  22.064  0.00  0.00    +0.000 OA
ENDBRANCH   4  23
BRANCH   1  27
ATOM     27  O   UNL     1       2.238   8.395  19.512  0.00  0.00    +0.000 OA
BRANCH  27  29
ATOM     28  C   UNL     1       0.918  10.085  20.752  0.00  0.00    +0.000 C 
ATOM     29  C   UNL     1       1.000   9.133  19.552  0.00  0.00    +0.000 C 
BRANCH  29  30
ATOM     30  C   UNL     1       0.867   9.939  18.238  0.00  0.00    +0.000 C 
ATOM     31  F   UNL     1       1.886   9.703  17.380  0.00  0.00    +0.000 F 
ATOM     32  F   UNL     1      -0.276   9.666  17.569  0.00  0.00    +0.000 F 
ATOM     33  F   UNL     1       0.867  11.271  18.498  0.00  0.00    +0.000 F 
ENDBRANCH  29  30
ENDBRANCH  27  29
ENDBRANCH   1  27
TORSDOF 7
ENDMDL
MODEL 8
REMARK VINA RESULT:      -7.9      5.831      9.154
REMARK  Name = 
REMARK  9 active torsions:
REMARK  status: ('A' for Active; 'I' for Inactive)
REMARK    1  A    between atoms: C_1  and  C_2
REMARK    2  A    between atoms: C_2  and  O_3
REMARK    3  A    between atoms: C_2  and  C_30
REMARK    4  A    between atoms: O_3  and  C_4
REMARK    5  A    between atoms: C_7  and  S_8
REMARK    6  A    between atoms: S_8  and  C_9
REMARK    7  A    between atoms: C_13  and  C_14
REMARK    8  A    between atoms: C_18  and  C_19
REMARK    9  A    between atoms: C_22  and  C_23
REMARK                            x       y       z     vdW  Elec       q    Type
REMARK                         _______ _______ _______ _____ _____    ______ ____
ROOT
ATOM      1  C   UNL     1      -4.280  12.190  19.205  0.00  0.00    +0.000 A 
ATOM      2  C   UNL     1      -5.646  11.970  19.416  0.00  0.00    +0.000 A 
ATOM      3  C   UNL     1      -6.230  12.244  20.655  0.00  0.00    +0.000 A 
ATOM      4  C   UNL     1      -5.443  12.735  21.696  0.00  0.00    +0.000 A 
ATOM      5  C   UNL     1      -4.068  12.911  21.524  0.00  0.00    +0.000 A 
ATOM      6  C   UNL     1      -3.472  12.601  20.289  0.00  0.00    +0.000 A 
ENDROOT
BRANCH   6   7
ATOM      7  C   UNL     1      -1.973  12.578  20.253  0.00  0.00    +0.000 C 
ATOM      8  O   UNL     1      -1.404  12.945  19.230  0.00  0.00    +0.000 OA
ATOM      9  N   UNL     1      -1.301  12.216  21.402  0.00  0.00    +0.000 N 
ATOM     10  C   UNL     1       0.145  12.332  21.599  0.00  0.00    +0.000 C 
ATOM     11  C   UNL     1       0.172  10.841  21.968  0.00  0.00    +0.000 C 
ATOM     12  C   UNL     1      -1.366  10.886  22.013  0.00  0.00    +0.000 C 
BRANCH  11  13
ATOM     13  C   UNL     1       0.839   9.804  20.962  0.00  0.00    +0.000 A 
ATOM     14  C   UNL     1       1.263   8.532  21.395  0.00  0.00    +0.000 A 
ATOM     15  C   UNL     1       1.837   7.604  20.519  0.00  0.00    +0.000 A 
ATOM     16  C   UNL     1       2.009   7.920  19.166  0.00  0.00    +0.000 A 
ATOM     17  C   UNL     1       1.595   9.176  18.714  0.00  0.00    +0.000 A 
ATOM     18  C   UNL     1       1.021  10.092  19.595  0.00  0.00    +0.000 A 
BRANCH  16  19
ATOM     19  C   UNL     1       2.626   6.944  18.198  0.00  0.00    +0.000 C 
ATOM     20  F   UNL     1       3.320   7.542  17.189  0.00  0.00    +0.000 F 
ATOM     21  F   UNL     1       3.503   6.097  18.803  0.00  0.00    +0.000 F 
ATOM     22  F   UNL     1       1.697   6.153  17.594  0.00  0.00    +0.000 F 
ENDBRANCH  16  19
ENDBRANCH  11  13
ENDBRANCH   6   7
BRANCH   4  23
ATOM     23  S   UNL     1      -6.206  13.163  23.243  0.00  0.00    +0.000 S 
ATOM     24  C   UNL     1      -7.917  12.774  22.990  0.00  0.00    +0.000 C 
ATOM     25  O   UNL     1      -5.670  12.266  24.249  0.00  0.00    +0.000 OA
ATOM     26  O   UNL     1      -6.090  14.601  23.395  0.00  0.00    +0.000 OA
ENDBRANCH   4  23
BRANCH   1  27
ATOM     27  O   UNL     1      -3.681  11.962  18.001  0.00  0.00    +0.000 OA
BRANCH  27  29
ATOM     28  C   UNL     1      -3.997  11.182  15.671  0.00  0.00    +0.000 C 
ATOM     29  C   UNL     1      -4.075  10.854  17.168  0.00  0.00    +0.000 C 
BRANCH  29  30
ATOM     30  C   UNL     1      -3.157   9.650  17.486  0.00  0.00    +0.000 C 
ATOM     31  F   UNL     1      -2.078  10.001  18.221  0.00  0.00    +0.000 F 
ATOM     32  F   UNL     1      -3.792   8.671  18.169  0.00  0.00    +0.000 F 
ATOM     33  F   UNL     1      -2.692   9.095  16.338  0.00  0.00    +0.000 F 
ENDBRANCH  29  30
ENDBRANCH  27  29
ENDBRANCH   1  27
TORSDOF 7
ENDMDL
MODEL 9
REMARK VINA RESULT:      -7.8      5.829      9.227
REMARK  Name = 
REMARK  9 active torsions:
REMARK  status: ('A' for Active; 'I' for Inactive)
REMARK    1  A    between atoms: C_1  and  C_2
REMARK    2  A    between atoms: C_2  and  O_3
REMARK    3  A    between atoms: C_2  and  C_30
REMARK    4  A    between atoms: O_3  and  C_4
REMARK    5  A    between atoms: C_7  and  S_8
REMARK    6  A    between atoms: S_8  and  C_9
REMARK    7  A    between atoms: C_13  and  C_14
REMARK    8  A    between atoms: C_18  and  C_19
REMARK    9  A    between atoms: C_22  and  C_23
REMARK                            x       y       z     vdW  Elec       q    Type
REMARK                         _______ _______ _______ _____ _____    ______ ____
ROOT
ATOM      1  C   UNL     1      -4.436  12.229  19.399  0.00  0.00    +0.000 A 
ATOM      2  C   UNL     1      -5.792  11.954  19.607  0.00  0.00    +0.000 A 
ATOM      3  C   UNL     1      -6.373  12.137  20.864  0.00  0.00    +0.000 A 
ATOM      4  C   UNL     1      -5.592  12.593  21.925  0.00  0.00    +0.000 A 
ATOM      5  C   UNL     1      -4.226  12.822  21.754  0.00  0.00    +0.000 A 
ATOM      6  C   UNL     1      -3.632  12.603  20.498  0.00  0.00    +0.000 A 
ENDROOT
BRANCH   6   7
ATOM      7  C   UNL     1      -2.133  12.631  20.451  0.00  0.00    +0.000 C 
ATOM      8  O   UNL     1      -1.585  13.055  19.438  0.00  0.00    +0.000 OA
ATOM      9  N   UNL     1      -1.439  12.248  21.579  0.00  0.00    +0.000 N 
ATOM     10  C   UNL     1       0.004  12.403  21.769  0.00  0.00    +0.000 C 
ATOM     11  C   UNL     1       0.082  10.900  22.080  0.00  0.00    +0.000 C 
ATOM     12  C   UNL     1      -1.456  10.893  22.139  0.00  0.00    +0.000 C 
BRANCH  11  13
ATOM     13  C   UNL     1       0.774   9.925  21.029  0.00  0.00    +0.000 A 
ATOM     14  C   UNL     1       1.231   8.646  21.406  0.00  0.00    +0.000 A 
ATOM     15  C   UNL     1       1.827   7.773  20.491  0.00  0.00    +0.000 A 
ATOM     16  C   UNL     1       1.988   8.151  19.152  0.00  0.00    +0.000 A 
ATOM     17  C   UNL     1       1.542   9.415  18.755  0.00  0.00    +0.000 A 
ATOM     18  C   UNL     1       0.946  10.276  19.677  0.00  0.00    +0.000 A 
BRANCH  16  19
ATOM     19  C   UNL     1       2.628   7.235  18.143  0.00  0.00    +0.000 C 
ATOM     20  F   UNL     1       3.149   7.887  17.066  0.00  0.00    +0.000 F 
ATOM     21  F   UNL     1       3.653   6.513  18.673  0.00  0.00    +0.000 F 
ATOM     22  F   UNL     1       1.750   6.324  17.639  0.00  0.00    +0.000 F 
ENDBRANCH  16  19
ENDBRANCH  11  13
ENDBRANCH   6   7
BRANCH   4  23
ATOM     23  S   UNL     1      -6.354  12.906  23.500  0.00  0.00    +0.000 S 
ATOM     24  C   UNL     1      -5.041  12.645  24.662  0.00  0.00    +0.000 C 
ATOM     25  O   UNL     1      -6.726  14.307  23.527  0.00  0.00    +0.000 OA
ATOM     26  O   UNL     1      -7.350  11.870  23.708  0.00  0.00    +0.000 OA
ENDBRANCH   4  23
BRANCH   1  27
ATOM     27  O   UNL     1      -3.841  12.090  18.179  0.00  0.00    +0.000 OA
BRANCH  27  29
ATOM     28  C   UNL     1      -4.279  10.916  16.042  0.00  0.00    +0.000 C 
ATOM     29  C   UNL     1      -3.814  10.818  17.502  0.00  0.00    +0.000 C 
BRANCH  29  30
ATOM     30  C   UNL     1      -2.369  10.266  17.552  0.00  0.00    +0.000 C 
ATOM     31  F   UNL     1      -1.442  11.216  17.297  0.00  0.00    +0.000 F 
ATOM     32  F   UNL     1      -2.056   9.727  18.753  0.00  0.00    +0.000 F 
ATOM     33  F   UNL     1      -2.204   9.290  16.624  0.00  0.00    +0.000 F 
ENDBRANCH  29  30
ENDBRANCH  27  29
ENDBRANCH   1  27
TORSDOF 7
ENDMDL
