MODEL 1
REMARK VINA RESULT:      -5.9      0.000      0.000
REMARK  Name = 
REMARK  5 active torsions:
REMARK  status: ('A' for Active; 'I' for Inactive)
REMARK    1  A    between atoms: N_1  and  S_2
REMARK    2  A    between atoms: S_2  and  C_5
REMARK    3  A    between atoms: C_7  and  N_8
REMARK    4  A    between atoms: C_11  and  N_12
REMARK    5  A    between atoms: C_18  and  N_19
REMARK                            x       y       z     vdW  Elec       q    Type
REMARK                         _______ _______ _______ _____ _____    ______ ____
ROOT
ATOM      1  C   UNL     1       2.235   8.147  18.582  0.00  0.00    +0.000 A 
ATOM      2  C   UNL     1       1.716   7.239  19.491  0.00  0.00    +0.000 A 
ATOM      3  C   UNL     1       2.264   5.934  19.547  0.00  0.00    +0.000 A 
ATOM      4  C   UNL     1       3.305   5.455  18.700  0.00  0.00    +0.000 A 
ATOM      5  C   UNL     1       3.799   6.468  17.830  0.00  0.00    +0.000 A 
ATOM      6  C   UNL     1       3.279   7.778  17.754  0.00  0.00    +0.000 A 
ENDROOT
BRANCH   4   7
ATOM      7  N   UNL     1       3.687   4.117  18.637  0.00  0.00    +0.000 N 
ATOM      8  C   UNL     1       3.349   3.234  17.489  0.00  0.00    +0.000 C 
ATOM      9  C   UNL     1       3.099   1.799  17.978  0.00  0.00    +0.000 C 
ATOM     10  O   UNL     1       4.208   1.286  18.730  0.00  0.00    +0.000 OA
ATOM     11  C   UNL     1       4.500   2.141  19.848  0.00  0.00    +0.000 C 
ATOM     12  C   UNL     1       4.857   3.561  19.368  0.00  0.00    +0.000 C 
ENDBRANCH   4   7
BRANCH   1  13
ATOM     13  S   UNL     1       1.606   9.794  18.476  0.00  0.00    +0.000 S 
ATOM     14  O   UNL     1       2.489  10.582  17.655  0.00  0.00    +0.000 OA
ATOM     15  O   UNL     1       1.168  10.205  19.788  0.00  0.00    +0.000 OA
BRANCH  13  16
ATOM     16  N   UNL     1       0.216   9.523  17.579  0.00  0.00    +0.000 NA
ATOM     17  H   UNL     1       0.442   9.506  16.582  0.00  0.00    +0.000 HD
ATOM     18  H   UNL     1      -0.512  10.196  17.821  0.00  0.00    +0.000 HD
ENDBRANCH  13  16
ENDBRANCH   1  13
BRANCH   3  19
ATOM     19  N   UNL     1       1.630   5.101  20.551  0.00  0.00    +0.000 N 
ATOM     20  O   UNL     1       2.264   4.886  21.592  0.00  0.00    +0.000 OA
ATOM     21  O   UNL     1       0.556   4.573  20.237  0.00  0.00    +0.000 OA
ENDBRANCH   3  19
BRANCH   5  22
ATOM     22  N   UNL     1       4.968   6.270  16.992  0.00  0.00    +0.000 N 
ATOM     23  O   UNL     1       4.766   5.909  15.820  0.00  0.00    +0.000 OA
ATOM     24  O   UNL     1       6.074   6.423  17.522  0.00  0.00    +0.000 OA
ENDBRANCH   5  22
TORSDOF 5
ENDMDL
MODEL 2
REMARK VINA RESULT:      -5.9      1.759      2.192
REMARK  Name = 
REMARK  5 active torsions:
REMARK  status: ('A' for Active; 'I' for Inactive)
REMARK    1  A    between atoms: N_1  and  S_2
REMARK    2  A    between atoms: S_2  and  C_5
REMARK    3  A    between atoms: C_7  and  N_8
REMARK    4  A    between atoms: C_11  and  N_12
REMARK    5  A    between atoms: C_18  and  N_19
REMARK                            x       y       z     vdW  Elec       q    Type
REMARK                         _______ _______ _______ _____ _____    ______ ____
ROOT
ATOM      1  C   UNL     1       1.583   7.415  20.528  0.00  0.00    +0.000 A 
ATOM      2  C   UNL     1       1.295   6.183  21.095  0.00  0.00    +0.000 A 
ATOM      3  C   UNL     1       1.928   5.026  20.580  0.00  0.00    +0.000 A 
ATOM      4  C   UNL     1       2.830   5.018  19.476  0.00  0.00    +0.000 A 
ATOM      5  C   UNL     1       3.093   6.329  18.988  0.00  0.00    +0.000 A 
ATOM      6  C   UNL     1       2.484   7.503  19.483  0.00  0.00    +0.000 A 
ENDROOT
BRANCH   4   7
ATOM      7  N   UNL     1       3.281   3.851  18.864  0.00  0.00    +0.000 N 
ATOM      8  C   UNL     1       2.960   3.504  17.454  0.00  0.00    +0.000 C 
ATOM      9  C   UNL     1       2.800   1.983  17.305  0.00  0.00    +0.000 C 
ATOM     10  O   UNL     1       3.955   1.272  17.774  0.00  0.00    +0.000 OA
ATOM     11  C   UNL     1       4.231   1.604  19.145  0.00  0.00    +0.000 C 
ATOM     12  C   UNL     1       4.499   3.114  19.295  0.00  0.00    +0.000 C 
ENDBRANCH   4   7
BRANCH   1  13
ATOM     13  S   UNL     1       0.839   8.896  21.137  0.00  0.00    +0.000 S 
ATOM     14  O   UNL     1      -0.456   8.581  21.684  0.00  0.00    +0.000 OA
ATOM     15  O   UNL     1       1.056   9.950  20.176  0.00  0.00    +0.000 OA
BRANCH  13  16
ATOM     16  N   UNL     1       1.850   9.225  22.434  0.00  0.00    +0.000 NA
ATOM     17  H   UNL     1       2.823   9.061  22.168  0.00  0.00    +0.000 HD
ATOM     18  H   UNL     1       1.560   8.707  23.263  0.00  0.00    +0.000 HD
ENDBRANCH  13  16
ENDBRANCH   1  13
BRANCH   3  19
ATOM     19  N   UNL     1       1.540   3.815  21.278  0.00  0.00    +0.000 N 
ATOM     20  O   UNL     1       2.226   3.478  22.252  0.00  0.00    +0.000 OA
ATOM     21  O   UNL     1       0.627   3.151  20.772  0.00  0.00    +0.000 OA
ENDBRANCH   3  19
BRANCH   5  22
ATOM     22  N   UNL     1       4.104   6.595  17.980  0.00  0.00    +0.000 N 
ATOM     23  O   UNL     1       5.268   6.248  18.244  0.00  0.00    +0.000 OA
ATOM     24  O   UNL     1       3.740   7.194  16.962  0.00  0.00    +0.000 OA
ENDBRANCH   5  22
TORSDOF 5
ENDMDL
MODEL 3
REMARK VINA RESULT:      -5.8      2.007      3.961
REMARK  Name = 
REMARK  5 active torsions:
REMARK  status: ('A' for Active; 'I' for Inactive)
REMARK    1  A    between atoms: N_1  and  S_2
REMARK    2  A    between atoms: S_2  and  C_5
REMARK    3  A    between atoms: C_7  and  N_8
REMARK    4  A    between atoms: C_11  and  N_12
REMARK    5  A    between atoms: C_18  and  N_19
REMARK                            x       y       z     vdW  Elec       q    Type
REMARK                         _______ _______ _______ _____ _____    ______ ____
ROOT
ATOM      1  C   UNL     1       1.144   7.945  20.840  0.00  0.00    +0.000 A 
ATOM      2  C   UNL     1       1.799   8.344  19.686  0.00  0.00    +0.000 A 
ATOM      3  C   UNL     1       2.490   7.374  18.919  0.00  0.00    +0.000 A 
ATOM      4  C   UNL     1       2.599   5.995  19.265  0.00  0.00    +0.000 A 
ATOM      5  C   UNL     1       1.863   5.675  20.440  0.00  0.00    +0.000 A 
ATOM      6  C   UNL     1       1.161   6.617  21.224  0.00  0.00    +0.000 A 
ENDROOT
BRANCH   4   7
ATOM      7  N   UNL     1       3.445   5.105  18.606  0.00  0.00    +0.000 N 
ATOM      8  C   UNL     1       4.709   4.600  19.206  0.00  0.00    +0.000 C 
ATOM      9  C   UNL     1       5.773   4.402  18.115  0.00  0.00    +0.000 C 
ATOM     10  O   UNL     1       5.310   3.546  17.060  0.00  0.00    +0.000 OA
ATOM     11  C   UNL     1       4.102   4.068  16.480  0.00  0.00    +0.000 C 
ATOM     12  C   UNL     1       2.990   4.173  17.541  0.00  0.00    +0.000 C 
ENDBRANCH   4   7
BRANCH   1  13
ATOM     13  S   UNL     1       0.252   9.105  21.830  0.00  0.00    +0.000 S 
ATOM     14  O   UNL     1       1.190   9.901  22.581  0.00  0.00    +0.000 OA
ATOM     15  O   UNL     1      -0.871   8.429  22.432  0.00  0.00    +0.000 OA
BRANCH  13  16
ATOM     16  N   UNL     1      -0.379  10.094  20.632  0.00  0.00    +0.000 NA
ATOM     17  H   UNL     1       0.325  10.258  19.908  0.00  0.00    +0.000 HD
ATOM     18  H   UNL     1      -0.761  10.952  21.031  0.00  0.00    +0.000 HD
ENDBRANCH  13  16
ENDBRANCH   1  13
BRANCH   3  19
ATOM     19  N   UNL     1       3.115   7.933  17.736  0.00  0.00    +0.000 N 
ATOM     20  O   UNL     1       4.256   7.541  17.458  0.00  0.00    +0.000 OA
ATOM     21  O   UNL     1       2.505   8.846  17.165  0.00  0.00    +0.000 OA
ENDBRANCH   3  19
BRANCH   5  22
ATOM     22  N   UNL     1       1.685   4.309  20.899  0.00  0.00    +0.000 N 
ATOM     23  O   UNL     1       0.790   3.643  20.351  0.00  0.00    +0.000 OA
ATOM     24  O   UNL     1       2.400   3.931  21.834  0.00  0.00    +0.000 OA
ENDBRANCH   5  22
TORSDOF 5
ENDMDL
MODEL 4
REMARK VINA RESULT:      -5.8      2.116      4.124
REMARK  Name = 
REMARK  5 active torsions:
REMARK  status: ('A' for Active; 'I' for Inactive)
REMARK    1  A    between atoms: N_1  and  S_2
REMARK    2  A    between atoms: S_2  and  C_5
REMARK    3  A    between atoms: C_7  and  N_8
REMARK    4  A    between atoms: C_11  and  N_12
REMARK    5  A    between atoms: C_18  and  N_19
REMARK                            x       y       z     vdW  Elec       q    Type
REMARK                         _______ _______ _______ _____ _____    ______ ____
ROOT
ATOM      1  C   UNL     1       1.118   7.996  20.795  0.00  0.00    +0.000 A 
ATOM      2  C   UNL     1       1.788   8.382  19.644  0.00  0.00    +0.000 A 
ATOM      3  C   UNL     1       2.487   7.404  18.896  0.00  0.00    +0.000 A 
ATOM      4  C   UNL     1       2.593   6.029  19.257  0.00  0.00    +0.000 A 
ATOM      5  C   UNL     1       1.843   5.722  20.427  0.00  0.00    +0.000 A 
ATOM      6  C   UNL     1       1.131   6.672  21.192  0.00  0.00    +0.000 A 
ENDROOT
BRANCH   4   7
ATOM      7  N   UNL     1       3.447   5.132  18.619  0.00  0.00    +0.000 N 
ATOM      8  C   UNL     1       4.716   4.655  19.227  0.00  0.00    +0.000 C 
ATOM      9  C   UNL     1       5.780   4.441  18.139  0.00  0.00    +0.000 C 
ATOM     10  O   UNL     1       5.324   3.556  17.107  0.00  0.00    +0.000 OA
ATOM     11  C   UNL     1       4.110   4.051  16.516  0.00  0.00    +0.000 C 
ATOM     12  C   UNL     1       2.998   4.170  17.577  0.00  0.00    +0.000 C 
ENDBRANCH   4   7
BRANCH   1  13
ATOM     13  S   UNL     1       0.215   9.166  21.761  0.00  0.00    +0.000 S 
ATOM     14  O   UNL     1      -0.804   8.472  22.507  0.00  0.00    +0.000 OA
ATOM     15  O   UNL     1      -0.052  10.327  20.947  0.00  0.00    +0.000 OA
BRANCH  13  16
ATOM     16  N   UNL     1       1.399   9.621  22.858  0.00  0.00    +0.000 NA
ATOM     17  H   UNL     1       1.544  10.632  22.815  0.00  0.00    +0.000 HD
ATOM     18  H   UNL     1       2.252   9.079  22.721  0.00  0.00    +0.000 HD
ENDBRANCH  13  16
ENDBRANCH   1  13
BRANCH   3  19
ATOM     19  N   UNL     1       3.126   7.951  17.714  0.00  0.00    +0.000 N 
ATOM     20  O   UNL     1       4.258   7.532  17.437  0.00  0.00    +0.000 OA
ATOM     21  O   UNL     1       2.539   8.880  17.145  0.00  0.00    +0.000 OA
ENDBRANCH   3  19
BRANCH   5  22
ATOM     22  N   UNL     1       1.659   4.360  20.898  0.00  0.00    +0.000 N 
ATOM     23  O   UNL     1       2.434   3.962  21.785  0.00  0.00    +0.000 OA
ATOM     24  O   UNL     1       0.784   3.686  20.344  0.00  0.00    +0.000 OA
ENDBRANCH   5  22
TORSDOF 5
ENDMDL
MODEL 5
REMARK VINA RESULT:      -5.7      0.769      1.138
REMARK  Name = 
REMARK  5 active torsions:
REMARK  status: ('A' for Active; 'I' for Inactive)
REMARK    1  A    between atoms: N_1  and  S_2
REMARK    2  A    between atoms: S_2  and  C_5
REMARK    3  A    between atoms: C_7  and  N_8
REMARK    4  A    between atoms: C_11  and  N_12
REMARK    5  A    between atoms: C_18  and  N_19
REMARK                            x       y       z     vdW  Elec       q    Type
REMARK                         _______ _______ _______ _____ _____    ______ ____
ROOT
ATOM      1  C   UNL     1       2.147   8.079  18.551  0.00  0.00    +0.000 A 
ATOM      2  C   UNL     1       1.645   7.164  19.463  0.00  0.00    +0.000 A 
ATOM      3  C   UNL     1       2.241   5.882  19.549  0.00  0.00    +0.000 A 
ATOM      4  C   UNL     1       3.317   5.432  18.729  0.00  0.00    +0.000 A 
ATOM      5  C   UNL     1       3.789   6.451  17.854  0.00  0.00    +0.000 A 
ATOM      6  C   UNL     1       3.221   7.739  17.748  0.00  0.00    +0.000 A 
ENDROOT
BRANCH   4   7
ATOM      7  N   UNL     1       3.752   4.109  18.694  0.00  0.00    +0.000 N 
ATOM      8  C   UNL     1       3.521   3.215  17.528  0.00  0.00    +0.000 C 
ATOM      9  C   UNL     1       3.292   1.771  18.002  0.00  0.00    +0.000 C 
ATOM     10  O   UNL     1       4.369   1.299  18.825  0.00  0.00    +0.000 OA
ATOM     11  C   UNL     1       4.556   2.164  19.958  0.00  0.00    +0.000 C 
ATOM     12  C   UNL     1       4.891   3.596  19.499  0.00  0.00    +0.000 C 
ENDBRANCH   4   7
BRANCH   1  13
ATOM     13  S   UNL     1       1.457   9.698  18.409  0.00  0.00    +0.000 S 
ATOM     14  O   UNL     1       0.180   9.608  17.747  0.00  0.00    +0.000 OA
ATOM     15  O   UNL     1       2.499  10.608  17.997  0.00  0.00    +0.000 OA
BRANCH  13  16
ATOM     16  N   UNL     1       1.149  10.033  20.023  0.00  0.00    +0.000 NA
ATOM     17  H   UNL     1       0.740   9.213  20.476  0.00  0.00    +0.000 HD
ATOM     18  H   UNL     1       0.586  10.878  20.119  0.00  0.00    +0.000 HD
ENDBRANCH  13  16
ENDBRANCH   1  13
BRANCH   3  19
ATOM     19  N   UNL     1       1.621   5.040  20.553  0.00  0.00    +0.000 N 
ATOM     20  O   UNL     1       2.256   4.839  21.597  0.00  0.00    +0.000 OA
ATOM     21  O   UNL     1       0.558   4.490  20.237  0.00  0.00    +0.000 OA
ENDBRANCH   3  19
BRANCH   5  22
ATOM     22  N   UNL     1       4.981   6.287  17.041  0.00  0.00    +0.000 N 
ATOM     23  O   UNL     1       6.076   6.403  17.617  0.00  0.00    +0.000 OA
ATOM     24  O   UNL     1       4.816   6.099  15.831  0.00  0.00    +0.000 OA
ENDBRANCH   5  22
TORSDOF 5
ENDMDL
MODEL 6
REMARK VINA RESULT:      -5.5      2.608      4.535
REMARK  Name = 
REMARK  5 active torsions:
REMARK  status: ('A' for Active; 'I' for Inactive)
REMARK    1  A    between atoms: N_1  and  S_2
REMARK    2  A    between atoms: S_2  and  C_5
REMARK    3  A    between atoms: C_7  and  N_8
REMARK    4  A    between atoms: C_11  and  N_12
REMARK    5  A    between atoms: C_18  and  N_19
REMARK                            x       y       z     vdW  Elec       q    Type
REMARK                         _______ _______ _______ _____ _____    ______ ____
ROOT
ATOM      1  C   UNL     1       5.786   6.201  17.950  0.00  0.00    +0.000 A 
ATOM      2  C   UNL     1       4.639   6.948  18.163  0.00  0.00    +0.000 A 
ATOM      3  C   UNL     1       3.478   6.299  18.649  0.00  0.00    +0.000 A 
ATOM      4  C   UNL     1       3.379   4.901  18.908  0.00  0.00    +0.000 A 
ATOM      5  C   UNL     1       4.614   4.227  18.698  0.00  0.00    +0.000 A 
ATOM      6  C   UNL     1       5.790   4.844  18.220  0.00  0.00    +0.000 A 
ENDROOT
BRANCH   4   7
ATOM      7  N   UNL     1       2.176   4.257  19.192  0.00  0.00    +0.000 N 
ATOM      8  C   UNL     1       1.490   4.374  20.506  0.00  0.00    +0.000 C 
ATOM      9  C   UNL     1       0.787   3.053  20.858  0.00  0.00    +0.000 C 
ATOM     10  O   UNL     1      -0.116   2.633  19.826  0.00  0.00    +0.000 OA
ATOM     11  C   UNL     1       0.574   2.503  18.571  0.00  0.00    +0.000 C 
ATOM     12  C   UNL     1       1.197   3.848  18.151  0.00  0.00    +0.000 C 
ENDBRANCH   4   7
BRANCH   1  13
ATOM     13  S   UNL     1       7.270   6.955  17.360  0.00  0.00    +0.000 S 
ATOM     14  O   UNL     1       7.059   8.375  17.240  0.00  0.00    +0.000 OA
ATOM     15  O   UNL     1       7.809   6.143  16.297  0.00  0.00    +0.000 OA
BRANCH  13  16
ATOM     16  N   UNL     1       8.270   6.720  18.686  0.00  0.00    +0.000 NA
ATOM     17  H   UNL     1       8.252   5.737  18.966  0.00  0.00    +0.000 HD
ATOM     18  H   UNL     1       8.033   7.365  19.440  0.00  0.00    +0.000 HD
ENDBRANCH  13  16
ENDBRANCH   1  13
BRANCH   3  19
ATOM     19  N   UNL     1       2.362   7.207  18.835  0.00  0.00    +0.000 N 
ATOM     20  O   UNL     1       1.791   7.620  17.817  0.00  0.00    +0.000 OA
ATOM     21  O   UNL     1       2.146   7.592  19.992  0.00  0.00    +0.000 OA
ENDBRANCH   3  19
BRANCH   5  22
ATOM     22  N   UNL     1       4.809   2.832  19.053  0.00  0.00    +0.000 N 
ATOM     23  O   UNL     1       4.495   1.984  18.200  0.00  0.00    +0.000 OA
ATOM     24  O   UNL     1       5.221   2.594  20.194  0.00  0.00    +0.000 OA
ENDBRANCH   5  22
TORSDOF 5
ENDMDL
MODEL 7
REMARK VINA RESULT:      -5.4      2.639      4.530
REMARK  Name = 
REMARK  5 active torsions:
REMARK  status: ('A' for Active; 'I' for Inactive)
REMARK    1  A    between atoms: N_1  and  S_2
REMARK    2  A    between atoms: S_2  and  C_5
REMARK    3  A    between atoms: C_7  and  N_8
REMARK    4  A    between atoms: C_11  and  N_12
REMARK    5  A    between atoms: C_18  and  N_19
REMARK                            x       y       z     vdW  Elec       q    Type
REMARK                         _______ _______ _______ _____ _____    ______ ____
ROOT
ATOM      1  C   UNL     1       5.879   5.909  18.042  0.00  0.00    +0.000 A 
ATOM      2  C   UNL     1       4.754   6.700  18.214  0.00  0.00    +0.000 A 
ATOM      3  C   UNL     1       3.563   6.105  18.697  0.00  0.00    +0.000 A 
ATOM      4  C   UNL     1       3.412   4.718  18.992  0.00  0.00    +0.000 A 
ATOM      5  C   UNL     1       4.627   3.997  18.823  0.00  0.00    +0.000 A 
ATOM      6  C   UNL     1       5.831   4.562  18.349  0.00  0.00    +0.000 A 
ENDROOT
BRANCH   4   7
ATOM      7  N   UNL     1       2.183   4.124  19.272  0.00  0.00    +0.000 N 
ATOM      8  C   UNL     1       1.508   4.249  20.591  0.00  0.00    +0.000 C 
ATOM      9  C   UNL     1       0.750   2.955  20.925  0.00  0.00    +0.000 C 
ATOM     10  O   UNL     1      -0.176   2.592  19.891  0.00  0.00    +0.000 OA
ATOM     11  C   UNL     1       0.503   2.452  18.631  0.00  0.00    +0.000 C 
ATOM     12  C   UNL     1       1.182   3.775  18.229  0.00  0.00    +0.000 C 
ENDBRANCH   4   7
BRANCH   1  13
ATOM     13  S   UNL     1       7.397   6.597  17.459  0.00  0.00    +0.000 S 
ATOM     14  O   UNL     1       7.719   6.010  16.183  0.00  0.00    +0.000 OA
ATOM     15  O   UNL     1       8.328   6.657  18.560  0.00  0.00    +0.000 OA
BRANCH  13  16
ATOM     16  N   UNL     1       6.914   8.175  17.163  0.00  0.00    +0.000 NA
ATOM     17  H   UNL     1       6.063   8.179  16.597  0.00  0.00    +0.000 HD
ATOM     18  H   UNL     1       7.677   8.720  16.760  0.00  0.00    +0.000 HD
ENDBRANCH  13  16
ENDBRANCH   1  13
BRANCH   3  19
ATOM     19  N   UNL     1       2.476   7.055  18.838  0.00  0.00    +0.000 N 
ATOM     20  O   UNL     1       2.189   7.423  19.984  0.00  0.00    +0.000 OA
ATOM     21  O   UNL     1       1.843   7.331  17.811  0.00  0.00    +0.000 OA
ENDBRANCH   3  19
BRANCH   5  22
ATOM     22  N   UNL     1       4.769   2.607  19.220  0.00  0.00    +0.000 N 
ATOM     23  O   UNL     1       4.366   1.749  18.417  0.00  0.00    +0.000 OA
ATOM     24  O   UNL     1       5.227   2.387  20.347  0.00  0.00    +0.000 OA
ENDBRANCH   5  22
TORSDOF 5
ENDMDL
MODEL 8
REMARK VINA RESULT:      -5.4      2.615      4.642
REMARK  Name = 
REMARK  5 active torsions:
REMARK  status: ('A' for Active; 'I' for Inactive)
REMARK    1  A    between atoms: N_1  and  S_2
REMARK    2  A    between atoms: S_2  and  C_5
REMARK    3  A    between atoms: C_7  and  N_8
REMARK    4  A    between atoms: C_11  and  N_12
REMARK    5  A    between atoms: C_18  and  N_19
REMARK                            x       y       z     vdW  Elec       q    Type
REMARK                         _______ _______ _______ _____ _____    ______ ____
ROOT
ATOM      1  C   UNL     1       5.851   6.257  17.952  0.00  0.00    +0.000 A 
ATOM      2  C   UNL     1       5.847   4.882  18.126  0.00  0.00    +0.000 A 
ATOM      3  C   UNL     1       4.669   4.253  18.595  0.00  0.00    +0.000 A 
ATOM      4  C   UNL     1       3.469   4.938  18.947  0.00  0.00    +0.000 A 
ATOM      5  C   UNL     1       3.556   6.336  18.698  0.00  0.00    +0.000 A 
ATOM      6  C   UNL     1       4.713   6.993  18.226  0.00  0.00    +0.000 A 
ENDROOT
BRANCH   4   7
ATOM      7  N   UNL     1       2.397   4.324  19.592  0.00  0.00    +0.000 N 
ATOM      8  C   UNL     1       2.149   4.461  21.051  0.00  0.00    +0.000 C 
ATOM      9  C   UNL     1       1.559   3.158  21.615  0.00  0.00    +0.000 C 
ATOM     10  O   UNL     1       0.374   2.756  20.913  0.00  0.00    +0.000 OA
ATOM     11  C   UNL     1       0.645   2.606  19.508  0.00  0.00    +0.000 C 
ATOM     12  C   UNL     1       1.137   3.935  18.904  0.00  0.00    +0.000 C 
ENDBRANCH   4   7
BRANCH   1  13
ATOM     13  S   UNL     1       7.285   7.097  17.354  0.00  0.00    +0.000 S 
ATOM     14  O   UNL     1       6.995   8.505  17.251  0.00  0.00    +0.000 OA
ATOM     15  O   UNL     1       7.855   6.326  16.277  0.00  0.00    +0.000 OA
BRANCH  13  16
ATOM     16  N   UNL     1       8.311   6.904  18.666  0.00  0.00    +0.000 NA
ATOM     17  H   UNL     1       7.784   6.996  19.537  0.00  0.00    +0.000 HD
ATOM     18  H   UNL     1       9.108   7.538  18.602  0.00  0.00    +0.000 HD
ENDBRANCH  13  16
ENDBRANCH   1  13
BRANCH   3  19
ATOM     19  N   UNL     1       4.809   2.814  18.716  0.00  0.00    +0.000 N 
ATOM     20  O   UNL     1       4.372   2.122  17.788  0.00  0.00    +0.000 OA
ATOM     21  O   UNL     1       5.248   2.387  19.792  0.00  0.00    +0.000 OA
ENDBRANCH   3  19
BRANCH   5  22
ATOM     22  N   UNL     1       2.410   7.220  18.819  0.00  0.00    +0.000 N 
ATOM     23  O   UNL     1       1.835   7.544  17.765  0.00  0.00    +0.000 OA
ATOM     24  O   UNL     1       2.129   7.626  19.952  0.00  0.00    +0.000 OA
ENDBRANCH   5  22
TORSDOF 5
ENDMDL
MODEL 9
REMARK VINA RESULT:      -5.4      2.696      4.885
REMARK  Name = 
REMARK  5 active torsions:
REMARK  status: ('A' for Active; 'I' for Inactive)
REMARK    1  A    between atoms: N_1  and  S_2
REMARK    2  A    between atoms: S_2  and  C_5
REMARK    3  A    between atoms: C_7  and  N_8
REMARK    4  A    between atoms: C_11  and  N_12
REMARK    5  A    between atoms: C_18  and  N_19
REMARK                            x       y       z     vdW  Elec       q    Type
REMARK                         _______ _______ _______ _____ _____    ______ ____
ROOT
ATOM      1  C   UNL     1       5.534   5.272  17.101  0.00  0.00    +0.000 A 
ATOM      2  C   UNL     1       5.433   3.939  17.465  0.00  0.00    +0.000 A 
ATOM      3  C   UNL     1       4.369   3.537  18.309  0.00  0.00    +0.000 A 
ATOM      4  C   UNL     1       3.391   4.417  18.857  0.00  0.00    +0.000 A 
ATOM      5  C   UNL     1       3.553   5.754  18.396  0.00  0.00    +0.000 A 
ATOM      6  C   UNL     1       4.599   6.186  17.551  0.00  0.00    +0.000 A 
ENDROOT
BRANCH   4   7
ATOM      7  N   UNL     1       2.479   4.035  19.838  0.00  0.00    +0.000 N 
ATOM      8  C   UNL     1       2.720   4.246  21.290  0.00  0.00    +0.000 C 
ATOM      9  C   UNL     1       2.111   3.093  22.103  0.00  0.00    +0.000 C 
ATOM     10  O   UNL     1       0.716   2.913  21.821  0.00  0.00    +0.000 OA
ATOM     11  C   UNL     1       0.510   2.686  20.416  0.00  0.00    +0.000 C 
ATOM     12  C   UNL     1       1.020   3.883  19.591  0.00  0.00    +0.000 C 
ENDBRANCH   4   7
BRANCH   1  13
ATOM     13  S   UNL     1       6.828   5.832  16.038  0.00  0.00    +0.000 S 
ATOM     14  O   UNL     1       7.524   6.920  16.678  0.00  0.00    +0.000 OA
ATOM     15  O   UNL     1       6.320   5.902  14.690  0.00  0.00    +0.000 OA
BRANCH  13  16
ATOM     16  N   UNL     1       7.849   4.503  16.089  0.00  0.00    +0.000 NA
ATOM     17  H   UNL     1       8.508   4.539  15.307  0.00  0.00    +0.000 HD
ATOM     18  H   UNL     1       7.316   3.634  16.134  0.00  0.00    +0.000 HD
ENDBRANCH  13  16
ENDBRANCH   1  13
BRANCH   3  19
ATOM     19  N   UNL     1       4.384   2.115  18.594  0.00  0.00    +0.000 N 
ATOM     20  O   UNL     1       3.752   1.376  17.828  0.00  0.00    +0.000 OA
ATOM     21  O   UNL     1       4.929   1.766  19.649  0.00  0.00    +0.000 OA
ENDBRANCH   3  19
BRANCH   5  22
ATOM     22  N   UNL     1       2.585   6.798  18.681  0.00  0.00    +0.000 N 
ATOM     23  O   UNL     1       1.903   7.209  17.727  0.00  0.00    +0.000 OA
ATOM     24  O   UNL     1       2.552   7.235  19.836  0.00  0.00    +0.000 OA
ENDBRANCH   5  22
TORSDOF 5
ENDMDL
