MODEL 1
REMARK VINA RESULT:      -8.9      0.000      0.000
REMARK  Name = 
REMARK  3 active torsions:
REMARK  status: ('A' for Active; 'I' for Inactive)
REMARK    1  A    between atoms: C_2  and  C_3
REMARK    2  A    between atoms: C_3  and  N_4
REMARK    3  A    between atoms: N_18  and  C_19
REMARK                            x       y       z     vdW  Elec       q    Type
REMARK                         _______ _______ _______ _____ _____    ______ ____
ROOT
ATOM      1  C   UNL     1       2.621   8.081  19.547  0.00  0.00    +0.000 C 
ENDROOT
BRANCH   1   2
ATOM      2  N   UNL     1       2.324   6.664  19.568  0.00  0.00    +0.000 N 
ATOM      3  N   UNL     1       1.525   6.234  20.579  0.00  0.00    +0.000 NA
ATOM      4  C   UNL     1       1.421   4.920  20.385  0.00  0.00    +0.000 A 
ATOM      5  C   UNL     1       2.208   4.494  19.311  0.00  0.00    +0.000 A 
ATOM      6  C   UNL     1       2.448   3.172  18.791  0.00  0.00    +0.000 A 
ATOM      7  O   UNL     1       1.915   2.167  19.246  0.00  0.00    +0.000 OA
ATOM      8  O   UNL     1       3.361   3.109  17.723  0.00  0.00    +0.000 OA
ATOM      9  C   UNL     1       3.989   4.267  17.177  0.00  0.00    +0.000 A 
ATOM     10  C   UNL     1       4.878   4.029  16.131  0.00  0.00    +0.000 A 
ATOM     11  C   UNL     1       5.519   5.109  15.536  0.00  0.00    +0.000 A 
ATOM     12  C   UNL     1       5.262   6.403  15.991  0.00  0.00    +0.000 A 
ATOM     13  C   UNL     1       4.374   6.632  17.054  0.00  0.00    +0.000 A 
ATOM     14  C   UNL     1       3.723   5.563  17.668  0.00  0.00    +0.000 A 
ATOM     15  C   UNL     1       2.793   5.634  18.789  0.00  0.00    +0.000 A 
ENDBRANCH   1   2
BRANCH   1  17
ATOM     16  O   UNL     1       1.848   8.969  17.491  0.00  0.00    +0.000 OA
ATOM     17  C   UNL     1       1.653   8.882  18.703  0.00  0.00    +0.000 C 
ATOM     18  N   UNL     1       0.569   9.420  19.384  0.00  0.00    +0.000 N 
ATOM     19  H   UNL     1       0.587   9.372  20.402  0.00  0.00    +0.000 HD
BRANCH  18  20
ATOM     20  C   UNL     1      -0.523  10.120  18.824  0.00  0.00    +0.000 A 
ATOM     21  C   UNL     1      -1.062  11.272  19.398  0.00  0.00    +0.000 A 
ATOM     22  C   UNL     1      -2.145  11.946  18.819  0.00  0.00    +0.000 A 
ATOM     23  C   UNL     1      -2.680  11.420  17.641  0.00  0.00    +0.000 A 
ATOM     24  N   UNL     1      -3.739  11.852  16.877  0.00  0.00    +0.000 N 
ATOM     25  C   UNL     1      -3.909  11.030  15.796  0.00  0.00    +0.000 A 
ATOM     26  C   UNL     1      -2.949  10.046  15.862  0.00  0.00    +0.000 A 
ATOM     27  C   UNL     1      -2.163  10.281  17.025  0.00  0.00    +0.000 A 
ATOM     28  C   UNL     1      -1.059   9.631  17.620  0.00  0.00    +0.000 A 
ATOM     29  H   UNL     1      -4.308  12.660  17.094  0.00  0.00    +0.000 HD
ENDBRANCH  18  20
ENDBRANCH   1  17
TORSDOF 3
ENDMDL
MODEL 2
REMARK VINA RESULT:      -8.9      1.303      1.409
REMARK  Name = 
REMARK  3 active torsions:
REMARK  status: ('A' for Active; 'I' for Inactive)
REMARK    1  A    between atoms: C_2  and  C_3
REMARK    2  A    between atoms: C_3  and  N_4
REMARK    3  A    between atoms: N_18  and  C_19
REMARK                            x       y       z     vdW  Elec       q    Type
REMARK                         _______ _______ _______ _____ _____    ______ ____
ROOT
ATOM      1  C   UNL     1       2.552   8.949  17.897  0.00  0.00    +0.000 C 
ENDROOT
BRANCH   1   2
ATOM      2  N   UNL     1       2.469   7.750  18.705  0.00  0.00    +0.000 N 
ATOM      3  N   UNL     1       1.761   7.854  19.859  0.00  0.00    +0.000 NA
ATOM      4  C   UNL     1       1.849   6.645  20.414  0.00  0.00    +0.000 A 
ATOM      5  C   UNL     1       2.671   5.795  19.668  0.00  0.00    +0.000 A 
ATOM      6  C   UNL     1       3.093   4.441  19.919  0.00  0.00    +0.000 A 
ATOM      7  O   UNL     1       2.724   3.795  20.892  0.00  0.00    +0.000 OA
ATOM      8  O   UNL     1       3.986   3.910  18.971  0.00  0.00    +0.000 OA
ATOM      9  C   UNL     1       4.425   4.645  17.830  0.00  0.00    +0.000 A 
ATOM     10  C   UNL     1       5.320   3.978  16.996  0.00  0.00    +0.000 A 
ATOM     11  C   UNL     1       5.782   4.622  15.856  0.00  0.00    +0.000 A 
ATOM     12  C   UNL     1       5.346   5.916  15.565  0.00  0.00    +0.000 A 
ATOM     13  C   UNL     1       4.453   6.585  16.418  0.00  0.00    +0.000 A 
ATOM     14  C   UNL     1       3.979   5.959  17.570  0.00  0.00    +0.000 A 
ATOM     15  C   UNL     1       3.071   6.523  18.561  0.00  0.00    +0.000 A 
ENDBRANCH   1   2
BRANCH   1  17
ATOM     16  O   UNL     1       1.794  11.097  18.549  0.00  0.00    +0.000 OA
ATOM     17  C   UNL     1       1.469   9.959  18.213  0.00  0.00    +0.000 C 
ATOM     18  N   UNL     1       0.166   9.512  18.039  0.00  0.00    +0.000 N 
ATOM     19  H   UNL     1       0.033   8.516  17.869  0.00  0.00    +0.000 HD
BRANCH  18  20
ATOM     20  C   UNL     1      -1.017  10.274  18.169  0.00  0.00    +0.000 A 
ATOM     21  C   UNL     1      -1.262  11.117  19.252  0.00  0.00    +0.000 A 
ATOM     22  C   UNL     1      -2.445  11.861  19.353  0.00  0.00    +0.000 A 
ATOM     23  C   UNL     1      -3.385  11.726  18.329  0.00  0.00    +0.000 A 
ATOM     24  N   UNL     1      -4.622  12.308  18.178  0.00  0.00    +0.000 N 
ATOM     25  C   UNL     1      -5.201  11.890  17.009  0.00  0.00    +0.000 A 
ATOM     26  C   UNL     1      -4.328  11.020  16.396  0.00  0.00    +0.000 A 
ATOM     27  C   UNL     1      -3.174  10.907  17.221  0.00  0.00    +0.000 A 
ATOM     28  C   UNL     1      -1.965  10.182  17.135  0.00  0.00    +0.000 A 
ATOM     29  H   UNL     1      -5.038  12.948  18.841  0.00  0.00    +0.000 HD
ENDBRANCH  18  20
ENDBRANCH   1  17
TORSDOF 3
ENDMDL
MODEL 3
REMARK VINA RESULT:      -8.5      1.631      2.252
REMARK  Name = 
REMARK  3 active torsions:
REMARK  status: ('A' for Active; 'I' for Inactive)
REMARK    1  A    between atoms: C_2  and  C_3
REMARK    2  A    between atoms: C_3  and  N_4
REMARK    3  A    between atoms: N_18  and  C_19
REMARK                            x       y       z     vdW  Elec       q    Type
REMARK                         _______ _______ _______ _____ _____    ______ ____
ROOT
ATOM      1  C   UNL     1       2.105   9.429  18.189  0.00  0.00    +0.000 C 
ENDROOT
BRANCH   1   2
ATOM      2  N   UNL     1       2.014   8.264  19.046  0.00  0.00    +0.000 N 
ATOM      3  N   UNL     1       1.264   8.406  20.170  0.00  0.00    +0.000 NA
ATOM      4  C   UNL     1       1.353   7.224  20.780  0.00  0.00    +0.000 A 
ATOM      5  C   UNL     1       2.214   6.357  20.100  0.00  0.00    +0.000 A 
ATOM      6  C   UNL     1       2.651   5.023  20.426  0.00  0.00    +0.000 A 
ATOM      7  O   UNL     1       2.258   4.413  21.413  0.00  0.00    +0.000 OA
ATOM      8  O   UNL     1       3.584   4.468  19.533  0.00  0.00    +0.000 OA
ATOM      9  C   UNL     1       4.051   5.160  18.377  0.00  0.00    +0.000 A 
ATOM     10  C   UNL     1       4.986   4.474  17.604  0.00  0.00    +0.000 A 
ATOM     11  C   UNL     1       5.477   5.076  16.453  0.00  0.00    +0.000 A 
ATOM     12  C   UNL     1       5.029   6.348  16.091  0.00  0.00    +0.000 A 
ATOM     13  C   UNL     1       4.096   7.037  16.883  0.00  0.00    +0.000 A 
ATOM     14  C   UNL     1       3.593   6.453  18.044  0.00  0.00    +0.000 A 
ATOM     15  C   UNL     1       2.640   7.044  18.977  0.00  0.00    +0.000 A 
ENDBRANCH   1   2
BRANCH   1  17
ATOM     16  O   UNL     1       0.941  11.448  18.613  0.00  0.00    +0.000 OA
ATOM     17  C   UNL     1       0.859  10.288  18.214  0.00  0.00    +0.000 C 
ATOM     18  N   UNL     1      -0.291   9.686  17.719  0.00  0.00    +0.000 N 
ATOM     19  H   UNL     1      -0.250   8.686  17.527  0.00  0.00    +0.000 HD
BRANCH  18  20
ATOM     20  C   UNL     1      -1.555  10.292  17.539  0.00  0.00    +0.000 A 
ATOM     21  C   UNL     1      -2.233  10.286  16.320  0.00  0.00    +0.000 A 
ATOM     22  C   UNL     1      -3.487  10.894  16.172  0.00  0.00    +0.000 A 
ATOM     23  C   UNL     1      -4.040  11.519  17.292  0.00  0.00    +0.000 A 
ATOM     24  N   UNL     1      -5.226  12.203  17.432  0.00  0.00    +0.000 N 
ATOM     25  C   UNL     1      -5.366  12.647  18.720  0.00  0.00    +0.000 A 
ATOM     26  C   UNL     1      -4.252  12.250  19.424  0.00  0.00    +0.000 A 
ATOM     27  C   UNL     1      -3.404  11.535  18.532  0.00  0.00    +0.000 A 
ATOM     28  C   UNL     1      -2.149  10.899  18.659  0.00  0.00    +0.000 A 
ATOM     29  H   UNL     1      -5.890  12.354  16.685  0.00  0.00    +0.000 HD
ENDBRANCH  18  20
ENDBRANCH   1  17
TORSDOF 3
ENDMDL
MODEL 4
REMARK VINA RESULT:      -8.5      1.061      2.923
REMARK  Name = 
REMARK  3 active torsions:
REMARK  status: ('A' for Active; 'I' for Inactive)
REMARK    1  A    between atoms: C_2  and  C_3
REMARK    2  A    between atoms: C_3  and  N_4
REMARK    3  A    between atoms: N_18  and  C_19
REMARK                            x       y       z     vdW  Elec       q    Type
REMARK                         _______ _______ _______ _____ _____    ______ ____
ROOT
ATOM      1  C   UNL     1       2.700   7.922  19.179  0.00  0.00    +0.000 C 
ENDROOT
BRANCH   1   2
ATOM      2  N   UNL     1       3.440   7.021  18.319  0.00  0.00    +0.000 N 
ATOM      3  N   UNL     1       4.277   7.604  17.422  0.00  0.00    +0.000 NA
ATOM      4  C   UNL     1       4.814   6.582  16.756  0.00  0.00    +0.000 A 
ATOM      5  C   UNL     1       4.270   5.360  17.162  0.00  0.00    +0.000 A 
ATOM      6  C   UNL     1       4.503   4.023  16.678  0.00  0.00    +0.000 A 
ATOM      7  O   UNL     1       5.308   3.763  15.792  0.00  0.00    +0.000 OA
ATOM      8  O   UNL     1       3.721   3.025  17.287  0.00  0.00    +0.000 OA
ATOM      9  C   UNL     1       2.782   3.306  18.323  0.00  0.00    +0.000 A 
ATOM     10  C   UNL     1       2.079   2.206  18.810  0.00  0.00    +0.000 A 
ATOM     11  C   UNL     1       1.156   2.398  19.831  0.00  0.00    +0.000 A 
ATOM     12  C   UNL     1       0.952   3.677  20.350  0.00  0.00    +0.000 A 
ATOM     13  C   UNL     1       1.656   4.782  19.844  0.00  0.00    +0.000 A 
ATOM     14  C   UNL     1       2.584   4.614  18.817  0.00  0.00    +0.000 A 
ATOM     15  C   UNL     1       3.376   5.657  18.176  0.00  0.00    +0.000 A 
ENDBRANCH   1   2
BRANCH   1  17
ATOM     16  O   UNL     1       1.852   8.936  17.212  0.00  0.00    +0.000 OA
ATOM     17  C   UNL     1       1.716   8.793  18.427  0.00  0.00    +0.000 C 
ATOM     18  N   UNL     1       0.686   9.327  19.190  0.00  0.00    +0.000 N 
ATOM     19  H   UNL     1       0.754   9.227  20.202  0.00  0.00    +0.000 HD
BRANCH  18  20
ATOM     20  C   UNL     1      -0.410  10.088  18.723  0.00  0.00    +0.000 A 
ATOM     21  C   UNL     1      -0.791  11.301  19.295  0.00  0.00    +0.000 A 
ATOM     22  C   UNL     1      -1.882  12.033  18.809  0.00  0.00    +0.000 A 
ATOM     23  C   UNL     1      -2.589  11.502  17.728  0.00  0.00    +0.000 A 
ATOM     24  N   UNL     1      -3.697  11.984  17.070  0.00  0.00    +0.000 N 
ATOM     25  C   UNL     1      -4.052  11.132  16.058  0.00  0.00    +0.000 A 
ATOM     26  C   UNL     1      -3.166  10.080  16.064  0.00  0.00    +0.000 A 
ATOM     27  C   UNL     1      -2.234  10.301  17.117  0.00  0.00    +0.000 A 
ATOM     28  C   UNL     1      -1.118   9.592  17.614  0.00  0.00    +0.000 A 
ATOM     29  H   UNL     1      -4.175  12.843  17.308  0.00  0.00    +0.000 HD
ENDBRANCH  18  20
ENDBRANCH   1  17
TORSDOF 3
ENDMDL
MODEL 5
REMARK VINA RESULT:      -8.5      1.359      2.114
REMARK  Name = 
REMARK  3 active torsions:
REMARK  status: ('A' for Active; 'I' for Inactive)
REMARK    1  A    between atoms: C_2  and  C_3
REMARK    2  A    between atoms: C_3  and  N_4
REMARK    3  A    between atoms: N_18  and  C_19
REMARK                            x       y       z     vdW  Elec       q    Type
REMARK                         _______ _______ _______ _____ _____    ______ ____
ROOT
ATOM      1  C   UNL     1       2.653   8.969  17.791  0.00  0.00    +0.000 C 
ENDROOT
BRANCH   1   2
ATOM      2  N   UNL     1       2.581   7.758  18.582  0.00  0.00    +0.000 N 
ATOM      3  N   UNL     1       1.880   7.842  19.743  0.00  0.00    +0.000 NA
ATOM      4  C   UNL     1       1.978   6.626  20.279  0.00  0.00    +0.000 A 
ATOM      5  C   UNL     1       2.798   5.790  19.515  0.00  0.00    +0.000 A 
ATOM      6  C   UNL     1       3.229   4.435  19.744  0.00  0.00    +0.000 A 
ATOM      7  O   UNL     1       2.869   3.773  20.710  0.00  0.00    +0.000 OA
ATOM      8  O   UNL     1       4.118   3.922  18.783  0.00  0.00    +0.000 OA
ATOM      9  C   UNL     1       4.546   4.676  17.650  0.00  0.00    +0.000 A 
ATOM     10  C   UNL     1       5.439   4.026  16.800  0.00  0.00    +0.000 A 
ATOM     11  C   UNL     1       5.891   4.689  15.666  0.00  0.00    +0.000 A 
ATOM     12  C   UNL     1       5.446   5.984  15.398  0.00  0.00    +0.000 A 
ATOM     13  C   UNL     1       4.556   6.636  16.266  0.00  0.00    +0.000 A 
ATOM     14  C   UNL     1       4.092   5.991  17.412  0.00  0.00    +0.000 A 
ATOM     15  C   UNL     1       3.187   6.537  18.416  0.00  0.00    +0.000 A 
ENDBRANCH   1   2
BRANCH   1  17
ATOM     16  O   UNL     1       1.861  11.105  18.443  0.00  0.00    +0.000 OA
ATOM     17  C   UNL     1       1.554   9.960  18.114  0.00  0.00    +0.000 C 
ATOM     18  N   UNL     1       0.258   9.488  17.954  0.00  0.00    +0.000 N 
ATOM     19  H   UNL     1       0.142   8.489  17.789  0.00  0.00    +0.000 HD
BRANCH  18  20
ATOM     20  C   UNL     1      -0.938  10.228  18.093  0.00  0.00    +0.000 A 
ATOM     21  C   UNL     1      -1.929  10.259  17.112  0.00  0.00    +0.000 A 
ATOM     22  C   UNL     1      -3.105  11.002  17.278  0.00  0.00    +0.000 A 
ATOM     23  C   UNL     1      -3.254  11.724  18.464  0.00  0.00    +0.000 A 
ATOM     24  N   UNL     1      -4.277  12.543  18.882  0.00  0.00    +0.000 N 
ATOM     25  C   UNL     1      -4.003  13.044  20.126  0.00  0.00    +0.000 A 
ATOM     26  C   UNL     1      -2.782  12.546  20.520  0.00  0.00    +0.000 A 
ATOM     27  C   UNL     1      -2.296  11.708  19.476  0.00  0.00    +0.000 A 
ATOM     28  C   UNL     1      -1.127  10.937  19.292  0.00  0.00    +0.000 A 
ATOM     29  H   UNL     1      -5.107  12.745  18.339  0.00  0.00    +0.000 HD
ENDBRANCH  18  20
ENDBRANCH   1  17
TORSDOF 3
ENDMDL
MODEL 6
REMARK VINA RESULT:      -8.5      2.844      4.362
REMARK  Name = 
REMARK  3 active torsions:
REMARK  status: ('A' for Active; 'I' for Inactive)
REMARK    1  A    between atoms: C_2  and  C_3
REMARK    2  A    between atoms: C_3  and  N_4
REMARK    3  A    between atoms: N_18  and  C_19
REMARK                            x       y       z     vdW  Elec       q    Type
REMARK                         _______ _______ _______ _____ _____    ______ ____
ROOT
ATOM      1  C   UNL     1       1.981   7.518  17.875  0.00  0.00    +0.000 C 
ENDROOT
BRANCH   1   2
ATOM      2  N   UNL     1       3.276   6.873  17.953  0.00  0.00    +0.000 N 
ATOM      3  N   UNL     1       4.268   7.430  17.211  0.00  0.00    +0.000 NA
ATOM      4  C   UNL     1       5.329   6.656  17.441  0.00  0.00    +0.000 A 
ATOM      5  C   UNL     1       5.006   5.568  18.256  0.00  0.00    +0.000 A 
ATOM      6  C   UNL     1       5.812   4.460  18.703  0.00  0.00    +0.000 A 
ATOM      7  O   UNL     1       6.999   4.341  18.426  0.00  0.00    +0.000 OA
ATOM      8  O   UNL     1       5.130   3.501  19.472  0.00  0.00    +0.000 OA
ATOM      9  C   UNL     1       3.749   3.622  19.809  0.00  0.00    +0.000 A 
ATOM     10  C   UNL     1       3.223   2.578  20.567  0.00  0.00    +0.000 A 
ATOM     11  C   UNL     1       1.888   2.631  20.947  0.00  0.00    +0.000 A 
ATOM     12  C   UNL     1       1.102   3.721  20.568  0.00  0.00    +0.000 A 
ATOM     13  C   UNL     1       1.638   4.763  19.794  0.00  0.00    +0.000 A 
ATOM     14  C   UNL     1       2.974   4.728  19.398  0.00  0.00    +0.000 A 
ATOM     15  C   UNL     1       3.669   5.716  18.581  0.00  0.00    +0.000 A 
ENDBRANCH   1   2
BRANCH   1  17
ATOM     16  O   UNL     1       2.083   8.112  20.166  0.00  0.00    +0.000 OA
ATOM     17  C   UNL     1       1.700   8.438  19.044  0.00  0.00    +0.000 C 
ATOM     18  N   UNL     1       1.062   9.630  18.725  0.00  0.00    +0.000 N 
ATOM     19  H   UNL     1       0.697   9.726  17.779  0.00  0.00    +0.000 HD
BRANCH  18  20
ATOM     20  C   UNL     1       0.773  10.699  19.604  0.00  0.00    +0.000 A 
ATOM     21  C   UNL     1       1.403  11.940  19.521  0.00  0.00    +0.000 A 
ATOM     22  C   UNL     1       1.094  12.982  20.406  0.00  0.00    +0.000 A 
ATOM     23  C   UNL     1       0.133  12.734  21.389  0.00  0.00    +0.000 A 
ATOM     24  N   UNL     1      -0.345  13.550  22.388  0.00  0.00    +0.000 N 
ATOM     25  C   UNL     1      -1.294  12.891  23.123  0.00  0.00    +0.000 A 
ATOM     26  C   UNL     1      -1.429  11.626  22.596  0.00  0.00    +0.000 A 
ATOM     27  C   UNL     1      -0.531  11.514  21.497  0.00  0.00    +0.000 A 
ATOM     28  C   UNL     1      -0.215  10.486  20.581  0.00  0.00    +0.000 A 
ATOM     29  H   UNL     1      -0.032  14.498  22.551  0.00  0.00    +0.000 HD
ENDBRANCH  18  20
ENDBRANCH   1  17
TORSDOF 3
ENDMDL
MODEL 7
REMARK VINA RESULT:      -8.4      2.900      4.566
REMARK  Name = 
REMARK  3 active torsions:
REMARK  status: ('A' for Active; 'I' for Inactive)
REMARK    1  A    between atoms: C_2  and  C_3
REMARK    2  A    between atoms: C_3  and  N_4
REMARK    3  A    between atoms: N_18  and  C_19
REMARK                            x       y       z     vdW  Elec       q    Type
REMARK                         _______ _______ _______ _____ _____    ______ ____
ROOT
ATOM      1  C   UNL     1       1.988   7.445  17.662  0.00  0.00    +0.000 C 
ENDROOT
BRANCH   1   2
ATOM      2  N   UNL     1       3.287   6.821  17.802  0.00  0.00    +0.000 N 
ATOM      3  N   UNL     1       4.292   7.359  17.062  0.00  0.00    +0.000 NA
ATOM      4  C   UNL     1       5.356   6.610  17.353  0.00  0.00    +0.000 A 
ATOM      5  C   UNL     1       5.025   5.553  18.206  0.00  0.00    +0.000 A 
ATOM      6  C   UNL     1       5.832   4.477  18.721  0.00  0.00    +0.000 A 
ATOM      7  O   UNL     1       7.028   4.362  18.481  0.00  0.00    +0.000 OA
ATOM      8  O   UNL     1       5.142   3.543  19.515  0.00  0.00    +0.000 OA
ATOM      9  C   UNL     1       3.751   3.660  19.810  0.00  0.00    +0.000 A 
ATOM     10  C   UNL     1       3.218   2.643  20.599  0.00  0.00    +0.000 A 
ATOM     11  C   UNL     1       1.873   2.695  20.942  0.00  0.00    +0.000 A 
ATOM     12  C   UNL     1       1.084   3.757  20.495  0.00  0.00    +0.000 A 
ATOM     13  C   UNL     1       1.627   4.771  19.690  0.00  0.00    +0.000 A 
ATOM     14  C   UNL     1       2.974   4.737  19.331  0.00  0.00    +0.000 A 
ATOM     15  C   UNL     1       3.678   5.698  18.490  0.00  0.00    +0.000 A 
ENDBRANCH   1   2
BRANCH   1  17
ATOM     16  O   UNL     1       1.893   8.563  19.749  0.00  0.00    +0.000 OA
ATOM     17  C   UNL     1       1.820   8.677  18.526  0.00  0.00    +0.000 C 
ATOM     18  N   UNL     1       1.646   9.870  17.837  0.00  0.00    +0.000 N 
ATOM     19  H   UNL     1       1.489   9.810  16.831  0.00  0.00    +0.000 HD
BRANCH  18  20
ATOM     20  C   UNL     1       1.564  11.167  18.393  0.00  0.00    +0.000 A 
ATOM     21  C   UNL     1       0.566  11.547  19.290  0.00  0.00    +0.000 A 
ATOM     22  C   UNL     1       0.512  12.840  19.825  0.00  0.00    +0.000 A 
ATOM     23  C   UNL     1       1.493  13.750  19.423  0.00  0.00    +0.000 A 
ATOM     24  N   UNL     1       1.671  15.071  19.764  0.00  0.00    +0.000 N 
ATOM     25  C   UNL     1       2.776  15.577  19.133  0.00  0.00    +0.000 A 
ATOM     26  C   UNL     1       3.319  14.570  18.366  0.00  0.00    +0.000 A 
ATOM     27  C   UNL     1       2.516  13.408  18.542  0.00  0.00    +0.000 A 
ATOM     28  C   UNL     1       2.559  12.091  18.030  0.00  0.00    +0.000 A 
ATOM     29  H   UNL     1       1.066  15.587  20.389  0.00  0.00    +0.000 HD
ENDBRANCH  18  20
ENDBRANCH   1  17
TORSDOF 3
ENDMDL
MODEL 8
REMARK VINA RESULT:      -8.3      2.750      8.288
REMARK  Name = 
REMARK  3 active torsions:
REMARK  status: ('A' for Active; 'I' for Inactive)
REMARK    1  A    between atoms: C_2  and  C_3
REMARK    2  A    between atoms: C_3  and  N_4
REMARK    3  A    between atoms: N_18  and  C_19
REMARK                            x       y       z     vdW  Elec       q    Type
REMARK                         _______ _______ _______ _____ _____    ______ ____
ROOT
ATOM      1  C   UNL     1       1.397  10.300  19.501  0.00  0.00    +0.000 C 
ENDROOT
BRANCH   1   2
ATOM      2  N   UNL     1       0.412  11.154  20.132  0.00  0.00    +0.000 N 
ATOM      3  N   UNL     1       0.763  11.687  21.332  0.00  0.00    +0.000 NA
ATOM      4  C   UNL     1      -0.299  12.403  21.701  0.00  0.00    +0.000 A 
ATOM      5  C   UNL     1      -1.352  12.270  20.791  0.00  0.00    +0.000 A 
ATOM      6  C   UNL     1      -2.689  12.806  20.819  0.00  0.00    +0.000 A 
ATOM      7  O   UNL     1      -3.096  13.542  21.710  0.00  0.00    +0.000 OA
ATOM      8  O   UNL     1      -3.512  12.408  19.751  0.00  0.00    +0.000 OA
ATOM      9  C   UNL     1      -3.056  11.556  18.703  0.00  0.00    +0.000 A 
ATOM     10  C   UNL     1      -4.002  11.246  17.727  0.00  0.00    +0.000 A 
ATOM     11  C   UNL     1      -3.630  10.433  16.665  0.00  0.00    +0.000 A 
ATOM     12  C   UNL     1      -2.324   9.944  16.590  0.00  0.00    +0.000 A 
ATOM     13  C   UNL     1      -1.381  10.251  17.584  0.00  0.00    +0.000 A 
ATOM     14  C   UNL     1      -1.734  11.063  18.661  0.00  0.00    +0.000 A 
ATOM     15  C   UNL     1      -0.881  11.454  19.777  0.00  0.00    +0.000 A 
ENDBRANCH   1   2
BRANCH   1  17
ATOM     16  O   UNL     1       0.450   8.534  20.766  0.00  0.00    +0.000 OA
ATOM     17  C   UNL     1       1.281   8.848  19.914  0.00  0.00    +0.000 C 
ATOM     18  N   UNL     1       2.111   7.966  19.235  0.00  0.00    +0.000 N 
ATOM     19  H   UNL     1       2.831   8.369  18.637  0.00  0.00    +0.000 HD
BRANCH  18  20
ATOM     20  C   UNL     1       2.133   6.558  19.356  0.00  0.00    +0.000 A 
ATOM     21  C   UNL     1       1.922   5.896  20.565  0.00  0.00    +0.000 A 
ATOM     22  C   UNL     1       1.949   4.498  20.654  0.00  0.00    +0.000 A 
ATOM     23  C   UNL     1       2.204   3.779  19.484  0.00  0.00    +0.000 A 
ATOM     24  N   UNL     1       2.309   2.423  19.281  0.00  0.00    +0.000 N 
ATOM     25  C   UNL     1       2.565   2.161  17.962  0.00  0.00    +0.000 A 
ATOM     26  C   UNL     1       2.633   3.366  17.300  0.00  0.00    +0.000 A 
ATOM     27  C   UNL     1       2.406   4.399  18.252  0.00  0.00    +0.000 A 
ATOM     28  C   UNL     1       2.355   5.810  18.187  0.00  0.00    +0.000 A 
ATOM     29  H   UNL     1       2.214   1.727  20.008  0.00  0.00    +0.000 HD
ENDBRANCH  18  20
ENDBRANCH   1  17
TORSDOF 3
ENDMDL
MODEL 9
REMARK VINA RESULT:      -8.3      3.045      3.693
REMARK  Name = 
REMARK  3 active torsions:
REMARK  status: ('A' for Active; 'I' for Inactive)
REMARK    1  A    between atoms: C_2  and  C_3
REMARK    2  A    between atoms: C_3  and  N_4
REMARK    3  A    between atoms: N_18  and  C_19
REMARK                            x       y       z     vdW  Elec       q    Type
REMARK                         _______ _______ _______ _____ _____    ______ ____
ROOT
ATOM      1  C   UNL     1       2.627   7.804  17.390  0.00  0.00    +0.000 C 
ENDROOT
BRANCH   1   2
ATOM      2  N   UNL     1       2.843   6.484  17.947  0.00  0.00    +0.000 N 
ATOM      3  N   UNL     1       1.726   5.791  18.290  0.00  0.00    +0.000 NA
ATOM      4  C   UNL     1       2.187   4.641  18.783  0.00  0.00    +0.000 A 
ATOM      5  C   UNL     1       3.584   4.626  18.833  0.00  0.00    +0.000 A 
ATOM      6  C   UNL     1       4.493   3.631  19.342  0.00  0.00    +0.000 A 
ATOM      7  O   UNL     1       4.121   2.560  19.806  0.00  0.00    +0.000 OA
ATOM      8  O   UNL     1       5.853   3.983  19.287  0.00  0.00    +0.000 OA
ATOM      9  C   UNL     1       6.307   5.223  18.747  0.00  0.00    +0.000 A 
ATOM     10  C   UNL     1       7.686   5.422  18.779  0.00  0.00    +0.000 A 
ATOM     11  C   UNL     1       8.206   6.600  18.258  0.00  0.00    +0.000 A 
ATOM     12  C   UNL     1       7.347   7.556  17.712  0.00  0.00    +0.000 A 
ATOM     13  C   UNL     1       5.958   7.352  17.696  0.00  0.00    +0.000 A 
ATOM     14  C   UNL     1       5.414   6.179  18.217  0.00  0.00    +0.000 A 
ATOM     15  C   UNL     1       4.000   5.829  18.290  0.00  0.00    +0.000 A 
ENDBRANCH   1   2
BRANCH   1  17
ATOM     16  O   UNL     1       0.824   9.323  17.619  0.00  0.00    +0.000 OA
ATOM     17  C   UNL     1       1.670   8.648  18.204  0.00  0.00    +0.000 C 
ATOM     18  N   UNL     1       1.801   8.539  19.582  0.00  0.00    +0.000 N 
ATOM     19  H   UNL     1       2.614   8.036  19.935  0.00  0.00    +0.000 HD
BRANCH  18  20
ATOM     20  C   UNL     1       0.978   9.137  20.563  0.00  0.00    +0.000 A 
ATOM     21  C   UNL     1       0.299   8.403  21.534  0.00  0.00    +0.000 A 
ATOM     22  C   UNL     1      -0.510   9.024  22.495  0.00  0.00    +0.000 A 
ATOM     23  C   UNL     1      -0.623  10.415  22.445  0.00  0.00    +0.000 A 
ATOM     24  N   UNL     1      -1.351  11.275  23.235  0.00  0.00    +0.000 N 
ATOM     25  C   UNL     1      -1.159  12.568  22.826  0.00  0.00    +0.000 A 
ATOM     26  C   UNL     1      -0.297  12.546  21.753  0.00  0.00    +0.000 A 
ATOM     27  C   UNL     1       0.050  11.189  21.502  0.00  0.00    +0.000 A 
ATOM     28  C   UNL     1       0.874  10.539  20.556  0.00  0.00    +0.000 A 
ATOM     29  H   UNL     1      -1.944  10.985  24.001  0.00  0.00    +0.000 HD
ENDBRANCH  18  20
ENDBRANCH   1  17
TORSDOF 3
ENDMDL
