MODEL 1
REMARK VINA RESULT:      -7.8      0.000      0.000
REMARK  Name = 
REMARK  11 active torsions:
REMARK  status: ('A' for Active; 'I' for Inactive)
REMARK    1  A    between atoms: C_1  and  C_2
REMARK    2  A    between atoms: C_6  and  C_7
REMARK    3  A    between atoms: C_8  and  O_9
REMARK    4  A    between atoms: O_9  and  C_10
REMARK    5  A    between atoms: C_10  and  C_11
REMARK    6  A    between atoms: C_11  and  O_12
REMARK    7  A    between atoms: C_11  and  C_13
REMARK    8  A    between atoms: C_13  and  N_14
REMARK    9  A    between atoms: N_14  and  C_15
REMARK   10  A    between atoms: C_15  and  C_16
REMARK   11  A    between atoms: C_15  and  C_17
REMARK                            x       y       z     vdW  Elec       q    Type
REMARK                         _______ _______ _______ _____ _____    ______ ____
ROOT
ATOM      1  C   UNL     1       6.706   5.339  19.003  0.00  0.00    +0.000 C 
ENDROOT
BRANCH   1   2
ATOM      2  O   UNL     1       7.598   5.550  20.105  0.00  0.00    +0.000 OA
ATOM      3  H   UNL     1       7.128   6.075  20.776  0.00  0.00    +0.000 HD
ENDBRANCH   1   2
BRANCH   1   4
ATOM      4  C   UNL     1       5.572   4.360  19.359  0.00  0.00    +0.000 C 
BRANCH   4   5
ATOM      5  O   UNL     1       4.350   4.657  18.706  0.00  0.00    +0.000 OA
BRANCH   5  13
ATOM      6  C   UNL     1       3.642   1.564  18.367  0.00  0.00    +0.000 C 
ATOM      7  C   UNL     1       2.840   2.662  19.022  0.00  0.00    +0.000 A 
ATOM      8  C   UNL     1       1.606   2.245  19.562  0.00  0.00    +0.000 A 
ATOM      9  C   UNL     1       0.740   3.129  20.194  0.00  0.00    +0.000 A 
ATOM     10  C   UNL     1       1.087   4.466  20.299  0.00  0.00    +0.000 A 
ATOM     11  C   UNL     1       2.307   4.926  19.776  0.00  0.00    +0.000 A 
ATOM     12  C   UNL     1       2.635   6.392  19.905  0.00  0.00    +0.000 C 
ATOM     13  C   UNL     1       3.200   4.029  19.137  0.00  0.00    +0.000 A 
ENDBRANCH   5  13
ENDBRANCH   4   5
ENDBRANCH   1   4
BRANCH   1  14
ATOM     14  C   UNL     1       7.520   4.753  17.822  0.00  0.00    +0.000 C 
BRANCH  14  15
ATOM     15  N   UNL     1       7.328   5.533  16.599  0.00  0.00    +0.000 NA
ATOM     16  H   UNL     1       8.103   5.347  15.959  0.00  0.00    +0.000 HD
BRANCH  15  17
ATOM     17  C   UNL     1       6.075   5.272  15.880  0.00  0.00    +0.000 C 
ATOM     18  C   UNL     1       5.154   6.498  15.815  0.00  0.00    +0.000 C 
BRANCH  17  19
ATOM     19  C   UNL     1       6.408   4.797  14.469  0.00  0.00    +0.000 A 
ATOM     20  C   UNL     1       7.496   5.349  13.779  0.00  0.00    +0.000 A 
ATOM     21  C   UNL     1       7.799   4.937  12.477  0.00  0.00    +0.000 A 
ATOM     22  C   UNL     1       7.016   3.969  11.850  0.00  0.00    +0.000 A 
ATOM     23  C   UNL     1       5.932   3.412  12.520  0.00  0.00    +0.000 A 
ATOM     24  C   UNL     1       5.627   3.823  13.820  0.00  0.00    +0.000 A 
ENDBRANCH  17  19
ENDBRANCH  15  17
ENDBRANCH  14  15
ENDBRANCH   1  14
TORSDOF 8
ENDMDL
MODEL 2
REMARK VINA RESULT:      -7.4      0.324      1.892
REMARK  Name = 
REMARK  11 active torsions:
REMARK  status: ('A' for Active; 'I' for Inactive)
REMARK    1  A    between atoms: C_1  and  C_2
REMARK    2  A    between atoms: C_6  and  C_7
REMARK    3  A    between atoms: C_8  and  O_9
REMARK    4  A    between atoms: O_9  and  C_10
REMARK    5  A    between atoms: C_10  and  C_11
REMARK    6  A    between atoms: C_11  and  O_12
REMARK    7  A    between atoms: C_11  and  C_13
REMARK    8  A    between atoms: C_13  and  N_14
REMARK    9  A    between atoms: N_14  and  C_15
REMARK   10  A    between atoms: C_15  and  C_16
REMARK   11  A    between atoms: C_15  and  C_17
REMARK                            x       y       z     vdW  Elec       q    Type
REMARK                         _______ _______ _______ _____ _____    ______ ____
ROOT
ATOM      1  C   UNL     1       6.372   5.122  18.754  0.00  0.00    +0.000 C 
ENDROOT
BRANCH   1   2
ATOM      2  O   UNL     1       6.990   5.482  19.997  0.00  0.00    +0.000 OA
ATOM      3  H   UNL     1       6.330   5.371  20.704  0.00  0.00    +0.000 HD
ENDBRANCH   1   2
BRANCH   1   4
ATOM      4  C   UNL     1       5.469   3.883  18.900  0.00  0.00    +0.000 C 
BRANCH   4   5
ATOM      5  O   UNL     1       4.218   4.022  18.248  0.00  0.00    +0.000 OA
BRANCH   5  13
ATOM      6  C   UNL     1       2.659   6.405  19.689  0.00  0.00    +0.000 C 
ATOM      7  C   UNL     1       2.330   4.933  19.649  0.00  0.00    +0.000 A 
ATOM      8  C   UNL     1       1.160   4.575  20.350  0.00  0.00    +0.000 A 
ATOM      9  C   UNL     1       0.715   3.261  20.422  0.00  0.00    +0.000 A 
ATOM     10  C   UNL     1       1.437   2.260  19.792  0.00  0.00    +0.000 A 
ATOM     11  C   UNL     1       2.610   2.571  19.083  0.00  0.00    +0.000 A 
ATOM     12  C   UNL     1       3.368   1.447  18.425  0.00  0.00    +0.000 C 
ATOM     13  C   UNL     1       3.066   3.911  18.998  0.00  0.00    +0.000 A 
ENDBRANCH   5  13
ENDBRANCH   4   5
ENDBRANCH   1   4
BRANCH   1  14
ATOM     14  C   UNL     1       7.488   4.809  17.727  0.00  0.00    +0.000 C 
BRANCH  14  15
ATOM     15  N   UNL     1       7.294   5.552  16.481  0.00  0.00    +0.000 NA
ATOM     16  H   UNL     1       8.063   5.339  15.842  0.00  0.00    +0.000 HD
BRANCH  15  17
ATOM     17  C   UNL     1       6.033   5.279  15.780  0.00  0.00    +0.000 C 
ATOM     18  C   UNL     1       5.119   6.509  15.690  0.00  0.00    +0.000 C 
BRANCH  17  19
ATOM     19  C   UNL     1       6.351   4.766  14.379  0.00  0.00    +0.000 A 
ATOM     20  C   UNL     1       7.474   5.245  13.691  0.00  0.00    +0.000 A 
ATOM     21  C   UNL     1       7.765   4.798  12.399  0.00  0.00    +0.000 A 
ATOM     22  C   UNL     1       6.935   3.866  11.779  0.00  0.00    +0.000 A 
ATOM     23  C   UNL     1       5.815   3.380  12.446  0.00  0.00    +0.000 A 
ATOM     24  C   UNL     1       5.523   3.827  13.737  0.00  0.00    +0.000 A 
ENDBRANCH  17  19
ENDBRANCH  15  17
ENDBRANCH  14  15
ENDBRANCH   1  14
TORSDOF 8
ENDMDL
MODEL 3
REMARK VINA RESULT:      -7.3      1.073      1.507
REMARK  Name = 
REMARK  11 active torsions:
REMARK  status: ('A' for Active; 'I' for Inactive)
REMARK    1  A    between atoms: C_1  and  C_2
REMARK    2  A    between atoms: C_6  and  C_7
REMARK    3  A    between atoms: C_8  and  O_9
REMARK    4  A    between atoms: O_9  and  C_10
REMARK    5  A    between atoms: C_10  and  C_11
REMARK    6  A    between atoms: C_11  and  O_12
REMARK    7  A    between atoms: C_11  and  C_13
REMARK    8  A    between atoms: C_13  and  N_14
REMARK    9  A    between atoms: N_14  and  C_15
REMARK   10  A    between atoms: C_15  and  C_16
REMARK   11  A    between atoms: C_15  and  C_17
REMARK                            x       y       z     vdW  Elec       q    Type
REMARK                         _______ _______ _______ _____ _____    ______ ____
ROOT
ATOM      1  C   UNL     1       7.377   5.297  18.628  0.00  0.00    +0.000 C 
ENDROOT
BRANCH   1   2
ATOM      2  O   UNL     1       7.568   4.049  17.949  0.00  0.00    +0.000 OA
ATOM      3  H   UNL     1       8.204   3.521  18.463  0.00  0.00    +0.000 HD
ENDBRANCH   1   2
BRANCH   1   4
ATOM      4  C   UNL     1       6.067   5.317  19.438  0.00  0.00    +0.000 C 
BRANCH   4   5
ATOM      5  O   UNL     1       4.960   4.790  18.725  0.00  0.00    +0.000 OA
BRANCH   5  13
ATOM      6  C   UNL     1       4.627   1.969  20.180  0.00  0.00    +0.000 C 
ATOM      7  C   UNL     1       3.663   3.128  20.108  0.00  0.00    +0.000 A 
ATOM      8  C   UNL     1       2.447   2.922  20.792  0.00  0.00    +0.000 A 
ATOM      9  C   UNL     1       1.445   3.884  20.822  0.00  0.00    +0.000 A 
ATOM     10  C   UNL     1       1.632   5.086  20.159  0.00  0.00    +0.000 A 
ATOM     11  C   UNL     1       2.828   5.335  19.466  0.00  0.00    +0.000 A 
ATOM     12  C   UNL     1       2.981   6.652  18.750  0.00  0.00    +0.000 C 
ATOM     13  C   UNL     1       3.860   4.361  19.437  0.00  0.00    +0.000 A 
ENDBRANCH   5  13
ENDBRANCH   4   5
ENDBRANCH   1   4
BRANCH   1  14
ATOM     14  C   UNL     1       7.326   6.426  17.568  0.00  0.00    +0.000 C 
BRANCH  14  15
ATOM     15  N   UNL     1       7.401   5.889  16.209  0.00  0.00    +0.000 NA
ATOM     16  H   UNL     1       8.066   5.113  16.193  0.00  0.00    +0.000 HD
BRANCH  15  17
ATOM     17  C   UNL     1       6.130   5.408  15.655  0.00  0.00    +0.000 C 
ATOM     18  C   UNL     1       5.055   6.500  15.583  0.00  0.00    +0.000 C 
BRANCH  17  19
ATOM     19  C   UNL     1       6.385   4.839  14.262  0.00  0.00    +0.000 A 
ATOM     20  C   UNL     1       5.537   3.854  13.738  0.00  0.00    +0.000 A 
ATOM     21  C   UNL     1       5.772   3.309  12.472  0.00  0.00    +0.000 A 
ATOM     22  C   UNL     1       6.859   3.743  11.715  0.00  0.00    +0.000 A 
ATOM     23  C   UNL     1       7.712   4.719  12.221  0.00  0.00    +0.000 A 
ATOM     24  C   UNL     1       7.479   5.263  13.486  0.00  0.00    +0.000 A 
ENDBRANCH  17  19
ENDBRANCH  15  17
ENDBRANCH  14  15
ENDBRANCH   1  14
TORSDOF 8
ENDMDL
MODEL 4
REMARK VINA RESULT:      -7.2      2.579      4.784
REMARK  Name = 
REMARK  11 active torsions:
REMARK  status: ('A' for Active; 'I' for Inactive)
REMARK    1  A    between atoms: C_1  and  C_2
REMARK    2  A    between atoms: C_6  and  C_7
REMARK    3  A    between atoms: C_8  and  O_9
REMARK    4  A    between atoms: O_9  and  C_10
REMARK    5  A    between atoms: C_10  and  C_11
REMARK    6  A    between atoms: C_11  and  O_12
REMARK    7  A    between atoms: C_11  and  C_13
REMARK    8  A    between atoms: C_13  and  N_14
REMARK    9  A    between atoms: N_14  and  C_15
REMARK   10  A    between atoms: C_15  and  C_16
REMARK   11  A    between atoms: C_15  and  C_17
REMARK                            x       y       z     vdW  Elec       q    Type
REMARK                         _______ _______ _______ _____ _____    ______ ____
ROOT
ATOM      1  C   UNL     1       2.064   4.040  21.051  0.00  0.00    +0.000 C 
ENDROOT
BRANCH   1   2
ATOM      2  O   UNL     1       0.924   3.235  21.380  0.00  0.00    +0.000 OA
ATOM      3  H   UNL     1       0.191   3.831  21.611  0.00  0.00    +0.000 HD
ENDBRANCH   1   2
BRANCH   1   4
ATOM      4  C   UNL     1       1.692   5.209  20.119  0.00  0.00    +0.000 C 
BRANCH   4   5
ATOM      5  O   UNL     1       2.328   6.427  20.468  0.00  0.00    +0.000 OA
BRANCH   5  13
ATOM      6  C   UNL     1       3.468   6.992  17.541  0.00  0.00    +0.000 C 
ATOM      7  C   UNL     1       2.555   7.841  18.393  0.00  0.00    +0.000 A 
ATOM      8  C   UNL     1       2.152   9.052  17.793  0.00  0.00    +0.000 A 
ATOM      9  C   UNL     1       1.318   9.955  18.441  0.00  0.00    +0.000 A 
ATOM     10  C   UNL     1       0.864   9.670  19.719  0.00  0.00    +0.000 A 
ATOM     11  C   UNL     1       1.240   8.475  20.355  0.00  0.00    +0.000 A 
ATOM     12  C   UNL     1       0.731   8.214  21.749  0.00  0.00    +0.000 C 
ATOM     13  C   UNL     1       2.085   7.544  19.697  0.00  0.00    +0.000 A 
ENDBRANCH   5  13
ENDBRANCH   4   5
ENDBRANCH   1   4
BRANCH   1  14
ATOM     14  C   UNL     1       3.105   3.143  20.337  0.00  0.00    +0.000 C 
BRANCH  14  15
ATOM     15  N   UNL     1       3.870   3.898  19.342  0.00  0.00    +0.000 NA
ATOM     16  H   UNL     1       4.810   4.069  19.705  0.00  0.00    +0.000 HD
BRANCH  15  17
ATOM     17  C   UNL     1       4.002   3.251  18.031  0.00  0.00    +0.000 C 
ATOM     18  C   UNL     1       2.696   3.257  17.226  0.00  0.00    +0.000 C 
BRANCH  17  19
ATOM     19  C   UNL     1       5.101   3.956  17.244  0.00  0.00    +0.000 A 
ATOM     20  C   UNL     1       5.033   4.023  15.845  0.00  0.00    +0.000 A 
ATOM     21  C   UNL     1       6.045   4.648  15.110  0.00  0.00    +0.000 A 
ATOM     22  C   UNL     1       7.138   5.213  15.765  0.00  0.00    +0.000 A 
ATOM     23  C   UNL     1       7.222   5.155  17.152  0.00  0.00    +0.000 A 
ATOM     24  C   UNL     1       6.213   4.529  17.888  0.00  0.00    +0.000 A 
ENDBRANCH  17  19
ENDBRANCH  15  17
ENDBRANCH  14  15
ENDBRANCH   1  14
TORSDOF 8
ENDMDL
MODEL 5
REMARK VINA RESULT:      -7.2      2.006      6.798
REMARK  Name = 
REMARK  11 active torsions:
REMARK  status: ('A' for Active; 'I' for Inactive)
REMARK    1  A    between atoms: C_1  and  C_2
REMARK    2  A    between atoms: C_6  and  C_7
REMARK    3  A    between atoms: C_8  and  O_9
REMARK    4  A    between atoms: O_9  and  C_10
REMARK    5  A    between atoms: C_10  and  C_11
REMARK    6  A    between atoms: C_11  and  O_12
REMARK    7  A    between atoms: C_11  and  C_13
REMARK    8  A    between atoms: C_13  and  N_14
REMARK    9  A    between atoms: N_14  and  C_15
REMARK   10  A    between atoms: C_15  and  C_16
REMARK   11  A    between atoms: C_15  and  C_17
REMARK                            x       y       z     vdW  Elec       q    Type
REMARK                         _______ _______ _______ _____ _____    ______ ____
ROOT
ATOM      1  C   UNL     1       6.887   6.735  17.473  0.00  0.00    +0.000 C 
ENDROOT
BRANCH   1   2
ATOM      2  O   UNL     1       7.507   7.921  16.957  0.00  0.00    +0.000 OA
ATOM      3  H   UNL     1       7.504   8.592  17.661  0.00  0.00    +0.000 HD
ENDBRANCH   1   2
BRANCH   1   4
ATOM      4  C   UNL     1       7.259   5.487  16.651  0.00  0.00    +0.000 C 
BRANCH   4   5
ATOM      5  O   UNL     1       7.514   5.772  15.285  0.00  0.00    +0.000 OA
BRANCH   5  13
ATOM      6  C   UNL     1       5.006   3.836  15.671  0.00  0.00    +0.000 C 
ATOM      7  C   UNL     1       5.841   4.086  14.439  0.00  0.00    +0.000 A 
ATOM      8  C   UNL     1       5.440   3.355  13.301  0.00  0.00    +0.000 A 
ATOM      9  C   UNL     1       6.103   3.460  12.085  0.00  0.00    +0.000 A 
ATOM     10  C   UNL     1       7.198   4.302  11.974  0.00  0.00    +0.000 A 
ATOM     11  C   UNL     1       7.633   5.049  13.082  0.00  0.00    +0.000 A 
ATOM     12  C   UNL     1       8.835   5.943  12.917  0.00  0.00    +0.000 C 
ATOM     13  C   UNL     1       6.956   4.955  14.325  0.00  0.00    +0.000 A 
ENDBRANCH   5  13
ENDBRANCH   4   5
ENDBRANCH   1   4
BRANCH   1  14
ATOM     14  C   UNL     1       5.351   6.926  17.423  0.00  0.00    +0.000 C 
BRANCH  14  15
ATOM     15  N   UNL     1       4.661   5.950  18.268  0.00  0.00    +0.000 NA
ATOM     16  H   UNL     1       5.289   5.658  19.020  0.00  0.00    +0.000 HD
BRANCH  15  17
ATOM     17  C   UNL     1       3.412   6.422  18.878  0.00  0.00    +0.000 C 
ATOM     18  C   UNL     1       2.667   7.442  18.006  0.00  0.00    +0.000 C 
BRANCH  17  19
ATOM     19  C   UNL     1       2.514   5.219  19.151  0.00  0.00    +0.000 A 
ATOM     20  C   UNL     1       2.166   4.349  18.110  0.00  0.00    +0.000 A 
ATOM     21  C   UNL     1       1.327   3.255  18.343  0.00  0.00    +0.000 A 
ATOM     22  C   UNL     1       0.826   3.019  19.622  0.00  0.00    +0.000 A 
ATOM     23  C   UNL     1       1.160   3.874  20.668  0.00  0.00    +0.000 A 
ATOM     24  C   UNL     1       1.997   4.968  20.436  0.00  0.00    +0.000 A 
ENDBRANCH  17  19
ENDBRANCH  15  17
ENDBRANCH  14  15
ENDBRANCH   1  14
TORSDOF 8
ENDMDL
MODEL 6
REMARK VINA RESULT:      -7.1      2.584      5.063
REMARK  Name = 
REMARK  11 active torsions:
REMARK  status: ('A' for Active; 'I' for Inactive)
REMARK    1  A    between atoms: C_1  and  C_2
REMARK    2  A    between atoms: C_6  and  C_7
REMARK    3  A    between atoms: C_8  and  O_9
REMARK    4  A    between atoms: O_9  and  C_10
REMARK    5  A    between atoms: C_10  and  C_11
REMARK    6  A    between atoms: C_11  and  O_12
REMARK    7  A    between atoms: C_11  and  C_13
REMARK    8  A    between atoms: C_13  and  N_14
REMARK    9  A    between atoms: N_14  and  C_15
REMARK   10  A    between atoms: C_15  and  C_16
REMARK   11  A    between atoms: C_15  and  C_17
REMARK                            x       y       z     vdW  Elec       q    Type
REMARK                         _______ _______ _______ _____ _____    ______ ____
ROOT
ATOM      1  C   UNL     1       2.702   4.095  20.855  0.00  0.00    +0.000 C 
ENDROOT
BRANCH   1   2
ATOM      2  O   UNL     1       2.246   3.615  22.127  0.00  0.00    +0.000 OA
ATOM      3  H   UNL     1       1.368   3.998  22.296  0.00  0.00    +0.000 HD
ENDBRANCH   1   2
BRANCH   1   4
ATOM      4  C   UNL     1       1.899   5.322  20.383  0.00  0.00    +0.000 C 
BRANCH   4   5
ATOM      5  O   UNL     1       2.699   6.479  20.203  0.00  0.00    +0.000 OA
BRANCH   5  13
ATOM      6  C   UNL     1       0.732   8.377  21.852  0.00  0.00    +0.000 C 
ATOM      7  C   UNL     1       1.228   8.514  20.433  0.00  0.00    +0.000 A 
ATOM      8  C   UNL     1       0.749   9.652  19.752  0.00  0.00    +0.000 A 
ATOM      9  C   UNL     1       1.099   9.928  18.437  0.00  0.00    +0.000 A 
ATOM     10  C   UNL     1       1.943   9.063  17.759  0.00  0.00    +0.000 A 
ATOM     11  C   UNL     1       2.445   7.916  18.398  0.00  0.00    +0.000 A 
ATOM     12  C   UNL     1       3.350   6.999  17.617  0.00  0.00    +0.000 C 
ATOM     13  C   UNL     1       2.098   7.632  19.744  0.00  0.00    +0.000 A 
ENDBRANCH   5  13
ENDBRANCH   4   5
ENDBRANCH   1   4
BRANCH   1  14
ATOM     14  C   UNL     1       2.537   2.959  19.816  0.00  0.00    +0.000 C 
BRANCH  14  15
ATOM     15  N   UNL     1       3.807   2.645  19.159  0.00  0.00    +0.000 NA
ATOM     16  H   UNL     1       4.036   1.664  19.329  0.00  0.00    +0.000 HD
BRANCH  15  17
ATOM     17  C   UNL     1       3.834   2.872  17.709  0.00  0.00    +0.000 C 
ATOM     18  C   UNL     1       2.500   3.395  17.158  0.00  0.00    +0.000 C 
BRANCH  17  19
ATOM     19  C   UNL     1       4.951   3.859  17.387  0.00  0.00    +0.000 A 
ATOM     20  C   UNL     1       5.229   4.198  16.055  0.00  0.00    +0.000 A 
ATOM     21  C   UNL     1       6.265   5.085  15.745  0.00  0.00    +0.000 A 
ATOM     22  C   UNL     1       7.035   5.643  16.764  0.00  0.00    +0.000 A 
ATOM     23  C   UNL     1       6.774   5.317  18.090  0.00  0.00    +0.000 A 
ATOM     24  C   UNL     1       5.740   4.430  18.402  0.00  0.00    +0.000 A 
ENDBRANCH  17  19
ENDBRANCH  15  17
ENDBRANCH  14  15
ENDBRANCH   1  14
TORSDOF 8
ENDMDL
MODEL 7
REMARK VINA RESULT:      -7.1      2.620      5.044
REMARK  Name = 
REMARK  11 active torsions:
REMARK  status: ('A' for Active; 'I' for Inactive)
REMARK    1  A    between atoms: C_1  and  C_2
REMARK    2  A    between atoms: C_6  and  C_7
REMARK    3  A    between atoms: C_8  and  O_9
REMARK    4  A    between atoms: O_9  and  C_10
REMARK    5  A    between atoms: C_10  and  C_11
REMARK    6  A    between atoms: C_11  and  O_12
REMARK    7  A    between atoms: C_11  and  C_13
REMARK    8  A    between atoms: C_13  and  N_14
REMARK    9  A    between atoms: N_14  and  C_15
REMARK   10  A    between atoms: C_15  and  C_16
REMARK   11  A    between atoms: C_15  and  C_17
REMARK                            x       y       z     vdW  Elec       q    Type
REMARK                         _______ _______ _______ _____ _____    ______ ____
ROOT
ATOM      1  C   UNL     1       1.832   4.209  20.940  0.00  0.00    +0.000 C 
ENDROOT
BRANCH   1   2
ATOM      2  O   UNL     1       0.776   3.239  20.928  0.00  0.00    +0.000 OA
ATOM      3  H   UNL     1      -0.070   3.714  21.006  0.00  0.00    +0.000 HD
ENDBRANCH   1   2
BRANCH   1   4
ATOM      4  C   UNL     1       1.573   5.354  19.942  0.00  0.00    +0.000 C 
BRANCH   4   5
ATOM      5  O   UNL     1       2.397   6.486  20.163  0.00  0.00    +0.000 OA
BRANCH   5  13
ATOM      6  C   UNL     1       0.483   8.478  21.762  0.00  0.00    +0.000 C 
ATOM      7  C   UNL     1       1.116   8.644  20.401  0.00  0.00    +0.000 A 
ATOM      8  C   UNL     1       0.813   9.863  19.759  0.00  0.00    +0.000 A 
ATOM      9  C   UNL     1       1.306  10.176  18.499  0.00  0.00    +0.000 A 
ATOM     10  C   UNL     1       2.119   9.269  17.839  0.00  0.00    +0.000 A 
ATOM     11  C   UNL     1       2.448   8.042  18.441  0.00  0.00    +0.000 A 
ATOM     12  C   UNL     1       3.326   7.083  17.680  0.00  0.00    +0.000 C 
ATOM     13  C   UNL     1       1.955   7.719  19.731  0.00  0.00    +0.000 A 
ENDBRANCH   5  13
ENDBRANCH   4   5
ENDBRANCH   1   4
BRANCH   1  14
ATOM     14  C   UNL     1       3.153   3.499  20.555  0.00  0.00    +0.000 C 
BRANCH  14  15
ATOM     15  N   UNL     1       3.796   4.147  19.411  0.00  0.00    +0.000 NA
ATOM     16  H   UNL     1       4.693   4.536  19.709  0.00  0.00    +0.000 HD
BRANCH  15  17
ATOM     17  C   UNL     1       4.041   3.277  18.255  0.00  0.00    +0.000 C 
ATOM     18  C   UNL     1       2.770   2.978  17.449  0.00  0.00    +0.000 C 
BRANCH  17  19
ATOM     19  C   UNL     1       5.082   3.935  17.356  0.00  0.00    +0.000 A 
ATOM     20  C   UNL     1       6.234   4.507  17.914  0.00  0.00    +0.000 A 
ATOM     21  C   UNL     1       7.186   5.133  17.104  0.00  0.00    +0.000 A 
ATOM     22  C   UNL     1       6.998   5.194  15.724  0.00  0.00    +0.000 A 
ATOM     23  C   UNL     1       5.860   4.633  15.153  0.00  0.00    +0.000 A 
ATOM     24  C   UNL     1       4.907   4.008  15.962  0.00  0.00    +0.000 A 
ENDBRANCH  17  19
ENDBRANCH  15  17
ENDBRANCH  14  15
ENDBRANCH   1  14
TORSDOF 8
ENDMDL
MODEL 8
REMARK VINA RESULT:      -7.1      1.153      2.084
REMARK  Name = 
REMARK  11 active torsions:
REMARK  status: ('A' for Active; 'I' for Inactive)
REMARK    1  A    between atoms: C_1  and  C_2
REMARK    2  A    between atoms: C_6  and  C_7
REMARK    3  A    between atoms: C_8  and  O_9
REMARK    4  A    between atoms: O_9  and  C_10
REMARK    5  A    between atoms: C_10  and  C_11
REMARK    6  A    between atoms: C_11  and  O_12
REMARK    7  A    between atoms: C_11  and  C_13
REMARK    8  A    between atoms: C_13  and  N_14
REMARK    9  A    between atoms: N_14  and  C_15
REMARK   10  A    between atoms: C_15  and  C_16
REMARK   11  A    between atoms: C_15  and  C_17
REMARK                            x       y       z     vdW  Elec       q    Type
REMARK                         _______ _______ _______ _____ _____    ______ ____
ROOT
ATOM      1  C   UNL     1       7.273   5.760  18.952  0.00  0.00    +0.000 C 
ENDROOT
BRANCH   1   2
ATOM      2  O   UNL     1       7.739   5.240  20.204  0.00  0.00    +0.000 OA
ATOM      3  H   UNL     1       7.124   4.540  20.487  0.00  0.00    +0.000 HD
ENDBRANCH   1   2
BRANCH   1   4
ATOM      4  C   UNL     1       5.795   6.187  19.022  0.00  0.00    +0.000 C 
BRANCH   4   5
ATOM      5  O   UNL     1       4.975   5.258  19.710  0.00  0.00    +0.000 OA
BRANCH   5  13
ATOM      6  C   UNL     1       2.739   7.114  18.392  0.00  0.00    +0.000 C 
ATOM      7  C   UNL     1       2.791   5.610  18.502  0.00  0.00    +0.000 A 
ATOM      8  C   UNL     1       1.688   4.942  17.930  0.00  0.00    +0.000 A 
ATOM      9  C   UNL     1       1.571   3.558  17.950  0.00  0.00    +0.000 A 
ATOM     10  C   UNL     1       2.562   2.798  18.551  0.00  0.00    +0.000 A 
ATOM     11  C   UNL     1       3.679   3.420  19.133  0.00  0.00    +0.000 A 
ATOM     12  C   UNL     1       4.724   2.553  19.785  0.00  0.00    +0.000 C 
ATOM     13  C   UNL     1       3.809   4.833  19.109  0.00  0.00    +0.000 A 
ENDBRANCH   5  13
ENDBRANCH   4   5
ENDBRANCH   1   4
BRANCH   1  14
ATOM     14  C   UNL     1       7.423   4.655  17.877  0.00  0.00    +0.000 C 
BRANCH  14  15
ATOM     15  N   UNL     1       7.373   5.212  16.524  0.00  0.00    +0.000 NA
ATOM     16  H   UNL     1       8.132   4.810  15.970  0.00  0.00    +0.000 HD
BRANCH  15  17
ATOM     17  C   UNL     1       6.115   4.986  15.801  0.00  0.00    +0.000 C 
ATOM     18  C   UNL     1       5.185   6.207  15.821  0.00  0.00    +0.000 C 
BRANCH  17  19
ATOM     19  C   UNL     1       6.439   4.604  14.360  0.00  0.00    +0.000 A 
ATOM     20  C   UNL     1       7.503   5.223  13.690  0.00  0.00    +0.000 A 
ATOM     21  C   UNL     1       7.796   4.897  12.362  0.00  0.00    +0.000 A 
ATOM     22  C   UNL     1       7.029   3.948  11.689  0.00  0.00    +0.000 A 
ATOM     23  C   UNL     1       5.969   3.325  12.339  0.00  0.00    +0.000 A 
ATOM     24  C   UNL     1       5.673   3.650  13.665  0.00  0.00    +0.000 A 
ENDBRANCH  17  19
ENDBRANCH  15  17
ENDBRANCH  14  15
ENDBRANCH   1  14
TORSDOF 8
ENDMDL
MODEL 9
REMARK VINA RESULT:      -7.0      2.495      6.416
REMARK  Name = 
REMARK  11 active torsions:
REMARK  status: ('A' for Active; 'I' for Inactive)
REMARK    1  A    between atoms: C_1  and  C_2
REMARK    2  A    between atoms: C_6  and  C_7
REMARK    3  A    between atoms: C_8  and  O_9
REMARK    4  A    between atoms: O_9  and  C_10
REMARK    5  A    between atoms: C_10  and  C_11
REMARK    6  A    between atoms: C_11  and  O_12
REMARK    7  A    between atoms: C_11  and  C_13
REMARK    8  A    between atoms: C_13  and  N_14
REMARK    9  A    between atoms: N_14  and  C_15
REMARK   10  A    between atoms: C_15  and  C_16
REMARK   11  A    between atoms: C_15  and  C_17
REMARK                            x       y       z     vdW  Elec       q    Type
REMARK                         _______ _______ _______ _____ _____    ______ ____
ROOT
ATOM      1  C   UNL     1       4.803   2.260  19.637  0.00  0.00    +0.000 C 
ENDROOT
BRANCH   1   2
ATOM      2  O   UNL     1       4.749   2.004  21.047  0.00  0.00    +0.000 OA
ATOM      3  H   UNL     1       3.997   2.500  21.414  0.00  0.00    +0.000 HD
ENDBRANCH   1   2
BRANCH   1   4
ATOM      4  C   UNL     1       5.117   3.737  19.333  0.00  0.00    +0.000 C 
BRANCH   4   5
ATOM      5  O   UNL     1       6.120   3.904  18.345  0.00  0.00    +0.000 OA
BRANCH   5  13
ATOM      6  C   UNL     1       8.252   5.331  20.243  0.00  0.00    +0.000 C 
ATOM      7  C   UNL     1       7.620   5.832  18.967  0.00  0.00    +0.000 A 
ATOM      8  C   UNL     1       8.048   7.114  18.565  0.00  0.00    +0.000 A 
ATOM      9  C   UNL     1       7.563   7.729  17.418  0.00  0.00    +0.000 A 
ATOM     10  C   UNL     1       6.625   7.074  16.637  0.00  0.00    +0.000 A 
ATOM     11  C   UNL     1       6.170   5.794  16.998  0.00  0.00    +0.000 A 
ATOM     12  C   UNL     1       5.140   5.126  16.124  0.00  0.00    +0.000 C 
ATOM     13  C   UNL     1       6.667   5.156  18.164  0.00  0.00    +0.000 A 
ENDBRANCH   5  13
ENDBRANCH   4   5
ENDBRANCH   1   4
BRANCH   1  14
ATOM     14  C   UNL     1       3.426   1.905  19.024  0.00  0.00    +0.000 C 
BRANCH  14  15
ATOM     15  N   UNL     1       3.073   2.818  17.935  0.00  0.00    +0.000 NA
ATOM     16  H   UNL     1       3.105   2.308  17.049  0.00  0.00    +0.000 HD
BRANCH  15  17
ATOM     17  C   UNL     1       1.750   3.445  18.048  0.00  0.00    +0.000 C 
ATOM     18  C   UNL     1       0.742   2.584  18.821  0.00  0.00    +0.000 C 
BRANCH  17  19
ATOM     19  C   UNL     1       1.907   4.800  18.731  0.00  0.00    +0.000 A 
ATOM     20  C   UNL     1       1.564   4.952  20.082  0.00  0.00    +0.000 A 
ATOM     21  C   UNL     1       1.683   6.194  20.714  0.00  0.00    +0.000 A 
ATOM     22  C   UNL     1       2.146   7.299  20.002  0.00  0.00    +0.000 A 
ATOM     23  C   UNL     1       2.489   7.167  18.660  0.00  0.00    +0.000 A 
ATOM     24  C   UNL     1       2.370   5.927  18.027  0.00  0.00    +0.000 A 
ENDBRANCH  17  19
ENDBRANCH  15  17
ENDBRANCH  14  15
ENDBRANCH   1  14
TORSDOF 8
ENDMDL
