MODEL 1
REMARK VINA RESULT:      -6.8      0.000      0.000
REMARK  Name = 
REMARK  1 active torsions:
REMARK  status: ('A' for Active; 'I' for Inactive)
REMARK    1  A    between atoms: C_5  and  N_6
REMARK                            x       y       z     vdW  Elec       q    Type
REMARK                         _______ _______ _______ _____ _____    ______ ____
ROOT
ATOM      1  N   UNL     1       5.154   4.562  17.858  0.00  0.00    +0.000 N 
ATOM      2  C   UNL     1       5.897   5.121  18.986  0.00  0.00    +0.000 C 
ATOM      3  C   UNL     1       7.364   5.197  18.523  0.00  0.00    +0.000 C 
ATOM      4  C   UNL     1       7.992   6.566  18.690  0.00  0.00    +0.000 C 
ATOM      5  C   UNL     1       7.469   7.344  17.497  0.00  0.00    +0.000 C 
ATOM      6  N   UNL     1       7.286   6.369  16.417  0.00  0.00    +0.000 NA
ATOM      7  C   UNL     1       7.323   5.015  17.011  0.00  0.00    +0.000 C 
ATOM      8  C   UNL     1       6.063   4.172  16.780  0.00  0.00    +0.000 C 
ATOM      9  H   UNL     1       8.039   6.462  15.738  0.00  0.00    +0.000 HD
ENDROOT
BRANCH   1  14
ATOM     10  C   UNL     1       1.482   4.061  17.973  0.00  0.00    +0.000 A 
ATOM     11  C   UNL     1       1.450   2.744  18.394  0.00  0.00    +0.000 A 
ATOM     12  N   UNL     1       2.554   2.013  18.617  0.00  0.00    +0.000 NA
ATOM     13  C   UNL     1       3.743   2.639  18.413  0.00  0.00    +0.000 A 
ATOM     14  C   UNL     1       3.917   3.974  18.027  0.00  0.00    +0.000 A 
ATOM     15  C   UNL     1       2.725   4.667  17.784  0.00  0.00    +0.000 A 
ENDBRANCH   1  14
TORSDOF 1
ENDMDL
MODEL 2
REMARK VINA RESULT:      -6.6      0.724      1.261
REMARK  Name = 
REMARK  1 active torsions:
REMARK  status: ('A' for Active; 'I' for Inactive)
REMARK    1  A    between atoms: C_5  and  N_6
REMARK                            x       y       z     vdW  Elec       q    Type
REMARK                         _______ _______ _______ _____ _____    ______ ____
ROOT
ATOM      1  N   UNL     1       5.186   4.499  17.883  0.00  0.00    +0.000 N 
ATOM      2  C   UNL     1       5.923   5.092  18.998  0.00  0.00    +0.000 C 
ATOM      3  C   UNL     1       7.383   5.206  18.521  0.00  0.00    +0.000 C 
ATOM      4  C   UNL     1       7.971   6.594  18.669  0.00  0.00    +0.000 C 
ATOM      5  C   UNL     1       7.415   7.345  17.472  0.00  0.00    +0.000 C 
ATOM      6  N   UNL     1       7.250   6.354  16.404  0.00  0.00    +0.000 NA
ATOM      7  C   UNL     1       7.333   5.008  17.011  0.00  0.00    +0.000 C 
ATOM      8  C   UNL     1       6.097   4.125  16.800  0.00  0.00    +0.000 C 
ATOM      9  H   UNL     1       7.995   6.462  15.717  0.00  0.00    +0.000 HD
ENDROOT
BRANCH   1  14
ATOM     10  C   UNL     1       2.607   2.069  18.972  0.00  0.00    +0.000 A 
ATOM     11  C   UNL     1       1.492   2.660  18.407  0.00  0.00    +0.000 A 
ATOM     12  N   UNL     1       1.536   3.811  17.716  0.00  0.00    +0.000 NA
ATOM     13  C   UNL     1       2.759   4.387  17.583  0.00  0.00    +0.000 A 
ATOM     14  C   UNL     1       3.969   3.877  18.070  0.00  0.00    +0.000 A 
ATOM     15  C   UNL     1       3.845   2.692  18.804  0.00  0.00    +0.000 A 
ENDBRANCH   1  14
TORSDOF 1
ENDMDL
MODEL 3
REMARK VINA RESULT:      -6.6      1.866      2.611
REMARK  Name = 
REMARK  1 active torsions:
REMARK  status: ('A' for Active; 'I' for Inactive)
REMARK    1  A    between atoms: C_5  and  N_6
REMARK                            x       y       z     vdW  Elec       q    Type
REMARK                         _______ _______ _______ _____ _____    ______ ____
ROOT
ATOM      1  N   UNL     1       4.203   4.365  18.607  0.00  0.00    +0.000 N 
ATOM      2  C   UNL     1       3.837   4.935  17.311  0.00  0.00    +0.000 C 
ATOM      3  C   UNL     1       5.058   5.756  16.857  0.00  0.00    +0.000 C 
ATOM      4  C   UNL     1       5.551   5.408  15.467  0.00  0.00    +0.000 C 
ATOM      5  C   UNL     1       6.357   4.140  15.685  0.00  0.00    +0.000 C 
ATOM      6  N   UNL     1       6.923   4.237  17.034  0.00  0.00    +0.000 NA
ATOM      7  C   UNL     1       6.205   5.311  17.755  0.00  0.00    +0.000 C 
ATOM      8  C   UNL     1       5.505   4.868  19.046  0.00  0.00    +0.000 C 
ATOM      9  H   UNL     1       7.912   4.472  16.976  0.00  0.00    +0.000 HD
ENDROOT
BRANCH   1  14
ATOM     10  C   UNL     1       0.983   3.950  20.396  0.00  0.00    +0.000 A 
ATOM     11  C   UNL     1       1.363   2.994  21.321  0.00  0.00    +0.000 A 
ATOM     12  N   UNL     1       2.598   2.468  21.374  0.00  0.00    +0.000 NA
ATOM     13  C   UNL     1       3.490   2.931  20.459  0.00  0.00    +0.000 A 
ATOM     14  C   UNL     1       3.248   3.920  19.497  0.00  0.00    +0.000 A 
ATOM     15  C   UNL     1       1.933   4.402  19.480  0.00  0.00    +0.000 A 
ENDBRANCH   1  14
TORSDOF 1
ENDMDL
MODEL 4
REMARK VINA RESULT:      -6.5      1.800      5.337
REMARK  Name = 
REMARK  1 active torsions:
REMARK  status: ('A' for Active; 'I' for Inactive)
REMARK    1  A    between atoms: C_5  and  N_6
REMARK                            x       y       z     vdW  Elec       q    Type
REMARK                         _______ _______ _______ _____ _____    ______ ____
ROOT
ATOM      1  N   UNL     1       4.104   3.616  18.176  0.00  0.00    +0.000 N 
ATOM      2  C   UNL     1       2.793   3.164  17.713  0.00  0.00    +0.000 C 
ATOM      3  C   UNL     1       2.205   2.332  18.868  0.00  0.00    +0.000 C 
ATOM      4  C   UNL     1       0.819   2.767  19.297  0.00  0.00    +0.000 C 
ATOM      5  C   UNL     1       1.083   3.981  20.170  0.00  0.00    +0.000 C 
ATOM      6  N   UNL     1       2.385   3.756  20.806  0.00  0.00    +0.000 NA
ATOM      7  C   UNL     1       3.064   2.659  20.083  0.00  0.00    +0.000 C 
ATOM      8  C   UNL     1       4.425   3.028  19.478  0.00  0.00    +0.000 C 
ATOM      9  H   UNL     1       2.251   3.487  21.779  0.00  0.00    +0.000 HD
ENDROOT
BRANCH   1  14
ATOM     10  C   UNL     1       5.836   4.573  15.042  0.00  0.00    +0.000 A 
ATOM     11  C   UNL     1       7.089   4.854  15.557  0.00  0.00    +0.000 A 
ATOM     12  N   UNL     1       7.386   4.771  16.864  0.00  0.00    +0.000 NA
ATOM     13  C   UNL     1       6.378   4.380  17.687  0.00  0.00    +0.000 A 
ATOM     14  C   UNL     1       5.080   4.028  17.294  0.00  0.00    +0.000 A 
ATOM     15  C   UNL     1       4.833   4.166  15.923  0.00  0.00    +0.000 A 
ENDBRANCH   1  14
TORSDOF 1
ENDMDL
MODEL 5
REMARK VINA RESULT:      -6.5      1.183      5.490
REMARK  Name = 
REMARK  1 active torsions:
REMARK  status: ('A' for Active; 'I' for Inactive)
REMARK    1  A    between atoms: C_5  and  N_6
REMARK                            x       y       z     vdW  Elec       q    Type
REMARK                         _______ _______ _______ _____ _____    ______ ____
ROOT
ATOM      1  N   UNL     1       4.103   4.601  18.131  0.00  0.00    +0.000 N 
ATOM      2  C   UNL     1       2.990   5.008  18.987  0.00  0.00    +0.000 C 
ATOM      3  C   UNL     1       1.764   4.228  18.478  0.00  0.00    +0.000 C 
ATOM      4  C   UNL     1       1.035   3.454  19.558  0.00  0.00    +0.000 C 
ATOM      5  C   UNL     1       1.883   2.207  19.734  0.00  0.00    +0.000 C 
ATOM      6  N   UNL     1       2.478   1.925  18.424  0.00  0.00    +0.000 NA
ATOM      7  C   UNL     1       2.324   3.131  17.581  0.00  0.00    +0.000 C 
ATOM      8  C   UNL     1       3.636   3.725  17.055  0.00  0.00    +0.000 C 
ATOM      9  H   UNL     1       1.994   1.142  17.987  0.00  0.00    +0.000 HD
ENDROOT
BRANCH   1  14
ATOM     10  C   UNL     1       7.466   6.027  18.765  0.00  0.00    +0.000 A 
ATOM     11  C   UNL     1       7.514   6.950  17.735  0.00  0.00    +0.000 A 
ATOM     12  N   UNL     1       6.525   7.110  16.840  0.00  0.00    +0.000 NA
ATOM     13  C   UNL     1       5.437   6.312  16.995  0.00  0.00    +0.000 A 
ATOM     14  C   UNL     1       5.243   5.369  18.013  0.00  0.00    +0.000 A 
ATOM     15  C   UNL     1       6.325   5.233  18.891  0.00  0.00    +0.000 A 
ENDBRANCH   1  14
TORSDOF 1
ENDMDL
MODEL 6
REMARK VINA RESULT:      -6.5      1.714      5.541
REMARK  Name = 
REMARK  1 active torsions:
REMARK  status: ('A' for Active; 'I' for Inactive)
REMARK    1  A    between atoms: C_5  and  N_6
REMARK                            x       y       z     vdW  Elec       q    Type
REMARK                         _______ _______ _______ _____ _____    ______ ____
ROOT
ATOM      1  N   UNL     1       4.361   4.782  19.039  0.00  0.00    +0.000 N 
ATOM      2  C   UNL     1       3.048   5.378  19.280  0.00  0.00    +0.000 C 
ATOM      3  C   UNL     1       2.053   4.203  19.305  0.00  0.00    +0.000 C 
ATOM      4  C   UNL     1       1.180   4.162  20.543  0.00  0.00    +0.000 C 
ATOM      5  C   UNL     1       2.086   3.552  21.596  0.00  0.00    +0.000 C 
ATOM      6  N   UNL     1       2.988   2.640  20.887  0.00  0.00    +0.000 NA
ATOM      7  C   UNL     1       2.909   2.949  19.443  0.00  0.00    +0.000 C 
ATOM      8  C   UNL     1       4.240   3.344  18.792  0.00  0.00    +0.000 C 
ATOM      9  H   UNL     1       2.696   1.676  21.043  0.00  0.00    +0.000 HD
ENDROOT
BRANCH   1  14
ATOM     10  C   UNL     1       7.735   6.266  18.650  0.00  0.00    +0.000 A 
ATOM     11  C   UNL     1       7.504   7.057  17.538  0.00  0.00    +0.000 A 
ATOM     12  N   UNL     1       6.322   7.111  16.903  0.00  0.00    +0.000 NA
ATOM     13  C   UNL     1       5.327   6.339  17.416  0.00  0.00    +0.000 A 
ATOM     14  C   UNL     1       5.415   5.527  18.553  0.00  0.00    +0.000 A 
ATOM     15  C   UNL     1       6.683   5.496  19.147  0.00  0.00    +0.000 A 
ENDBRANCH   1  14
TORSDOF 1
ENDMDL
MODEL 7
REMARK VINA RESULT:      -6.5      1.726      5.223
REMARK  Name = 
REMARK  1 active torsions:
REMARK  status: ('A' for Active; 'I' for Inactive)
REMARK    1  A    between atoms: C_5  and  N_6
REMARK                            x       y       z     vdW  Elec       q    Type
REMARK                         _______ _______ _______ _____ _____    ______ ____
ROOT
ATOM      1  N   UNL     1       4.049   3.799  18.302  0.00  0.00    +0.000 N 
ATOM      2  C   UNL     1       2.886   4.664  18.495  0.00  0.00    +0.000 C 
ATOM      3  C   UNL     1       1.788   3.762  19.088  0.00  0.00    +0.000 C 
ATOM      4  C   UNL     1       1.176   4.297  20.367  0.00  0.00    +0.000 C 
ATOM      5  C   UNL     1       2.196   3.928  21.429  0.00  0.00    +0.000 C 
ATOM      6  N   UNL     1       2.830   2.686  20.978  0.00  0.00    +0.000 NA
ATOM      7  C   UNL     1       2.505   2.498  19.547  0.00  0.00    +0.000 C 
ATOM      8  C   UNL     1       3.718   2.408  18.614  0.00  0.00    +0.000 C 
ATOM      9  H   UNL     1       2.466   1.899  21.514  0.00  0.00    +0.000 HD
ENDROOT
BRANCH   1  14
ATOM     10  C   UNL     1       5.912   4.533  15.182  0.00  0.00    +0.000 A 
ATOM     11  C   UNL     1       7.153   4.815  15.725  0.00  0.00    +0.000 A 
ATOM     12  N   UNL     1       7.402   4.801  17.044  0.00  0.00    +0.000 NA
ATOM     13  C   UNL     1       6.357   4.481  17.851  0.00  0.00    +0.000 A 
ATOM     14  C   UNL     1       5.065   4.137  17.433  0.00  0.00    +0.000 A 
ATOM     15  C   UNL     1       4.869   4.201  16.048  0.00  0.00    +0.000 A 
ENDBRANCH   1  14
TORSDOF 1
ENDMDL
MODEL 8
REMARK VINA RESULT:      -6.4      1.407      5.354
REMARK  Name = 
REMARK  1 active torsions:
REMARK  status: ('A' for Active; 'I' for Inactive)
REMARK    1  A    between atoms: C_5  and  N_6
REMARK                            x       y       z     vdW  Elec       q    Type
REMARK                         _______ _______ _______ _____ _____    ______ ____
ROOT
ATOM      1  N   UNL     1       4.295   4.554  18.147  0.00  0.00    +0.000 N 
ATOM      2  C   UNL     1       3.161   4.842  19.025  0.00  0.00    +0.000 C 
ATOM      3  C   UNL     1       1.928   4.239  18.327  0.00  0.00    +0.000 C 
ATOM      4  C   UNL     1       1.118   3.307  19.205  0.00  0.00    +0.000 C 
ATOM      5  C   UNL     1       1.903   2.009  19.163  0.00  0.00    +0.000 C 
ATOM      6  N   UNL     1       2.547   1.957  17.847  0.00  0.00    +0.000 NA
ATOM      7  C   UNL     1       2.483   3.311  17.253  0.00  0.00    +0.000 C 
ATOM      8  C   UNL     1       3.842   3.929  16.904  0.00  0.00    +0.000 C 
ATOM      9  H   UNL     1       2.051   1.301  17.247  0.00  0.00    +0.000 HD
ENDROOT
BRANCH   1  14
ATOM     10  C   UNL     1       7.044   6.903  17.330  0.00  0.00    +0.000 A 
ATOM     11  C   UNL     1       7.856   6.686  18.429  0.00  0.00    +0.000 A 
ATOM     12  N   UNL     1       7.544   5.838  19.422  0.00  0.00    +0.000 NA
ATOM     13  C   UNL     1       6.364   5.175  19.300  0.00  0.00    +0.000 A 
ATOM     14  C   UNL     1       5.470   5.272  18.226  0.00  0.00    +0.000 A 
ATOM     15  C   UNL     1       5.845   6.195  17.241  0.00  0.00    +0.000 A 
ENDBRANCH   1  14
TORSDOF 1
ENDMDL
MODEL 9
REMARK VINA RESULT:      -6.4      1.676      5.350
REMARK  Name = 
REMARK  1 active torsions:
REMARK  status: ('A' for Active; 'I' for Inactive)
REMARK    1  A    between atoms: C_5  and  N_6
REMARK                            x       y       z     vdW  Elec       q    Type
REMARK                         _______ _______ _______ _____ _____    ______ ____
ROOT
ATOM      1  N   UNL     1       3.673   3.979  18.096  0.00  0.00    +0.000 N 
ATOM      2  C   UNL     1       3.320   4.701  19.318  0.00  0.00    +0.000 C 
ATOM      3  C   UNL     1       1.787   4.606  19.431  0.00  0.00    +0.000 C 
ATOM      4  C   UNL     1       1.300   4.078  20.766  0.00  0.00    +0.000 C 
ATOM      5  C   UNL     1       1.487   2.577  20.643  0.00  0.00    +0.000 C 
ATOM      6  N   UNL     1       1.300   2.252  19.226  0.00  0.00    +0.000 NA
ATOM      7  C   UNL     1       1.374   3.512  18.454  0.00  0.00    +0.000 C 
ATOM      8  C   UNL     1       2.470   3.550  17.382  0.00  0.00    +0.000 C 
ATOM      9  H   UNL     1       0.386   1.825  19.088  0.00  0.00    +0.000 HD
ENDROOT
BRANCH   1  14
ATOM     10  C   UNL     1       6.223   4.333  15.429  0.00  0.00    +0.000 A 
ATOM     11  C   UNL     1       7.328   4.612  16.213  0.00  0.00    +0.000 A 
ATOM     12  N   UNL     1       7.278   4.712  17.551  0.00  0.00    +0.000 NA
ATOM     13  C   UNL     1       6.062   4.515  18.125  0.00  0.00    +0.000 A 
ATOM     14  C   UNL     1       4.876   4.189  17.455  0.00  0.00    +0.000 A 
ATOM     15  C   UNL     1       4.995   4.130  16.061  0.00  0.00    +0.000 A 
ENDBRANCH   1  14
TORSDOF 1
ENDMDL
