MODEL 1
REMARK VINA RESULT:      -7.7      0.000      0.000
REMARK  Name = 
REMARK  5 active torsions:
REMARK  status: ('A' for Active; 'I' for Inactive)
REMARK    1  A    between atoms: N_12  and  C_13
REMARK    2  A    between atoms: N_23  and  C_24
REMARK    3  A    between atoms: C_24  and  C_25
REMARK    4  A    between atoms: C_25  and  C_26
REMARK    5  A    between atoms: C_26  and  N_27
REMARK                            x       y       z     vdW  Elec       q    Type
REMARK                         _______ _______ _______ _____ _____    ______ ____
ROOT
ATOM      1  O   UNL     1       3.895   4.203  18.232  0.00  0.00    +0.000 OA
ATOM      2  C   UNL     1       3.143   4.993  18.801  0.00  0.00    +0.000 C 
ATOM      3  C   UNL     1       2.288   4.474  19.941  0.00  0.00    +0.000 C 
ATOM      4  O   UNL     1       1.971   5.353  20.994  0.00  0.00    +0.000 OA
ATOM      5  C   UNL     1       1.698   6.617  20.549  0.00  0.00    +0.000 A 
ATOM      6  C   UNL     1       0.993   7.407  21.462  0.00  0.00    +0.000 A 
ATOM      7  C   UNL     1       0.682   8.722  21.202  0.00  0.00    +0.000 A 
ATOM      8  N   UNL     1       0.027   9.410  22.131  0.00  0.00    +0.000 NA
ATOM      9  C   UNL     1      -0.210  10.702  21.875  0.00  0.00    +0.000 A 
ATOM     10  N   UNL     1       0.161  11.352  20.769  0.00  0.00    +0.000 NA
ATOM     11  C   UNL     1       0.827  10.643  19.837  0.00  0.00    +0.000 A 
ATOM     12  N   UNL     1       1.253  11.318  18.660  0.00  0.00    +0.000 N 
ATOM     13  C   UNL     1       1.101   9.279  19.981  0.00  0.00    +0.000 A 
ATOM     14  C   UNL     1       1.807   8.471  19.048  0.00  0.00    +0.000 A 
ATOM     15  C   UNL     1       2.118   7.136  19.323  0.00  0.00    +0.000 A 
ATOM     16  N   UNL     1       2.882   6.311  18.423  0.00  0.00    +0.000 N 
ATOM     17  H   UNL     1       0.711  10.989  17.868  0.00  0.00    +0.000 HD
ENDROOT
BRANCH  12  18
ATOM     18  C   UNL     1       1.547  12.698  18.587  0.00  0.00    +0.000 A 
ATOM     19  C   UNL     1       2.836  13.151  18.260  0.00  0.00    +0.000 A 
ATOM     20  C   UNL     1       3.130  14.513  18.199  0.00  0.00    +0.000 A 
ATOM     21  C   UNL     1       2.121  15.441  18.437  0.00  0.00    +0.000 A 
ATOM     22 CL   UNL     1       2.488  17.121  18.417  0.00  0.00    +0.000 Cl
ATOM     23  C   UNL     1       0.819  15.016  18.692  0.00  0.00    +0.000 A 
ATOM     24  C   UNL     1       0.529  13.648  18.748  0.00  0.00    +0.000 A 
ENDBRANCH  12  18
BRANCH  16  25
ATOM     25  C   UNL     1       3.263   6.861  17.122  0.00  0.00    +0.000 C 
BRANCH  25  26
ATOM     26  C   UNL     1       4.707   6.724  16.644  0.00  0.00    +0.000 C 
BRANCH  26  27
ATOM     27  C   UNL     1       5.716   7.244  17.670  0.00  0.00    +0.000 C 
BRANCH  27  28
ATOM     28  N   UNL     1       7.102   7.058  17.207  0.00  0.00    +0.000 NA
ATOM     29  C   UNL     1       7.225   5.794  16.447  0.00  0.00    +0.000 C 
ATOM     30  C   UNL     1       7.080   4.546  17.336  0.00  0.00    +0.000 C 
ATOM     31  O   UNL     1       7.979   4.567  18.456  0.00  0.00    +0.000 OA
ATOM     32  C   UNL     1       7.860   5.779  19.213  0.00  0.00    +0.000 C 
ATOM     33  C   UNL     1       8.073   7.007  18.316  0.00  0.00    +0.000 C 
ENDBRANCH  27  28
ENDBRANCH  26  27
ENDBRANCH  25  26
ENDBRANCH  16  25
TORSDOF 5
ENDMDL
MODEL 2
REMARK VINA RESULT:      -7.4      0.498      1.020
REMARK  Name = 
REMARK  5 active torsions:
REMARK  status: ('A' for Active; 'I' for Inactive)
REMARK    1  A    between atoms: N_12  and  C_13
REMARK    2  A    between atoms: N_23  and  C_24
REMARK    3  A    between atoms: C_24  and  C_25
REMARK    4  A    between atoms: C_25  and  C_26
REMARK    5  A    between atoms: C_26  and  N_27
REMARK                            x       y       z     vdW  Elec       q    Type
REMARK                         _______ _______ _______ _____ _____    ______ ____
ROOT
ATOM      1  O   UNL     1       3.967   4.364  18.486  0.00  0.00    +0.000 OA
ATOM      2  C   UNL     1       3.174   5.143  19.012  0.00  0.00    +0.000 C 
ATOM      3  C   UNL     1       2.287   4.620  20.124  0.00  0.00    +0.000 C 
ATOM      4  O   UNL     1       1.906   5.506  21.150  0.00  0.00    +0.000 OA
ATOM      5  C   UNL     1       1.622   6.757  20.675  0.00  0.00    +0.000 A 
ATOM      6  C   UNL     1       0.862   7.542  21.547  0.00  0.00    +0.000 A 
ATOM      7  C   UNL     1       0.531   8.845  21.254  0.00  0.00    +0.000 A 
ATOM      8  N   UNL     1      -0.178   9.530  22.146  0.00  0.00    +0.000 NA
ATOM      9  C   UNL     1      -0.435  10.812  21.861  0.00  0.00    +0.000 A 
ATOM     10  N   UNL     1      -0.034  11.456  20.761  0.00  0.00    +0.000 NA
ATOM     11  C   UNL     1       0.686  10.749  19.868  0.00  0.00    +0.000 A 
ATOM     12  N   UNL     1       1.144  11.418  18.699  0.00  0.00    +0.000 N 
ATOM     13  C   UNL     1       0.986   9.395  20.043  0.00  0.00    +0.000 A 
ATOM     14  C   UNL     1       1.748   8.591  19.152  0.00  0.00    +0.000 A 
ATOM     15  C   UNL     1       2.079   7.268  19.460  0.00  0.00    +0.000 A 
ATOM     16  N   UNL     1       2.898   6.449  18.604  0.00  0.00    +0.000 N 
ATOM     17  H   UNL     1       0.642  11.064  17.890  0.00  0.00    +0.000 HD
ENDROOT
BRANCH  12  18
ATOM     18  C   UNL     1       1.407  12.804  18.617  0.00  0.00    +0.000 A 
ATOM     19  C   UNL     1       0.374  13.748  18.745  0.00  0.00    +0.000 A 
ATOM     20  C   UNL     1       0.631  15.116  18.651  0.00  0.00    +0.000 A 
ATOM     21  C   UNL     1       1.936  15.555  18.460  0.00  0.00    +0.000 A 
ATOM     22 CL   UNL     1       2.253  17.237  18.290  0.00  0.00    +0.000 Cl
ATOM     23  C   UNL     1       2.985  14.640  18.403  0.00  0.00    +0.000 A 
ATOM     24  C   UNL     1       2.723  13.269  18.500  0.00  0.00    +0.000 A 
ENDBRANCH  12  18
BRANCH  16  25
ATOM     25  C   UNL     1       3.318   6.990  17.311  0.00  0.00    +0.000 C 
BRANCH  25  26
ATOM     26  C   UNL     1       4.796   7.298  17.071  0.00  0.00    +0.000 C 
BRANCH  26  27
ATOM     27  C   UNL     1       5.452   6.308  16.106  0.00  0.00    +0.000 C 
BRANCH  27  28
ATOM     28  N   UNL     1       6.920   6.410  16.145  0.00  0.00    +0.000 NA
ATOM     29  C   UNL     1       7.534   5.074  15.971  0.00  0.00    +0.000 C 
ATOM     30  C   UNL     1       7.307   4.151  17.181  0.00  0.00    +0.000 C 
ATOM     31  O   UNL     1       7.724   4.757  18.415  0.00  0.00    +0.000 OA
ATOM     32  C   UNL     1       7.125   6.045  18.606  0.00  0.00    +0.000 C 
ATOM     33  C   UNL     1       7.421   6.968  17.415  0.00  0.00    +0.000 C 
ENDBRANCH  27  28
ENDBRANCH  26  27
ENDBRANCH  25  26
ENDBRANCH  16  25
TORSDOF 5
ENDMDL
MODEL 3
REMARK VINA RESULT:      -7.4      4.025      8.419
REMARK  Name = 
REMARK  5 active torsions:
REMARK  status: ('A' for Active; 'I' for Inactive)
REMARK    1  A    between atoms: N_12  and  C_13
REMARK    2  A    between atoms: N_23  and  C_24
REMARK    3  A    between atoms: C_24  and  C_25
REMARK    4  A    between atoms: C_25  and  C_26
REMARK    5  A    between atoms: C_26  and  N_27
REMARK                            x       y       z     vdW  Elec       q    Type
REMARK                         _______ _______ _______ _____ _____    ______ ____
ROOT
ATOM      1  O   UNL     1      -0.405  10.337  19.754  0.00  0.00    +0.000 OA
ATOM      2  C   UNL     1       0.376   9.398  19.903  0.00  0.00    +0.000 C 
ATOM      3  C   UNL     1       0.378   8.673  21.234  0.00  0.00    +0.000 C 
ATOM      4  O   UNL     1       0.686   7.299  21.248  0.00  0.00    +0.000 OA
ATOM      5  C   UNL     1       1.692   6.985  20.376  0.00  0.00    +0.000 A 
ATOM      6  C   UNL     1       2.311   5.759  20.633  0.00  0.00    +0.000 A 
ATOM      7  C   UNL     1       3.306   5.259  19.823  0.00  0.00    +0.000 A 
ATOM      8  N   UNL     1       3.830   4.076  20.126  0.00  0.00    +0.000 NA
ATOM      9  C   UNL     1       4.753   3.590  19.288  0.00  0.00    +0.000 A 
ATOM     10  N   UNL     1       5.184   4.193  18.177  0.00  0.00    +0.000 NA
ATOM     11  C   UNL     1       4.642   5.390  17.882  0.00  0.00    +0.000 A 
ATOM     12  N   UNL     1       5.069   6.042  16.692  0.00  0.00    +0.000 N 
ATOM     13  C   UNL     1       3.695   6.012  18.701  0.00  0.00    +0.000 A 
ATOM     14  C   UNL     1       3.072   7.265  18.448  0.00  0.00    +0.000 A 
ATOM     15  C   UNL     1       2.063   7.762  19.277  0.00  0.00    +0.000 A 
ATOM     16  N   UNL     1       1.375   8.999  19.014  0.00  0.00    +0.000 N 
ATOM     17  H   UNL     1       5.618   6.861  16.934  0.00  0.00    +0.000 HD
ENDROOT
BRANCH  12  18
ATOM     18  C   UNL     1       5.552   5.380  15.541  0.00  0.00    +0.000 A 
ATOM     19  C   UNL     1       6.902   5.475  15.161  0.00  0.00    +0.000 A 
ATOM     20  C   UNL     1       7.378   4.832  14.019  0.00  0.00    +0.000 A 
ATOM     21  C   UNL     1       6.509   4.057  13.259  0.00  0.00    +0.000 A 
ATOM     22 CL   UNL     1       7.075   3.304  11.820  0.00  0.00    +0.000 Cl
ATOM     23  C   UNL     1       5.184   3.889  13.657  0.00  0.00    +0.000 A 
ATOM     24  C   UNL     1       4.712   4.535  14.805  0.00  0.00    +0.000 A 
ENDBRANCH  12  18
BRANCH  16  25
ATOM     25  C   UNL     1       1.819   9.821  17.888  0.00  0.00    +0.000 C 
BRANCH  25  26
ATOM     26  C   UNL     1       2.557  11.131  18.161  0.00  0.00    +0.000 C 
BRANCH  26  27
ATOM     27  C   UNL     1       1.602  12.309  18.367  0.00  0.00    +0.000 C 
BRANCH  27  28
ATOM     28  N   UNL     1       1.962  13.091  19.562  0.00  0.00    +0.000 NA
ATOM     29  C   UNL     1       0.819  13.926  19.994  0.00  0.00    +0.000 C 
ATOM     30  C   UNL     1       0.513  15.074  19.016  0.00  0.00    +0.000 C 
ATOM     31  O   UNL     1       1.670  15.880  18.743  0.00  0.00    +0.000 OA
ATOM     32  C   UNL     1       2.782  15.088  18.307  0.00  0.00    +0.000 C 
ATOM     33  C   UNL     1       3.108  13.992  19.331  0.00  0.00    +0.000 C 
ENDBRANCH  27  28
ENDBRANCH  26  27
ENDBRANCH  25  26
ENDBRANCH  16  25
TORSDOF 5
ENDMDL
MODEL 4
REMARK VINA RESULT:      -7.3      1.196      1.774
REMARK  Name = 
REMARK  5 active torsions:
REMARK  status: ('A' for Active; 'I' for Inactive)
REMARK    1  A    between atoms: N_12  and  C_13
REMARK    2  A    between atoms: N_23  and  C_24
REMARK    3  A    between atoms: C_24  and  C_25
REMARK    4  A    between atoms: C_25  and  C_26
REMARK    5  A    between atoms: C_26  and  N_27
REMARK                            x       y       z     vdW  Elec       q    Type
REMARK                         _______ _______ _______ _____ _____    ______ ____
ROOT
ATOM      1  O   UNL     1       4.031   4.371  18.774  0.00  0.00    +0.000 OA
ATOM      2  C   UNL     1       3.206   5.175  19.205  0.00  0.00    +0.000 C 
ATOM      3  C   UNL     1       2.202   4.689  20.233  0.00  0.00    +0.000 C 
ATOM      4  O   UNL     1       1.739   5.601  21.201  0.00  0.00    +0.000 OA
ATOM      5  C   UNL     1       1.529   6.847  20.679  0.00  0.00    +0.000 A 
ATOM      6  C   UNL     1       0.703   7.662  21.457  0.00  0.00    +0.000 A 
ATOM      7  C   UNL     1       0.428   8.966  21.111  0.00  0.00    +0.000 A 
ATOM      8  N   UNL     1      -0.352   9.681  21.916  0.00  0.00    +0.000 NA
ATOM      9  C   UNL     1      -0.554  10.962  21.585  0.00  0.00    +0.000 A 
ATOM     10  N   UNL     1      -0.033  11.576  20.520  0.00  0.00    +0.000 NA
ATOM     11  C   UNL     1       0.758  10.840  19.715  0.00  0.00    +0.000 A 
ATOM     12  N   UNL     1       1.342  11.479  18.586  0.00  0.00    +0.000 N 
ATOM     13  C   UNL     1       1.011   9.484  19.942  0.00  0.00    +0.000 A 
ATOM     14  C   UNL     1       1.842   8.650  19.145  0.00  0.00    +0.000 A 
ATOM     15  C   UNL     1       2.115   7.328  19.506  0.00  0.00    +0.000 A 
ATOM     16  N   UNL     1       2.997   6.478  18.750  0.00  0.00    +0.000 N 
ATOM     17  H   UNL     1       0.916  11.119  17.738  0.00  0.00    +0.000 HD
ENDROOT
BRANCH  12  18
ATOM     18  C   UNL     1       1.640  12.858  18.507  0.00  0.00    +0.000 A 
ATOM     19  C   UNL     1       0.652  13.829  18.743  0.00  0.00    +0.000 A 
ATOM     20  C   UNL     1       0.942  15.191  18.653  0.00  0.00    +0.000 A 
ATOM     21  C   UNL     1       2.238  15.595  18.355  0.00  0.00    +0.000 A 
ATOM     22 CL   UNL     1       2.591  17.270  18.190  0.00  0.00    +0.000 Cl
ATOM     23  C   UNL     1       3.250  14.651  18.189  0.00  0.00    +0.000 A 
ATOM     24  C   UNL     1       2.955  13.287  18.283  0.00  0.00    +0.000 A 
ENDBRANCH  12  18
BRANCH  16  25
ATOM     25  C   UNL     1       3.555   6.986  17.496  0.00  0.00    +0.000 C 
BRANCH  25  26
ATOM     26  C   UNL     1       5.065   6.932  17.270  0.00  0.00    +0.000 C 
BRANCH  26  27
ATOM     27  C   UNL     1       5.430   6.478  15.855  0.00  0.00    +0.000 C 
BRANCH  27  28
ATOM     28  N   UNL     1       6.724   5.776  15.831  0.00  0.00    +0.000 NA
ATOM     29  C   UNL     1       7.075   5.391  14.446  0.00  0.00    +0.000 C 
ATOM     30  C   UNL     1       6.168   4.281  13.885  0.00  0.00    +0.000 C 
ATOM     31  O   UNL     1       6.117   3.132  14.745  0.00  0.00    +0.000 OA
ATOM     32  C   UNL     1       5.762   3.486  16.089  0.00  0.00    +0.000 C 
ATOM     33  C   UNL     1       6.721   4.546  16.647  0.00  0.00    +0.000 C 
ENDBRANCH  27  28
ENDBRANCH  26  27
ENDBRANCH  25  26
ENDBRANCH  16  25
TORSDOF 5
ENDMDL
MODEL 5
REMARK VINA RESULT:      -7.2      1.185      1.846
REMARK  Name = 
REMARK  5 active torsions:
REMARK  status: ('A' for Active; 'I' for Inactive)
REMARK    1  A    between atoms: N_12  and  C_13
REMARK    2  A    between atoms: N_23  and  C_24
REMARK    3  A    between atoms: C_24  and  C_25
REMARK    4  A    between atoms: C_25  and  C_26
REMARK    5  A    between atoms: C_26  and  N_27
REMARK                            x       y       z     vdW  Elec       q    Type
REMARK                         _______ _______ _______ _____ _____    ______ ____
ROOT
ATOM      1  O   UNL     1       3.670   4.598  18.915  0.00  0.00    +0.000 OA
ATOM      2  C   UNL     1       2.878   5.431  19.353  0.00  0.00    +0.000 C 
ATOM      3  C   UNL     1       1.894   4.992  20.419  0.00  0.00    +0.000 C 
ATOM      4  O   UNL     1       1.483   5.936  21.381  0.00  0.00    +0.000 OA
ATOM      5  C   UNL     1       1.288   7.176  20.838  0.00  0.00    +0.000 A 
ATOM      6  C   UNL     1       0.506   8.028  21.622  0.00  0.00    +0.000 A 
ATOM      7  C   UNL     1       0.254   9.331  21.257  0.00  0.00    +0.000 A 
ATOM      8  N   UNL     1      -0.484  10.082  22.068  0.00  0.00    +0.000 NA
ATOM      9  C   UNL     1      -0.662  11.361  21.716  0.00  0.00    +0.000 A 
ATOM     10  N   UNL     1      -0.158  11.940  20.623  0.00  0.00    +0.000 NA
ATOM     11  C   UNL     1       0.590  11.167  19.811  0.00  0.00    +0.000 A 
ATOM     12  N   UNL     1       1.156  11.767  18.653  0.00  0.00    +0.000 N 
ATOM     13  C   UNL     1       0.816   9.810  20.060  0.00  0.00    +0.000 A 
ATOM     14  C   UNL     1       1.601   8.938  19.257  0.00  0.00    +0.000 A 
ATOM     15  C   UNL     1       1.851   7.617  19.639  0.00  0.00    +0.000 A 
ATOM     16  N   UNL     1       2.690   6.729  18.876  0.00  0.00    +0.000 N 
ATOM     17  H   UNL     1       0.697  11.400  17.825  0.00  0.00    +0.000 HD
ENDROOT
BRANCH  12  18
ATOM     18  C   UNL     1       1.486  13.135  18.535  0.00  0.00    +0.000 A 
ATOM     19  C   UNL     1       0.529  14.136  18.772  0.00  0.00    +0.000 A 
ATOM     20  C   UNL     1       0.850  15.488  18.645  0.00  0.00    +0.000 A 
ATOM     21  C   UNL     1       2.149  15.852  18.308  0.00  0.00    +0.000 A 
ATOM     22 CL   UNL     1       2.539  17.514  18.097  0.00  0.00    +0.000 Cl
ATOM     23  C   UNL     1       3.132  14.880  18.140  0.00  0.00    +0.000 A 
ATOM     24  C   UNL     1       2.806  13.526  18.271  0.00  0.00    +0.000 A 
ENDBRANCH  12  18
BRANCH  16  25
ATOM     25  C   UNL     1       3.222   7.197  17.596  0.00  0.00    +0.000 C 
BRANCH  25  26
ATOM     26  C   UNL     1       4.724   7.104  17.330  0.00  0.00    +0.000 C 
BRANCH  26  27
ATOM     27  C   UNL     1       5.039   6.558  15.935  0.00  0.00    +0.000 C 
BRANCH  27  28
ATOM     28  N   UNL     1       5.081   5.087  15.929  0.00  0.00    +0.000 NA
ATOM     29  C   UNL     1       5.927   4.590  17.036  0.00  0.00    +0.000 C 
ATOM     30  C   UNL     1       7.422   4.892  16.828  0.00  0.00    +0.000 C 
ATOM     31  O   UNL     1       7.901   4.421  15.558  0.00  0.00    +0.000 OA
ATOM     32  C   UNL     1       7.101   4.907  14.472  0.00  0.00    +0.000 C 
ATOM     33  C   UNL     1       5.624   4.536  14.672  0.00  0.00    +0.000 C 
ENDBRANCH  27  28
ENDBRANCH  26  27
ENDBRANCH  25  26
ENDBRANCH  16  25
TORSDOF 5
ENDMDL
MODEL 6
REMARK VINA RESULT:      -7.2      3.893      8.397
REMARK  Name = 
REMARK  5 active torsions:
REMARK  status: ('A' for Active; 'I' for Inactive)
REMARK    1  A    between atoms: N_12  and  C_13
REMARK    2  A    between atoms: N_23  and  C_24
REMARK    3  A    between atoms: C_24  and  C_25
REMARK    4  A    between atoms: C_25  and  C_26
REMARK    5  A    between atoms: C_26  and  N_27
REMARK                            x       y       z     vdW  Elec       q    Type
REMARK                         _______ _______ _______ _____ _____    ______ ____
ROOT
ATOM      1  O   UNL     1      -0.412  10.559  19.765  0.00  0.00    +0.000 OA
ATOM      2  C   UNL     1       0.326   9.587  19.925  0.00  0.00    +0.000 C 
ATOM      3  C   UNL     1       0.248   8.838  21.241  0.00  0.00    +0.000 C 
ATOM      4  O   UNL     1       0.502   7.453  21.240  0.00  0.00    +0.000 OA
ATOM      5  C   UNL     1       1.528   7.116  20.401  0.00  0.00    +0.000 A 
ATOM      6  C   UNL     1       2.089   5.862  20.657  0.00  0.00    +0.000 A 
ATOM      7  C   UNL     1       3.095   5.338  19.876  0.00  0.00    +0.000 A 
ATOM      8  N   UNL     1       3.560   4.130  20.175  0.00  0.00    +0.000 NA
ATOM      9  C   UNL     1       4.496   3.623  19.363  0.00  0.00    +0.000 A 
ATOM     10  N   UNL     1       4.993   4.228  18.282  0.00  0.00    +0.000 NA
ATOM     11  C   UNL     1       4.510   5.452  17.990  0.00  0.00    +0.000 A 
ATOM     12  N   UNL     1       5.007   6.108  16.830  0.00  0.00    +0.000 N 
ATOM     13  C   UNL     1       3.556   6.095  18.785  0.00  0.00    +0.000 A 
ATOM     14  C   UNL     1       2.993   7.376  18.533  0.00  0.00    +0.000 A 
ATOM     15  C   UNL     1       1.971   7.897  19.332  0.00  0.00    +0.000 A 
ATOM     16  N   UNL     1       1.343   9.166  19.067  0.00  0.00    +0.000 N 
ATOM     17  H   UNL     1       5.577   6.900  17.110  0.00  0.00    +0.000 HD
ENDROOT
BRANCH  12  18
ATOM     18  C   UNL     1       5.509   5.448  15.686  0.00  0.00    +0.000 A 
ATOM     19  C   UNL     1       6.858   5.566  15.313  0.00  0.00    +0.000 A 
ATOM     20  C   UNL     1       7.352   4.925  14.177  0.00  0.00    +0.000 A 
ATOM     21  C   UNL     1       6.502   4.130  13.417  0.00  0.00    +0.000 A 
ATOM     22 CL   UNL     1       7.090   3.380  11.985  0.00  0.00    +0.000 Cl
ATOM     23  C   UNL     1       5.178   3.940  13.808  0.00  0.00    +0.000 A 
ATOM     24  C   UNL     1       4.688   4.583  14.950  0.00  0.00    +0.000 A 
ENDBRANCH  12  18
BRANCH  16  25
ATOM     25  C   UNL     1       1.862   9.990  17.975  0.00  0.00    +0.000 C 
BRANCH  25  26
ATOM     26  C   UNL     1       2.472  11.354  18.291  0.00  0.00    +0.000 C 
BRANCH  26  27
ATOM     27  C   UNL     1       1.495  12.505  18.042  0.00  0.00    +0.000 C 
BRANCH  27  28
ATOM     28  N   UNL     1       1.971  13.758  18.651  0.00  0.00    +0.000 NA
ATOM     29  C   UNL     1       2.335  13.536  20.068  0.00  0.00    +0.000 C 
ATOM     30  C   UNL     1       1.113  13.260  20.963  0.00  0.00    +0.000 C 
ATOM     31  O   UNL     1       0.107  14.278  20.840  0.00  0.00    +0.000 OA
ATOM     32  C   UNL     1      -0.269  14.494  19.473  0.00  0.00    +0.000 C 
ATOM     33  C   UNL     1       0.958  14.831  18.615  0.00  0.00    +0.000 C 
ENDBRANCH  27  28
ENDBRANCH  26  27
ENDBRANCH  25  26
ENDBRANCH  16  25
TORSDOF 5
ENDMDL
MODEL 7
REMARK VINA RESULT:      -7.0      3.998      8.450
REMARK  Name = 
REMARK  5 active torsions:
REMARK  status: ('A' for Active; 'I' for Inactive)
REMARK    1  A    between atoms: N_12  and  C_13
REMARK    2  A    between atoms: N_23  and  C_24
REMARK    3  A    between atoms: C_24  and  C_25
REMARK    4  A    between atoms: C_25  and  C_26
REMARK    5  A    between atoms: C_26  and  N_27
REMARK                            x       y       z     vdW  Elec       q    Type
REMARK                         _______ _______ _______ _____ _____    ______ ____
ROOT
ATOM      1  O   UNL     1       0.016  10.338  20.011  0.00  0.00    +0.000 OA
ATOM      2  C   UNL     1       0.695   9.316  20.100  0.00  0.00    +0.000 C 
ATOM      3  C   UNL     1       0.580   8.488  21.366  0.00  0.00    +0.000 C 
ATOM      4  O   UNL     1       0.752   7.094  21.271  0.00  0.00    +0.000 OA
ATOM      5  C   UNL     1       1.752   6.753  20.404  0.00  0.00    +0.000 A 
ATOM      6  C   UNL     1       2.240   5.454  20.572  0.00  0.00    +0.000 A 
ATOM      7  C   UNL     1       3.209   4.925  19.751  0.00  0.00    +0.000 A 
ATOM      8  N   UNL     1       3.604   3.675  19.966  0.00  0.00    +0.000 NA
ATOM      9  C   UNL     1       4.505   3.169  19.116  0.00  0.00    +0.000 A 
ATOM     10  N   UNL     1       5.032   3.814  18.072  0.00  0.00    +0.000 NA
ATOM     11  C   UNL     1       4.620   5.080  17.865  0.00  0.00    +0.000 A 
ATOM     12  N   UNL     1       5.150   5.781  16.746  0.00  0.00    +0.000 N 
ATOM     13  C   UNL     1       3.709   5.724  18.707  0.00  0.00    +0.000 A 
ATOM     14  C   UNL     1       3.221   7.050  18.545  0.00  0.00    +0.000 A 
ATOM     15  C   UNL     1       2.236   7.576  19.385  0.00  0.00    +0.000 A 
ATOM     16  N   UNL     1       1.682   8.893  19.208  0.00  0.00    +0.000 N 
ATOM     17  H   UNL     1       5.767   6.518  17.072  0.00  0.00    +0.000 HD
ENDROOT
BRANCH  12  18
ATOM     18  C   UNL     1       5.607   5.169  15.557  0.00  0.00    +0.000 A 
ATOM     19  C   UNL     1       4.737   4.427  14.741  0.00  0.00    +0.000 A 
ATOM     20  C   UNL     1       5.190   3.812  13.573  0.00  0.00    +0.000 A 
ATOM     21  C   UNL     1       6.519   3.963  13.194  0.00  0.00    +0.000 A 
ATOM     22 CL   UNL     1       7.097   3.164  11.784  0.00  0.00    +0.000 Cl
ATOM     23  C   UNL     1       7.381   4.754  13.949  0.00  0.00    +0.000 A 
ATOM     24  C   UNL     1       6.922   5.371  15.117  0.00  0.00    +0.000 A 
ENDBRANCH  12  18
BRANCH  16  25
ATOM     25  C   UNL     1       2.244   9.756  18.168  0.00  0.00    +0.000 C 
BRANCH  25  26
ATOM     26  C   UNL     1       1.597  11.111  17.888  0.00  0.00    +0.000 C 
BRANCH  26  27
ATOM     27  C   UNL     1       2.403  12.276  18.466  0.00  0.00    +0.000 C 
BRANCH  27  28
ATOM     28  N   UNL     1       1.772  13.572  18.163  0.00  0.00    +0.000 NA
ATOM     29  C   UNL     1       2.796  14.638  18.086  0.00  0.00    +0.000 C 
ATOM     30  C   UNL     1       3.418  14.968  19.455  0.00  0.00    +0.000 C 
ATOM     31  O   UNL     1       2.425  15.272  20.446  0.00  0.00    +0.000 OA
ATOM     32  C   UNL     1       1.433  14.241  20.544  0.00  0.00    +0.000 C 
ATOM     33  C   UNL     1       0.782  13.977  19.179  0.00  0.00    +0.000 C 
ENDBRANCH  27  28
ENDBRANCH  26  27
ENDBRANCH  25  26
ENDBRANCH  16  25
TORSDOF 5
ENDMDL
MODEL 8
REMARK VINA RESULT:      -7.0      6.441      8.846
REMARK  Name = 
REMARK  5 active torsions:
REMARK  status: ('A' for Active; 'I' for Inactive)
REMARK    1  A    between atoms: N_12  and  C_13
REMARK    2  A    between atoms: N_23  and  C_24
REMARK    3  A    between atoms: C_24  and  C_25
REMARK    4  A    between atoms: C_25  and  C_26
REMARK    5  A    between atoms: C_26  and  N_27
REMARK                            x       y       z     vdW  Elec       q    Type
REMARK                         _______ _______ _______ _____ _____    ______ ____
ROOT
ATOM      1  O   UNL     1      -7.912  11.104  20.861  0.00  0.00    +0.000 OA
ATOM      2  C   UNL     1      -7.049  11.785  21.414  0.00  0.00    +0.000 C 
ATOM      3  C   UNL     1      -7.280  12.201  22.854  0.00  0.00    +0.000 C 
ATOM      4  O   UNL     1      -6.161  12.351  23.695  0.00  0.00    +0.000 OA
ATOM      5  C   UNL     1      -5.103  12.930  23.050  0.00  0.00    +0.000 A 
ATOM      6  C   UNL     1      -4.138  13.473  23.904  0.00  0.00    +0.000 A 
ATOM      7  C   UNL     1      -2.981  14.046  23.429  0.00  0.00    +0.000 A 
ATOM      8  N   UNL     1      -2.105  14.521  24.308  0.00  0.00    +0.000 NA
ATOM      9  C   UNL     1      -0.963  15.019  23.819  0.00  0.00    +0.000 A 
ATOM     10  N   UNL     1      -0.634  15.072  22.526  0.00  0.00    +0.000 NA
ATOM     11  C   UNL     1      -1.530  14.584  21.646  0.00  0.00    +0.000 A 
ATOM     12  N   UNL     1      -1.193  14.609  20.264  0.00  0.00    +0.000 N 
ATOM     13  C   UNL     1      -2.770  14.071  22.039  0.00  0.00    +0.000 A 
ATOM     14  C   UNL     1      -3.758  13.530  21.171  0.00  0.00    +0.000 A 
ATOM     15  C   UNL     1      -4.929  12.950  21.665  0.00  0.00    +0.000 A 
ATOM     16  N   UNL     1      -5.920  12.343  20.814  0.00  0.00    +0.000 N 
ATOM     17  H   UNL     1      -1.776  15.289  19.787  0.00  0.00    +0.000 HD
ENDROOT
BRANCH  12  18
ATOM     18  C   UNL     1       0.125  14.567  19.758  0.00  0.00    +0.000 A 
ATOM     19  C   UNL     1       0.797  15.743  19.383  0.00  0.00    +0.000 A 
ATOM     20  C   UNL     1       2.095  15.703  18.872  0.00  0.00    +0.000 A 
ATOM     21  C   UNL     1       2.746  14.479  18.759  0.00  0.00    +0.000 A 
ATOM     22 CL   UNL     1       4.325  14.415  18.080  0.00  0.00    +0.000 Cl
ATOM     23  C   UNL     1       2.127  13.309  19.192  0.00  0.00    +0.000 A 
ATOM     24  C   UNL     1       0.827  13.355  19.707  0.00  0.00    +0.000 A 
ENDBRANCH  12  18
BRANCH  16  25
ATOM     25  C   UNL     1      -5.741  12.425  19.364  0.00  0.00    +0.000 C 
BRANCH  25  26
ATOM     26  C   UNL     1      -6.126  11.230  18.492  0.00  0.00    +0.000 C 
BRANCH  26  27
ATOM     27  C   UNL     1      -4.906  10.514  17.908  0.00  0.00    +0.000 C 
BRANCH  27  28
ATOM     28  N   UNL     1      -3.981  11.462  17.264  0.00  0.00    +0.000 NA
ATOM     29  C   UNL     1      -3.865  11.167  15.819  0.00  0.00    +0.000 C 
ATOM     30  C   UNL     1      -3.122   9.849  15.536  0.00  0.00    +0.000 C 
ATOM     31  O   UNL     1      -1.840   9.797  16.181  0.00  0.00    +0.000 OA
ATOM     32  C   UNL     1      -1.937  10.065  17.586  0.00  0.00    +0.000 C 
ATOM     33  C   UNL     1      -2.623  11.415  17.839  0.00  0.00    +0.000 C 
ENDBRANCH  27  28
ENDBRANCH  26  27
ENDBRANCH  25  26
ENDBRANCH  16  25
TORSDOF 5
ENDMDL
MODEL 9
REMARK VINA RESULT:      -6.9      5.269      8.319
REMARK  Name = 
REMARK  5 active torsions:
REMARK  status: ('A' for Active; 'I' for Inactive)
REMARK    1  A    between atoms: N_12  and  C_13
REMARK    2  A    between atoms: N_23  and  C_24
REMARK    3  A    between atoms: C_24  and  C_25
REMARK    4  A    between atoms: C_25  and  C_26
REMARK    5  A    between atoms: C_26  and  N_27
REMARK                            x       y       z     vdW  Elec       q    Type
REMARK                         _______ _______ _______ _____ _____    ______ ____
ROOT
ATOM      1  O   UNL     1       3.962  17.292  19.654  0.00  0.00    +0.000 OA
ATOM      2  C   UNL     1       3.012  16.516  19.569  0.00  0.00    +0.000 C 
ATOM      3  C   UNL     1       1.632  17.098  19.330  0.00  0.00    +0.000 C 
ATOM      4  O   UNL     1       0.705  16.340  18.588  0.00  0.00    +0.000 OA
ATOM      5  C   UNL     1       0.766  15.008  18.890  0.00  0.00    +0.000 A 
ATOM      6  C   UNL     1      -0.368  14.283  18.515  0.00  0.00    +0.000 A 
ATOM      7  C   UNL     1      -0.456  12.921  18.693  0.00  0.00    +0.000 A 
ATOM      8  N   UNL     1      -1.562  12.303  18.290  0.00  0.00    +0.000 NA
ATOM      9  C   UNL     1      -1.595  10.971  18.422  0.00  0.00    +0.000 A 
ATOM     10  N   UNL     1      -0.610  10.219  18.918  0.00  0.00    +0.000 NA
ATOM     11  C   UNL     1       0.506  10.859  19.320  0.00  0.00    +0.000 A 
ATOM     12  N   UNL     1       1.579  10.076  19.831  0.00  0.00    +0.000 N 
ATOM     13  C   UNL     1       0.640  12.249  19.262  0.00  0.00    +0.000 A 
ATOM     14  C   UNL     1       1.788  12.990  19.655  0.00  0.00    +0.000 A 
ATOM     15  C   UNL     1       1.866  14.373  19.469  0.00  0.00    +0.000 A 
ATOM     16  N   UNL     1       3.038  15.141  19.804  0.00  0.00    +0.000 N 
ATOM     17  H   UNL     1       1.671  10.244  20.828  0.00  0.00    +0.000 HD
ENDROOT
BRANCH  12  18
ATOM     18  C   UNL     1       1.835   8.734  19.475  0.00  0.00    +0.000 A 
ATOM     19  C   UNL     1       2.287   8.397  18.188  0.00  0.00    +0.000 A 
ATOM     20  C   UNL     1       2.529   7.070  17.831  0.00  0.00    +0.000 A 
ATOM     21  C   UNL     1       2.351   6.066  18.775  0.00  0.00    +0.000 A 
ATOM     22 CL   UNL     1       2.596   4.423  18.327  0.00  0.00    +0.000 Cl
ATOM     23  C   UNL     1       1.974   6.383  20.079  0.00  0.00    +0.000 A 
ATOM     24  C   UNL     1       1.735   7.715  20.432  0.00  0.00    +0.000 A 
ENDBRANCH  12  18
BRANCH  16  25
ATOM     25  C   UNL     1       4.156  14.462  20.458  0.00  0.00    +0.000 C 
BRANCH  25  26
ATOM     26  C   UNL     1       4.185  14.365  21.983  0.00  0.00    +0.000 C 
BRANCH  26  27
ATOM     27  C   UNL     1       5.602  14.182  22.532  0.00  0.00    +0.000 C 
BRANCH  27  28
ATOM     28  N   UNL     1       5.603  13.384  23.769  0.00  0.00    +0.000 NA
ATOM     29  C   UNL     1       6.529  13.973  24.762  0.00  0.00    +0.000 C 
ATOM     30  C   UNL     1       8.008  13.828  24.360  0.00  0.00    +0.000 C 
ATOM     31  O   UNL     1       8.361  12.468  24.064  0.00  0.00    +0.000 OA
ATOM     32  C   UNL     1       7.483  11.887  23.091  0.00  0.00    +0.000 C 
ATOM     33  C   UNL     1       6.020  11.986  23.546  0.00  0.00    +0.000 C 
ENDBRANCH  27  28
ENDBRANCH  26  27
ENDBRANCH  25  26
ENDBRANCH  16  25
TORSDOF 5
ENDMDL
