MODEL 1
REMARK VINA RESULT:      -6.8      0.000      0.000
REMARK  Name = 
REMARK  12 active torsions:
REMARK  status: ('A' for Active; 'I' for Inactive)
REMARK    1  A    between atoms: C_1  and  O_2
REMARK    2  A    between atoms: O_2  and  C_3
REMARK    3  A    between atoms: C_7  and  C_8
REMARK    4  A    between atoms: C_8  and  O_9
REMARK    5  A    between atoms: O_9  and  C_10
REMARK    6  A    between atoms: C_10  and  C_11
REMARK    7  A    between atoms: C_11  and  O_12
REMARK    8  A    between atoms: C_11  and  C_13
REMARK    9  A    between atoms: C_13  and  N_14
REMARK   10  A    between atoms: N_14  and  C_15
REMARK   11  A    between atoms: N_14  and  C_16
REMARK   12  A    between atoms: C_19  and  C_20
REMARK                            x       y       z     vdW  Elec       q    Type
REMARK                         _______ _______ _______ _____ _____    ______ ____
ROOT
ATOM      1  C   UNL     1       2.320   3.381  21.026  0.00  0.00    +0.000 C 
ENDROOT
BRANCH   1   2
ATOM      2  O   UNL     1       1.895   2.640  22.183  0.00  0.00    +0.000 OA
ATOM      3  H   UNL     1       1.736   1.722  21.911  0.00  0.00    +0.000 HD
ENDBRANCH   1   2
BRANCH   1   4
ATOM      4  C   UNL     1       1.095   3.980  20.315  0.00  0.00    +0.000 C 
BRANCH   4   5
ATOM      5  O   UNL     1       1.001   5.347  20.710  0.00  0.00    +0.000 OA
BRANCH   5   6
ATOM      6  C   UNL     1       2.231   6.054  20.632  0.00  0.00    +0.000 C 
BRANCH   6  11
ATOM      7  C   UNL     1       1.091   9.540  19.585  0.00  0.00    +0.000 A 
ATOM      8  C   UNL     1       1.599   9.613  18.286  0.00  0.00    +0.000 A 
ATOM      9  C   UNL     1       2.323   8.551  17.747  0.00  0.00    +0.000 A 
ATOM     10  C   UNL     1       2.534   7.404  18.507  0.00  0.00    +0.000 A 
ATOM     11  C   UNL     1       2.014   7.299  19.806  0.00  0.00    +0.000 A 
ATOM     12  C   UNL     1       1.309   8.389  20.345  0.00  0.00    +0.000 A 
BRANCH   7  14
ATOM     13  C   UNL     1      -0.589  11.148  19.090  0.00  0.00    +0.000 C 
ATOM     14  O   UNL     1       0.396  10.649  19.986  0.00  0.00    +0.000 OA
ENDBRANCH   7  14
ENDBRANCH   6  11
ENDBRANCH   5   6
ENDBRANCH   4   5
ENDBRANCH   1   4
BRANCH   1  15
ATOM     15  C   UNL     1       3.129   2.483  20.068  0.00  0.00    +0.000 C 
BRANCH  15  16
ATOM     16  N   UNL     1       3.251   2.969  18.678  0.00  0.00    +0.000 N 
ATOM     17  C   UNL     1       2.621   2.229  17.583  0.00  0.00    +0.000 C 
BRANCH  16  18
ATOM     18  C   UNL     1       4.205   3.940  18.353  0.00  0.00    +0.000 A 
ATOM     19  C   UNL     1       5.155   4.402  19.282  0.00  0.00    +0.000 A 
ATOM     20  C   UNL     1       6.075   5.413  18.972  0.00  0.00    +0.000 A 
ATOM     21  C   UNL     1       6.083   5.990  17.706  0.00  0.00    +0.000 A 
ATOM     22  C   UNL     1       5.174   5.541  16.752  0.00  0.00    +0.000 A 
ATOM     23  C   UNL     1       4.254   4.536  17.078  0.00  0.00    +0.000 A 
BRANCH  21  24
ATOM     24  C   UNL     1       7.007   7.036  17.394  0.00  0.00    +0.000 C 
ATOM     25  N   UNL     1       7.763   7.882  17.141  0.00  0.00    +0.000 NA
ENDBRANCH  21  24
ENDBRANCH  16  18
ENDBRANCH  15  16
ENDBRANCH   1  15
TORSDOF 10
ENDMDL
MODEL 2
REMARK VINA RESULT:      -6.3      1.105      1.445
REMARK  Name = 
REMARK  12 active torsions:
REMARK  status: ('A' for Active; 'I' for Inactive)
REMARK    1  A    between atoms: C_1  and  O_2
REMARK    2  A    between atoms: O_2  and  C_3
REMARK    3  A    between atoms: C_7  and  C_8
REMARK    4  A    between atoms: C_8  and  O_9
REMARK    5  A    between atoms: O_9  and  C_10
REMARK    6  A    between atoms: C_10  and  C_11
REMARK    7  A    between atoms: C_11  and  O_12
REMARK    8  A    between atoms: C_11  and  C_13
REMARK    9  A    between atoms: C_13  and  N_14
REMARK   10  A    between atoms: N_14  and  C_15
REMARK   11  A    between atoms: N_14  and  C_16
REMARK   12  A    between atoms: C_19  and  C_20
REMARK                            x       y       z     vdW  Elec       q    Type
REMARK                         _______ _______ _______ _____ _____    ______ ____
ROOT
ATOM      1  C   UNL     1       1.960   3.113  21.189  0.00  0.00    +0.000 C 
ENDROOT
BRANCH   1   2
ATOM      2  O   UNL     1       1.401   2.546  22.387  0.00  0.00    +0.000 OA
ATOM      3  H   UNL     1       1.973   1.815  22.670  0.00  0.00    +0.000 HD
ENDBRANCH   1   2
BRANCH   1   4
ATOM      4  C   UNL     1       0.887   3.933  20.453  0.00  0.00    +0.000 C 
BRANCH   4   5
ATOM      5  O   UNL     1       1.567   4.851  19.600  0.00  0.00    +0.000 OA
BRANCH   5   6
ATOM      6  C   UNL     1       2.295   5.853  20.296  0.00  0.00    +0.000 C 
BRANCH   6  11
ATOM      7  C   UNL     1       1.118   9.437  19.727  0.00  0.00    +0.000 A 
ATOM      8  C   UNL     1       1.533   9.653  18.412  0.00  0.00    +0.000 A 
ATOM      9  C   UNL     1       2.206   8.656  17.708  0.00  0.00    +0.000 A 
ATOM     10  C   UNL     1       2.460   7.431  18.318  0.00  0.00    +0.000 A 
ATOM     11  C   UNL     1       2.032   7.183  19.632  0.00  0.00    +0.000 A 
ATOM     12  C   UNL     1       1.378   8.207  20.337  0.00  0.00    +0.000 A 
BRANCH   7  14
ATOM     13  C   UNL     1      -0.685  10.981  19.618  0.00  0.00    +0.000 C 
ATOM     14  O   UNL     1       0.465  10.495  20.299  0.00  0.00    +0.000 OA
ENDBRANCH   7  14
ENDBRANCH   6  11
ENDBRANCH   5   6
ENDBRANCH   4   5
ENDBRANCH   1   4
BRANCH   1  15
ATOM     15  C   UNL     1       2.533   2.009  20.278  0.00  0.00    +0.000 C 
BRANCH  15  16
ATOM     16  N   UNL     1       3.942   2.181  19.865  0.00  0.00    +0.000 N 
ATOM     17  C   UNL     1       5.019   1.620  20.682  0.00  0.00    +0.000 C 
BRANCH  16  18
ATOM     18  C   UNL     1       4.279   3.123  18.887  0.00  0.00    +0.000 A 
ATOM     19  C   UNL     1       5.191   4.167  19.130  0.00  0.00    +0.000 A 
ATOM     20  C   UNL     1       5.487   5.141  18.168  0.00  0.00    +0.000 A 
ATOM     21  C   UNL     1       4.884   5.095  16.915  0.00  0.00    +0.000 A 
ATOM     22  C   UNL     1       3.995   4.064  16.628  0.00  0.00    +0.000 A 
ATOM     23  C   UNL     1       3.701   3.101  17.603  0.00  0.00    +0.000 A 
BRANCH  21  24
ATOM     24  C   UNL     1       5.169   6.101  15.938  0.00  0.00    +0.000 C 
ATOM     25  N   UNL     1       5.404   6.914  15.141  0.00  0.00    +0.000 NA
ENDBRANCH  21  24
ENDBRANCH  16  18
ENDBRANCH  15  16
ENDBRANCH   1  15
TORSDOF 10
ENDMDL
MODEL 3
REMARK VINA RESULT:      -6.3      0.933      1.457
REMARK  Name = 
REMARK  12 active torsions:
REMARK  status: ('A' for Active; 'I' for Inactive)
REMARK    1  A    between atoms: C_1  and  O_2
REMARK    2  A    between atoms: O_2  and  C_3
REMARK    3  A    between atoms: C_7  and  C_8
REMARK    4  A    between atoms: C_8  and  O_9
REMARK    5  A    between atoms: O_9  and  C_10
REMARK    6  A    between atoms: C_10  and  C_11
REMARK    7  A    between atoms: C_11  and  O_12
REMARK    8  A    between atoms: C_11  and  C_13
REMARK    9  A    between atoms: C_13  and  N_14
REMARK   10  A    between atoms: N_14  and  C_15
REMARK   11  A    between atoms: N_14  and  C_16
REMARK   12  A    between atoms: C_19  and  C_20
REMARK                            x       y       z     vdW  Elec       q    Type
REMARK                         _______ _______ _______ _____ _____    ______ ____
ROOT
ATOM      1  C   UNL     1       1.120   2.908  19.583  0.00  0.00    +0.000 C 
ENDROOT
BRANCH   1   2
ATOM      2  O   UNL     1       0.883   2.973  18.166  0.00  0.00    +0.000 OA
ATOM      3  H   UNL     1       0.853   3.908  17.909  0.00  0.00    +0.000 HD
ENDBRANCH   1   2
BRANCH   1   4
ATOM      4  C   UNL     1       0.807   4.270  20.225  0.00  0.00    +0.000 C 
BRANCH   4   5
ATOM      5  O   UNL     1       1.977   5.075  20.105  0.00  0.00    +0.000 OA
BRANCH   5   6
ATOM      6  C   UNL     1       1.944   6.260  20.889  0.00  0.00    +0.000 C 
BRANCH   6  11
ATOM      7  C   UNL     1       1.081   9.712  19.514  0.00  0.00    +0.000 A 
ATOM      8  C   UNL     1       1.665   9.652  18.246  0.00  0.00    +0.000 A 
ATOM      9  C   UNL     1       2.351   8.511  17.835  0.00  0.00    +0.000 A 
ATOM     10  C   UNL     1       2.448   7.417  18.690  0.00  0.00    +0.000 A 
ATOM     11  C   UNL     1       1.851   7.446  19.960  0.00  0.00    +0.000 A 
ATOM     12  C   UNL     1       1.185   8.613  20.371  0.00  0.00    +0.000 A 
BRANCH   7  14
ATOM     13  C   UNL     1      -0.086  11.605  18.677  0.00  0.00    +0.000 C 
ATOM     14  O   UNL     1       0.435  10.886  19.787  0.00  0.00    +0.000 OA
ENDBRANCH   7  14
ENDBRANCH   6  11
ENDBRANCH   5   6
ENDBRANCH   4   5
ENDBRANCH   1   4
BRANCH   1  15
ATOM     15  C   UNL     1       2.574   2.482  19.875  0.00  0.00    +0.000 C 
BRANCH  15  16
ATOM     16  N   UNL     1       3.481   2.448  18.709  0.00  0.00    +0.000 N 
ATOM     17  C   UNL     1       3.839   1.169  18.094  0.00  0.00    +0.000 C 
BRANCH  16  18
ATOM     18  C   UNL     1       4.242   3.575  18.377  0.00  0.00    +0.000 A 
ATOM     19  C   UNL     1       4.141   4.209  17.125  0.00  0.00    +0.000 A 
ATOM     20  C   UNL     1       4.942   5.304  16.773  0.00  0.00    +0.000 A 
ATOM     21  C   UNL     1       5.871   5.812  17.677  0.00  0.00    +0.000 A 
ATOM     22  C   UNL     1       5.982   5.227  18.934  0.00  0.00    +0.000 A 
ATOM     23  C   UNL     1       5.181   4.127  19.270  0.00  0.00    +0.000 A 
BRANCH  21  24
ATOM     24  C   UNL     1       6.705   6.916  17.313  0.00  0.00    +0.000 C 
ATOM     25  N   UNL     1       7.377   7.817  17.019  0.00  0.00    +0.000 NA
ENDBRANCH  21  24
ENDBRANCH  16  18
ENDBRANCH  15  16
ENDBRANCH   1  15
TORSDOF 10
ENDMDL
MODEL 4
REMARK VINA RESULT:      -6.0      2.847      5.360
REMARK  Name = 
REMARK  12 active torsions:
REMARK  status: ('A' for Active; 'I' for Inactive)
REMARK    1  A    between atoms: C_1  and  O_2
REMARK    2  A    between atoms: O_2  and  C_3
REMARK    3  A    between atoms: C_7  and  C_8
REMARK    4  A    between atoms: C_8  and  O_9
REMARK    5  A    between atoms: O_9  and  C_10
REMARK    6  A    between atoms: C_10  and  C_11
REMARK    7  A    between atoms: C_11  and  O_12
REMARK    8  A    between atoms: C_11  and  C_13
REMARK    9  A    between atoms: C_13  and  N_14
REMARK   10  A    between atoms: N_14  and  C_15
REMARK   11  A    between atoms: N_14  and  C_16
REMARK   12  A    between atoms: C_19  and  C_20
REMARK                            x       y       z     vdW  Elec       q    Type
REMARK                         _______ _______ _______ _____ _____    ______ ____
ROOT
ATOM      1  C   UNL     1       1.173   2.587  18.711  0.00  0.00    +0.000 C 
ENDROOT
BRANCH   1   2
ATOM      2  O   UNL     1       0.154   1.639  18.346  0.00  0.00    +0.000 OA
ATOM      3  H   UNL     1      -0.192   1.241  19.161  0.00  0.00    +0.000 HD
ENDBRANCH   1   2
BRANCH   1   4
ATOM      4  C   UNL     1       2.462   1.842  19.095  0.00  0.00    +0.000 C 
BRANCH   4   5
ATOM      5  O   UNL     1       3.513   2.370  18.291  0.00  0.00    +0.000 OA
BRANCH   5   6
ATOM      6  C   UNL     1       4.590   2.919  19.038  0.00  0.00    +0.000 C 
BRANCH   6  11
ATOM      7  C   UNL     1       5.699   5.029  16.060  0.00  0.00    +0.000 A 
ATOM      8  C   UNL     1       6.401   6.053  16.700  0.00  0.00    +0.000 A 
ATOM      9  C   UNL     1       6.507   6.079  18.089  0.00  0.00    +0.000 A 
ATOM     10  C   UNL     1       5.916   5.071  18.846  0.00  0.00    +0.000 A 
ATOM     11  C   UNL     1       5.224   4.020  18.224  0.00  0.00    +0.000 A 
ATOM     12  C   UNL     1       5.103   4.022  16.824  0.00  0.00    +0.000 A 
BRANCH   7  14
ATOM     13  C   UNL     1       6.877   4.787  14.011  0.00  0.00    +0.000 C 
ATOM     14  O   UNL     1       5.677   5.121  14.695  0.00  0.00    +0.000 OA
ENDBRANCH   7  14
ENDBRANCH   6  11
ENDBRANCH   5   6
ENDBRANCH   4   5
ENDBRANCH   1   4
BRANCH   1  15
ATOM     15  C   UNL     1       0.692   3.489  19.866  0.00  0.00    +0.000 C 
BRANCH  15  16
ATOM     16  N   UNL     1       1.702   4.411  20.426  0.00  0.00    +0.000 N 
ATOM     17  C   UNL     1       2.309   4.132  21.729  0.00  0.00    +0.000 C 
BRANCH  16  18
ATOM     18  C   UNL     1       1.861   5.692  19.887  0.00  0.00    +0.000 A 
ATOM     19  C   UNL     1       1.545   6.858  20.608  0.00  0.00    +0.000 A 
ATOM     20  C   UNL     1       1.654   8.138  20.049  0.00  0.00    +0.000 A 
ATOM     21  C   UNL     1       2.099   8.296  18.740  0.00  0.00    +0.000 A 
ATOM     22  C   UNL     1       2.445   7.167  18.002  0.00  0.00    +0.000 A 
ATOM     23  C   UNL     1       2.323   5.892  18.571  0.00  0.00    +0.000 A 
BRANCH  21  24
ATOM     24  C   UNL     1       2.191   9.600  18.159  0.00  0.00    +0.000 C 
ATOM     25  N   UNL     1       2.261  10.662  17.692  0.00  0.00    +0.000 NA
ENDBRANCH  21  24
ENDBRANCH  16  18
ENDBRANCH  15  16
ENDBRANCH   1  15
TORSDOF 10
ENDMDL
MODEL 5
REMARK VINA RESULT:      -5.9      1.014      1.900
REMARK  Name = 
REMARK  12 active torsions:
REMARK  status: ('A' for Active; 'I' for Inactive)
REMARK    1  A    between atoms: C_1  and  O_2
REMARK    2  A    between atoms: O_2  and  C_3
REMARK    3  A    between atoms: C_7  and  C_8
REMARK    4  A    between atoms: C_8  and  O_9
REMARK    5  A    between atoms: O_9  and  C_10
REMARK    6  A    between atoms: C_10  and  C_11
REMARK    7  A    between atoms: C_11  and  O_12
REMARK    8  A    between atoms: C_11  and  C_13
REMARK    9  A    between atoms: C_13  and  N_14
REMARK   10  A    between atoms: N_14  and  C_15
REMARK   11  A    between atoms: N_14  and  C_16
REMARK   12  A    between atoms: C_19  and  C_20
REMARK                            x       y       z     vdW  Elec       q    Type
REMARK                         _______ _______ _______ _____ _____    ______ ____
ROOT
ATOM      1  C   UNL     1       1.784   3.427  20.592  0.00  0.00    +0.000 C 
ENDROOT
BRANCH   1   2
ATOM      2  O   UNL     1       0.905   3.545  19.460  0.00  0.00    +0.000 OA
ATOM      3  H   UNL     1       1.367   3.195  18.682  0.00  0.00    +0.000 HD
ENDBRANCH   1   2
BRANCH   1   4
ATOM      4  C   UNL     1       2.125   4.825  21.134  0.00  0.00    +0.000 C 
BRANCH   4   5
ATOM      5  O   UNL     1       1.459   5.775  20.306  0.00  0.00    +0.000 OA
BRANCH   5   6
ATOM      6  C   UNL     1       2.292   6.837  19.864  0.00  0.00    +0.000 C 
BRANCH   6  11
ATOM      7  C   UNL     1       0.758  10.318  19.579  0.00  0.00    +0.000 A 
ATOM      8  C   UNL     1       0.427  10.578  20.911  0.00  0.00    +0.000 A 
ATOM      9  C   UNL     1       0.680   9.632  21.902  0.00  0.00    +0.000 A 
ATOM     10  C   UNL     1       1.275   8.419  21.564  0.00  0.00    +0.000 A 
ATOM     11  C   UNL     1       1.637   8.145  20.236  0.00  0.00    +0.000 A 
ATOM     12  C   UNL     1       1.352   9.099  19.244  0.00  0.00    +0.000 A 
BRANCH   7  14
ATOM     13  C   UNL     1      -0.895  11.447  18.298  0.00  0.00    +0.000 C 
ATOM     14  O   UNL     1       0.461  11.333  18.711  0.00  0.00    +0.000 OA
ENDBRANCH   7  14
ENDBRANCH   6  11
ENDBRANCH   5   6
ENDBRANCH   4   5
ENDBRANCH   1   4
BRANCH   1  15
ATOM     15  C   UNL     1       3.065   2.656  20.211  0.00  0.00    +0.000 C 
BRANCH  15  16
ATOM     16  N   UNL     1       3.539   2.842  18.824  0.00  0.00    +0.000 N 
ATOM     17  C   UNL     1       3.447   1.741  17.863  0.00  0.00    +0.000 C 
BRANCH  16  18
ATOM     18  C   UNL     1       4.350   3.934  18.498  0.00  0.00    +0.000 A 
ATOM     19  C   UNL     1       4.160   4.690  17.327  0.00  0.00    +0.000 A 
ATOM     20  C   UNL     1       5.005   5.751  16.974  0.00  0.00    +0.000 A 
ATOM     21  C   UNL     1       6.072   6.100  17.796  0.00  0.00    +0.000 A 
ATOM     22  C   UNL     1       6.278   5.392  18.976  0.00  0.00    +0.000 A 
ATOM     23  C   UNL     1       5.430   4.328  19.313  0.00  0.00    +0.000 A 
BRANCH  21  24
ATOM     24  C   UNL     1       6.950   7.169  17.428  0.00  0.00    +0.000 C 
ATOM     25  N   UNL     1       7.658   8.039  17.124  0.00  0.00    +0.000 NA
ENDBRANCH  21  24
ENDBRANCH  16  18
ENDBRANCH  15  16
ENDBRANCH   1  15
TORSDOF 10
ENDMDL
MODEL 6
REMARK VINA RESULT:      -5.9      0.940      1.495
REMARK  Name = 
REMARK  12 active torsions:
REMARK  status: ('A' for Active; 'I' for Inactive)
REMARK    1  A    between atoms: C_1  and  O_2
REMARK    2  A    between atoms: O_2  and  C_3
REMARK    3  A    between atoms: C_7  and  C_8
REMARK    4  A    between atoms: C_8  and  O_9
REMARK    5  A    between atoms: O_9  and  C_10
REMARK    6  A    between atoms: C_10  and  C_11
REMARK    7  A    between atoms: C_11  and  O_12
REMARK    8  A    between atoms: C_11  and  C_13
REMARK    9  A    between atoms: C_13  and  N_14
REMARK   10  A    between atoms: N_14  and  C_15
REMARK   11  A    between atoms: N_14  and  C_16
REMARK   12  A    between atoms: C_19  and  C_20
REMARK                            x       y       z     vdW  Elec       q    Type
REMARK                         _______ _______ _______ _____ _____    ______ ____
ROOT
ATOM      1  C   UNL     1       2.434   3.684  20.805  0.00  0.00    +0.000 C 
ENDROOT
BRANCH   1   2
ATOM      2  O   UNL     1       2.176   2.864  21.959  0.00  0.00    +0.000 OA
ATOM      3  H   UNL     1       2.755   3.164  22.677  0.00  0.00    +0.000 HD
ENDBRANCH   1   2
BRANCH   1   4
ATOM      4  C   UNL     1       1.582   4.962  20.876  0.00  0.00    +0.000 C 
BRANCH   4   5
ATOM      5  O   UNL     1       1.745   5.650  19.638  0.00  0.00    +0.000 OA
BRANCH   5   6
ATOM      6  C   UNL     1       2.603   6.780  19.716  0.00  0.00    +0.000 C 
BRANCH   6  11
ATOM      7  C   UNL     1       0.714  10.066  19.289  0.00  0.00    +0.000 A 
ATOM      8  C   UNL     1       0.216  10.261  20.579  0.00  0.00    +0.000 A 
ATOM      9  C   UNL     1       0.471   9.333  21.586  0.00  0.00    +0.000 A 
ATOM     10  C   UNL     1       1.235   8.203  21.307  0.00  0.00    +0.000 A 
ATOM     11  C   UNL     1       1.765   7.997  20.024  0.00  0.00    +0.000 A 
ATOM     12  C   UNL     1       1.477   8.929  19.012  0.00  0.00    +0.000 A 
BRANCH   7  14
ATOM     13  C   UNL     1      -0.508  12.057  18.852  0.00  0.00    +0.000 C 
ATOM     14  O   UNL     1       0.394  11.055  18.399  0.00  0.00    +0.000 OA
ENDBRANCH   7  14
ENDBRANCH   6  11
ENDBRANCH   5   6
ENDBRANCH   4   5
ENDBRANCH   1   4
BRANCH   1  15
ATOM     15  C   UNL     1       2.152   2.904  19.505  0.00  0.00    +0.000 C 
BRANCH  15  16
ATOM     16  N   UNL     1       3.323   2.644  18.643  0.00  0.00    +0.000 N 
ATOM     17  C   UNL     1       3.765   1.270  18.398  0.00  0.00    +0.000 C 
BRANCH  16  18
ATOM     18  C   UNL     1       4.197   3.685  18.310  0.00  0.00    +0.000 A 
ATOM     19  C   UNL     1       5.281   4.050  19.129  0.00  0.00    +0.000 A 
ATOM     20  C   UNL     1       6.123   5.127  18.822  0.00  0.00    +0.000 A 
ATOM     21  C   UNL     1       5.913   5.874  17.667  0.00  0.00    +0.000 A 
ATOM     22  C   UNL     1       4.865   5.529  16.819  0.00  0.00    +0.000 A 
ATOM     23  C   UNL     1       4.025   4.455  17.142  0.00  0.00    +0.000 A 
BRANCH  21  24
ATOM     24  C   UNL     1       6.758   6.988  17.362  0.00  0.00    +0.000 C 
ATOM     25  N   UNL     1       7.449   7.890  17.120  0.00  0.00    +0.000 NA
ENDBRANCH  21  24
ENDBRANCH  16  18
ENDBRANCH  15  16
ENDBRANCH   1  15
TORSDOF 10
ENDMDL
MODEL 7
REMARK VINA RESULT:      -5.9      4.591      6.717
REMARK  Name = 
REMARK  12 active torsions:
REMARK  status: ('A' for Active; 'I' for Inactive)
REMARK    1  A    between atoms: C_1  and  O_2
REMARK    2  A    between atoms: O_2  and  C_3
REMARK    3  A    between atoms: C_7  and  C_8
REMARK    4  A    between atoms: C_8  and  O_9
REMARK    5  A    between atoms: O_9  and  C_10
REMARK    6  A    between atoms: C_10  and  C_11
REMARK    7  A    between atoms: C_11  and  O_12
REMARK    8  A    between atoms: C_11  and  C_13
REMARK    9  A    between atoms: C_13  and  N_14
REMARK   10  A    between atoms: N_14  and  C_15
REMARK   11  A    between atoms: N_14  and  C_16
REMARK   12  A    between atoms: C_19  and  C_20
REMARK                            x       y       z     vdW  Elec       q    Type
REMARK                         _______ _______ _______ _____ _____    ______ ____
ROOT
ATOM      1  C   UNL     1       7.300   5.664  17.101  0.00  0.00    +0.000 C 
ENDROOT
BRANCH   1   2
ATOM      2  O   UNL     1       7.994   4.404  17.091  0.00  0.00    +0.000 OA
ATOM      3  H   UNL     1       8.820   4.512  17.588  0.00  0.00    +0.000 HD
ENDBRANCH   1   2
BRANCH   1   4
ATOM      4  C   UNL     1       7.401   6.301  18.497  0.00  0.00    +0.000 C 
BRANCH   4   5
ATOM      5  O   UNL     1       8.330   7.378  18.405  0.00  0.00    +0.000 OA
BRANCH   5   6
ATOM      6  C   UNL     1       7.813   8.531  17.755  0.00  0.00    +0.000 C 
BRANCH   6  11
ATOM      7  C   UNL     1       9.204  12.070  18.061  0.00  0.00    +0.000 A 
ATOM      8  C   UNL     1       9.823  12.010  19.311  0.00  0.00    +0.000 A 
ATOM      9  C   UNL     1       9.784  10.840  20.067  0.00  0.00    +0.000 A 
ATOM     10  C   UNL     1       9.128   9.718  19.569  0.00  0.00    +0.000 A 
ATOM     11  C   UNL     1       8.517   9.747  18.305  0.00  0.00    +0.000 A 
ATOM     12  C   UNL     1       8.543  10.942  17.566  0.00  0.00    +0.000 A 
BRANCH   7  14
ATOM     13  C   UNL     1       9.361  14.433  18.246  0.00  0.00    +0.000 C 
ATOM     14  O   UNL     1       9.324  13.275  17.424  0.00  0.00    +0.000 OA
ENDBRANCH   7  14
ENDBRANCH   6  11
ENDBRANCH   5   6
ENDBRANCH   4   5
ENDBRANCH   1   4
BRANCH   1  15
ATOM     15  C   UNL     1       5.827   5.480  16.683  0.00  0.00    +0.000 C 
BRANCH  15  16
ATOM     16  N   UNL     1       4.875   5.213  17.782  0.00  0.00    +0.000 N 
ATOM     17  C   UNL     1       4.643   3.840  18.234  0.00  0.00    +0.000 C 
BRANCH  16  18
ATOM     18  C   UNL     1       3.970   6.201  18.185  0.00  0.00    +0.000 A 
ATOM     19  C   UNL     1       3.196   6.081  19.354  0.00  0.00    +0.000 A 
ATOM     20  C   UNL     1       2.251   7.046  19.728  0.00  0.00    +0.000 A 
ATOM     21  C   UNL     1       2.057   8.179  18.944  0.00  0.00    +0.000 A 
ATOM     22  C   UNL     1       2.821   8.345  17.793  0.00  0.00    +0.000 A 
ATOM     23  C   UNL     1       3.757   7.368  17.425  0.00  0.00    +0.000 A 
BRANCH  21  24
ATOM     24  C   UNL     1       1.078   9.155  19.313  0.00  0.00    +0.000 C 
ATOM     25  N   UNL     1       0.288   9.952  19.613  0.00  0.00    +0.000 NA
ENDBRANCH  21  24
ENDBRANCH  16  18
ENDBRANCH  15  16
ENDBRANCH   1  15
TORSDOF 10
ENDMDL
MODEL 8
REMARK VINA RESULT:      -5.8      3.146      5.891
REMARK  Name = 
REMARK  12 active torsions:
REMARK  status: ('A' for Active; 'I' for Inactive)
REMARK    1  A    between atoms: C_1  and  O_2
REMARK    2  A    between atoms: O_2  and  C_3
REMARK    3  A    between atoms: C_7  and  C_8
REMARK    4  A    between atoms: C_8  and  O_9
REMARK    5  A    between atoms: O_9  and  C_10
REMARK    6  A    between atoms: C_10  and  C_11
REMARK    7  A    between atoms: C_11  and  O_12
REMARK    8  A    between atoms: C_11  and  C_13
REMARK    9  A    between atoms: C_13  and  N_14
REMARK   10  A    between atoms: N_14  and  C_15
REMARK   11  A    between atoms: N_14  and  C_16
REMARK   12  A    between atoms: C_19  and  C_20
REMARK                            x       y       z     vdW  Elec       q    Type
REMARK                         _______ _______ _______ _____ _____    ______ ____
ROOT
ATOM      1  C   UNL     1       4.944   3.447  19.102  0.00  0.00    +0.000 C 
ENDROOT
BRANCH   1   2
ATOM      2  O   UNL     1       4.667   2.602  20.232  0.00  0.00    +0.000 OA
ATOM      3  H   UNL     1       4.106   1.870  19.931  0.00  0.00    +0.000 HD
ENDBRANCH   1   2
BRANCH   1   4
ATOM      4  C   UNL     1       5.519   4.789  19.585  0.00  0.00    +0.000 C 
BRANCH   4   5
ATOM      5  O   UNL     1       6.924   4.759  19.348  0.00  0.00    +0.000 OA
BRANCH   5   6
ATOM      6  C   UNL     1       7.391   5.816  18.522  0.00  0.00    +0.000 C 
BRANCH   6  11
ATOM      7  C   UNL     1       6.366   4.527  15.081  0.00  0.00    +0.000 A 
ATOM      8  C   UNL     1       5.452   5.507  14.686  0.00  0.00    +0.000 A 
ATOM      9  C   UNL     1       5.150   6.575  15.528  0.00  0.00    +0.000 A 
ATOM     10  C   UNL     1       5.770   6.672  16.771  0.00  0.00    +0.000 A 
ATOM     11  C   UNL     1       6.708   5.712  17.180  0.00  0.00    +0.000 A 
ATOM     12  C   UNL     1       6.983   4.626  16.331  0.00  0.00    +0.000 A 
BRANCH   7  14
ATOM     13  C   UNL     1       5.952   3.704  12.891  0.00  0.00    +0.000 C 
ATOM     14  O   UNL     1       6.575   3.539  14.158  0.00  0.00    +0.000 OA
ENDBRANCH   7  14
ENDBRANCH   6  11
ENDBRANCH   5   6
ENDBRANCH   4   5
ENDBRANCH   1   4
BRANCH   1  15
ATOM     15  C   UNL     1       3.672   3.664  18.257  0.00  0.00    +0.000 C 
BRANCH  15  16
ATOM     16  N   UNL     1       2.474   4.108  18.999  0.00  0.00    +0.000 N 
ATOM     17  C   UNL     1       1.376   3.173  19.250  0.00  0.00    +0.000 C 
BRANCH  16  18
ATOM     18  C   UNL     1       2.234   5.473  19.196  0.00  0.00    +0.000 A 
ATOM     19  C   UNL     1       1.779   5.988  20.424  0.00  0.00    +0.000 A 
ATOM     20  C   UNL     1       1.487   7.347  20.604  0.00  0.00    +0.000 A 
ATOM     21  C   UNL     1       1.655   8.245  19.554  0.00  0.00    +0.000 A 
ATOM     22  C   UNL     1       2.127   7.777  18.331  0.00  0.00    +0.000 A 
ATOM     23  C   UNL     1       2.407   6.414  18.162  0.00  0.00    +0.000 A 
BRANCH  21  24
ATOM     24  C   UNL     1       1.338   9.629  19.729  0.00  0.00    +0.000 C 
ATOM     25  N   UNL     1       1.073  10.752  19.873  0.00  0.00    +0.000 NA
ENDBRANCH  21  24
ENDBRANCH  16  18
ENDBRANCH  15  16
ENDBRANCH   1  15
TORSDOF 10
ENDMDL
MODEL 9
REMARK VINA RESULT:      -5.8      2.030      3.295
REMARK  Name = 
REMARK  12 active torsions:
REMARK  status: ('A' for Active; 'I' for Inactive)
REMARK    1  A    between atoms: C_1  and  O_2
REMARK    2  A    between atoms: O_2  and  C_3
REMARK    3  A    between atoms: C_7  and  C_8
REMARK    4  A    between atoms: C_8  and  O_9
REMARK    5  A    between atoms: O_9  and  C_10
REMARK    6  A    between atoms: C_10  and  C_11
REMARK    7  A    between atoms: C_11  and  O_12
REMARK    8  A    between atoms: C_11  and  C_13
REMARK    9  A    between atoms: C_13  and  N_14
REMARK   10  A    between atoms: N_14  and  C_15
REMARK   11  A    between atoms: N_14  and  C_16
REMARK   12  A    between atoms: C_19  and  C_20
REMARK                            x       y       z     vdW  Elec       q    Type
REMARK                         _______ _______ _______ _____ _____    ______ ____
ROOT
ATOM      1  C   UNL     1       2.999   5.965  19.591  0.00  0.00    +0.000 C 
ENDROOT
BRANCH   1   2
ATOM      2  O   UNL     1       2.304   6.353  20.789  0.00  0.00    +0.000 OA
ATOM      3  H   UNL     1       1.842   5.573  21.135  0.00  0.00    +0.000 HD
ENDBRANCH   1   2
BRANCH   1   4
ATOM      4  C   UNL     1       2.574   6.874  18.426  0.00  0.00    +0.000 C 
BRANCH   4   5
ATOM      5  O   UNL     1       2.031   8.064  18.993  0.00  0.00    +0.000 OA
BRANCH   5   6
ATOM      6  C   UNL     1       1.819   9.106  18.050  0.00  0.00    +0.000 C 
BRANCH   6  11
ATOM      7  C   UNL     1      -1.645  10.692  18.238  0.00  0.00    +0.000 A 
ATOM      8  C   UNL     1      -1.513  11.498  19.371  0.00  0.00    +0.000 A 
ATOM      9  C   UNL     1      -0.319  11.522  20.088  0.00  0.00    +0.000 A 
ATOM     10  C   UNL     1       0.756  10.744  19.667  0.00  0.00    +0.000 A 
ATOM     11  C   UNL     1       0.654   9.944  18.518  0.00  0.00    +0.000 A 
ATOM     12  C   UNL     1      -0.565   9.910  17.821  0.00  0.00    +0.000 A 
BRANCH   7  14
ATOM     13  C   UNL     1      -3.887  11.478  18.316  0.00  0.00    +0.000 C 
ATOM     14  O   UNL     1      -2.867  10.767  17.626  0.00  0.00    +0.000 OA
ENDBRANCH   7  14
ENDBRANCH   6  11
ENDBRANCH   5   6
ENDBRANCH   4   5
ENDBRANCH   1   4
BRANCH   1  15
ATOM     15  C   UNL     1       2.732   4.483  19.260  0.00  0.00    +0.000 C 
BRANCH  15  16
ATOM     16  N   UNL     1       3.918   3.680  18.896  0.00  0.00    +0.000 N 
ATOM     17  C   UNL     1       4.431   2.666  19.820  0.00  0.00    +0.000 C 
BRANCH  16  18
ATOM     18  C   UNL     1       4.738   4.077  17.834  0.00  0.00    +0.000 A 
ATOM     19  C   UNL     1       4.289   4.092  16.501  0.00  0.00    +0.000 A 
ATOM     20  C   UNL     1       5.127   4.439  15.432  0.00  0.00    +0.000 A 
ATOM     21  C   UNL     1       6.451   4.798  15.667  0.00  0.00    +0.000 A 
ATOM     22  C   UNL     1       6.925   4.819  16.975  0.00  0.00    +0.000 A 
ATOM     23  C   UNL     1       6.079   4.461  18.033  0.00  0.00    +0.000 A 
BRANCH  21  24
ATOM     24  C   UNL     1       7.314   5.132  14.575  0.00  0.00    +0.000 C 
ATOM     25  N   UNL     1       8.014   5.396  13.687  0.00  0.00    +0.000 NA
ENDBRANCH  21  24
ENDBRANCH  16  18
ENDBRANCH  15  16
ENDBRANCH   1  15
TORSDOF 10
ENDMDL
