MODEL 1
REMARK VINA RESULT:      -8.1      0.000      0.000
REMARK  Name = 
REMARK  5 active torsions:
REMARK  status: ('A' for Active; 'I' for Inactive)
REMARK    1  A    between atoms: C_5  and  C_6
REMARK    2  A    between atoms: C_8  and  C_9
REMARK    3  A    between atoms: C_9  and  N_10
REMARK    4  A    between atoms: N_13  and  C_14
REMARK    5  A    between atoms: C_14  and  C_15
REMARK                            x       y       z     vdW  Elec       q    Type
REMARK                         _______ _______ _______ _____ _____    ______ ____
ROOT
ATOM      1  C   UNL     1       7.193   6.399  16.619  0.00  0.00    +0.000 C 
ENDROOT
BRANCH   1   2
ATOM      2  N   UNL     1       5.749   6.483  16.337  0.00  0.00    +0.000 NA
ATOM      3  C   UNL     1       5.281   5.440  15.395  0.00  0.00    +0.000 C 
ATOM      4  C   UNL     1       5.230   3.992  15.947  0.00  0.00    +0.000 C 
ATOM      5  N   UNL     1       4.585   3.814  17.267  0.00  0.00    +0.000 NA
ATOM      6  C   UNL     1       5.038   4.872  18.192  0.00  0.00    +0.000 C 
ATOM      7  C   UNL     1       4.998   6.308  17.606  0.00  0.00    +0.000 C 
BRANCH   5   8
ATOM      8  C   UNL     1       3.115   3.772  17.202  0.00  0.00    +0.000 C 
BRANCH   8   9
ATOM      9  C   UNL     1       2.440   3.574  18.545  0.00  0.00    +0.000 A 
ATOM     10  C   UNL     1       1.734   4.618  19.164  0.00  0.00    +0.000 A 
ATOM     11  C   UNL     1       1.116   4.421  20.401  0.00  0.00    +0.000 A 
ATOM     12  C   UNL     1       1.193   3.179  21.032  0.00  0.00    +0.000 A 
ATOM     13  C   UNL     1       1.883   2.134  20.423  0.00  0.00    +0.000 A 
ATOM     14  C   UNL     1       2.501   2.328  19.188  0.00  0.00    +0.000 A 
ENDBRANCH   8   9
ENDBRANCH   5   8
ENDBRANCH   1   2
BRANCH   1  17
ATOM     15  C   UNL     1       8.470   9.309  18.205  0.00  0.00    +0.000 A 
ATOM     16  N   UNL     1       7.765   8.736  17.248  0.00  0.00    +0.000 NA
ATOM     17  C   UNL     1       7.705   7.404  17.605  0.00  0.00    +0.000 A 
ATOM     18  C   UNL     1       8.330   7.242  18.821  0.00  0.00    +0.000 A 
ATOM     19  O   UNL     1       8.822   8.454  19.217  0.00  0.00    +0.000 OA
BRANCH  15  24
ATOM     20  F   UNL     1      10.479  14.542  18.050  0.00  0.00    +0.000 F 
ATOM     21  C   UNL     1       9.995  13.293  18.123  0.00  0.00    +0.000 A 
ATOM     22  C   UNL     1       8.735  13.018  17.610  0.00  0.00    +0.000 A 
ATOM     23  C   UNL     1       8.242  11.712  17.671  0.00  0.00    +0.000 A 
ATOM     24  C   UNL     1       9.001  10.673  18.241  0.00  0.00    +0.000 A 
ATOM     25  C   UNL     1      10.268  10.981  18.762  0.00  0.00    +0.000 A 
ATOM     26  C   UNL     1      10.764  12.290  18.702  0.00  0.00    +0.000 A 
ENDBRANCH  15  24
ENDBRANCH   1  17
TORSDOF 5
ENDMDL
MODEL 2
REMARK VINA RESULT:      -8.1      0.854      1.650
REMARK  Name = 
REMARK  5 active torsions:
REMARK  status: ('A' for Active; 'I' for Inactive)
REMARK    1  A    between atoms: C_5  and  C_6
REMARK    2  A    between atoms: C_8  and  C_9
REMARK    3  A    between atoms: C_9  and  N_10
REMARK    4  A    between atoms: N_13  and  C_14
REMARK    5  A    between atoms: C_14  and  C_15
REMARK                            x       y       z     vdW  Elec       q    Type
REMARK                         _______ _______ _______ _____ _____    ______ ____
ROOT
ATOM      1  C   UNL     1       7.117   6.386  16.846  0.00  0.00    +0.000 C 
ENDROOT
BRANCH   1   2
ATOM      2  N   UNL     1       6.964   5.084  17.521  0.00  0.00    +0.000 NA
ATOM      3  C   UNL     1       6.005   5.127  18.650  0.00  0.00    +0.000 C 
ATOM      4  C   UNL     1       4.507   5.263  18.272  0.00  0.00    +0.000 C 
ATOM      5  N   UNL     1       4.011   4.355  17.214  0.00  0.00    +0.000 NA
ATOM      6  C   UNL     1       4.983   4.300  16.105  0.00  0.00    +0.000 C 
ATOM      7  C   UNL     1       6.457   4.089  16.543  0.00  0.00    +0.000 C 
BRANCH   5   8
ATOM      8  C   UNL     1       3.697   3.002  17.702  0.00  0.00    +0.000 C 
BRANCH   8   9
ATOM      9  C   UNL     1       2.856   2.978  18.964  0.00  0.00    +0.000 A 
ATOM     10  C   UNL     1       1.481   3.256  18.926  0.00  0.00    +0.000 A 
ATOM     11  C   UNL     1       0.718   3.229  20.095  0.00  0.00    +0.000 A 
ATOM     12  C   UNL     1       1.320   2.920  21.316  0.00  0.00    +0.000 A 
ATOM     13  C   UNL     1       2.682   2.634  21.364  0.00  0.00    +0.000 A 
ATOM     14  C   UNL     1       3.445   2.660  20.198  0.00  0.00    +0.000 A 
ENDBRANCH   8   9
ENDBRANCH   5   8
ENDBRANCH   1   2
BRANCH   1  17
ATOM     15  C   UNL     1       8.406   9.453  18.086  0.00  0.00    +0.000 A 
ATOM     16  N   UNL     1       7.636   8.784  17.250  0.00  0.00    +0.000 NA
ATOM     17  C   UNL     1       7.677   7.480  17.702  0.00  0.00    +0.000 A 
ATOM     18  C   UNL     1       8.429   7.434  18.854  0.00  0.00    +0.000 A 
ATOM     19  O   UNL     1       8.900   8.690  19.112  0.00  0.00    +0.000 OA
BRANCH  15  24
ATOM     20  F   UNL     1      10.262  14.743  17.936  0.00  0.00    +0.000 F 
ATOM     21  C   UNL     1       9.817  13.478  17.935  0.00  0.00    +0.000 A 
ATOM     22  C   UNL     1      10.677  12.450  18.297  0.00  0.00    +0.000 A 
ATOM     23  C   UNL     1      10.204  11.136  18.314  0.00  0.00    +0.000 A 
ATOM     24  C   UNL     1       8.872  10.837  17.972  0.00  0.00    +0.000 A 
ATOM     25  C   UNL     1       8.026  11.894  17.599  0.00  0.00    +0.000 A 
ATOM     26  C   UNL     1       8.499  13.213  17.582  0.00  0.00    +0.000 A 
ENDBRANCH  15  24
ENDBRANCH   1  17
TORSDOF 5
ENDMDL
MODEL 3
REMARK VINA RESULT:      -8.0      0.995      1.428
REMARK  Name = 
REMARK  5 active torsions:
REMARK  status: ('A' for Active; 'I' for Inactive)
REMARK    1  A    between atoms: C_5  and  C_6
REMARK    2  A    between atoms: C_8  and  C_9
REMARK    3  A    between atoms: C_9  and  N_10
REMARK    4  A    between atoms: N_13  and  C_14
REMARK    5  A    between atoms: C_14  and  C_15
REMARK                            x       y       z     vdW  Elec       q    Type
REMARK                         _______ _______ _______ _____ _____    ______ ____
ROOT
ATOM      1  C   UNL     1       7.043   6.833  17.042  0.00  0.00    +0.000 C 
ENDROOT
BRANCH   1   2
ATOM      2  N   UNL     1       6.974   5.507  17.681  0.00  0.00    +0.000 NA
ATOM      3  C   UNL     1       6.010   5.454  18.804  0.00  0.00    +0.000 C 
ATOM      4  C   UNL     1       4.508   5.499  18.420  0.00  0.00    +0.000 C 
ATOM      5  N   UNL     1       4.079   4.589  17.334  0.00  0.00    +0.000 NA
ATOM      6  C   UNL     1       5.059   4.629  16.231  0.00  0.00    +0.000 C 
ATOM      7  C   UNL     1       6.541   4.506  16.673  0.00  0.00    +0.000 C 
BRANCH   5   8
ATOM      8  C   UNL     1       3.856   3.204  17.785  0.00  0.00    +0.000 C 
BRANCH   8   9
ATOM      9  C   UNL     1       2.957   3.086  19.000  0.00  0.00    +0.000 A 
ATOM     10  C   UNL     1       1.585   3.369  18.919  0.00  0.00    +0.000 A 
ATOM     11  C   UNL     1       0.768   3.254  20.047  0.00  0.00    +0.000 A 
ATOM     12  C   UNL     1       1.313   2.852  21.267  0.00  0.00    +0.000 A 
ATOM     13  C   UNL     1       2.672   2.561  21.357  0.00  0.00    +0.000 A 
ATOM     14  C   UNL     1       3.488   2.674  20.233  0.00  0.00    +0.000 A 
ENDBRANCH   8   9
ENDBRANCH   5   8
ENDBRANCH   1   2
BRANCH   1  17
ATOM     15  C   UNL     1       8.678   9.786  18.145  0.00  0.00    +0.000 A 
ATOM     16  N   UNL     1       7.817   9.176  17.354  0.00  0.00    +0.000 NA
ATOM     17  C   UNL     1       7.739   7.888  17.845  0.00  0.00    +0.000 A 
ATOM     18  C   UNL     1       8.520   7.797  18.976  0.00  0.00    +0.000 A 
ATOM     19  O   UNL     1       9.125   9.005  19.180  0.00  0.00    +0.000 OA
BRANCH  15  24
ATOM     20  F   UNL     1      10.810  14.895  17.252  0.00  0.00    +0.000 F 
ATOM     21  C   UNL     1      10.315  13.673  17.499  0.00  0.00    +0.000 A 
ATOM     22  C   UNL     1       8.948  13.513  17.680  0.00  0.00    +0.000 A 
ATOM     23  C   UNL     1       8.434  12.236  17.918  0.00  0.00    +0.000 A 
ATOM     24  C   UNL     1       9.278  11.111  17.975  0.00  0.00    +0.000 A 
ATOM     25  C   UNL     1      10.659  11.302  17.800  0.00  0.00    +0.000 A 
ATOM     26  C   UNL     1      11.175  12.583  17.561  0.00  0.00    +0.000 A 
ENDBRANCH  15  24
ENDBRANCH   1  17
TORSDOF 5
ENDMDL
MODEL 4
REMARK VINA RESULT:      -8.0      0.573      1.108
REMARK  Name = 
REMARK  5 active torsions:
REMARK  status: ('A' for Active; 'I' for Inactive)
REMARK    1  A    between atoms: C_5  and  C_6
REMARK    2  A    between atoms: C_8  and  C_9
REMARK    3  A    between atoms: C_9  and  N_10
REMARK    4  A    between atoms: N_13  and  C_14
REMARK    5  A    between atoms: C_14  and  C_15
REMARK                            x       y       z     vdW  Elec       q    Type
REMARK                         _______ _______ _______ _____ _____    ______ ____
ROOT
ATOM      1  C   UNL     1       7.141   6.229  16.280  0.00  0.00    +0.000 C 
ENDROOT
BRANCH   1   2
ATOM      2  N   UNL     1       5.692   6.289  16.017  0.00  0.00    +0.000 NA
ATOM      3  C   UNL     1       5.211   5.177  15.164  0.00  0.00    +0.000 C 
ATOM      4  C   UNL     1       5.173   3.775  15.825  0.00  0.00    +0.000 C 
ATOM      5  N   UNL     1       4.551   3.696  17.165  0.00  0.00    +0.000 NA
ATOM      6  C   UNL     1       5.016   4.821  18.000  0.00  0.00    +0.000 C 
ATOM      7  C   UNL     1       4.963   6.209  17.308  0.00  0.00    +0.000 C 
BRANCH   5   8
ATOM      8  C   UNL     1       3.080   3.647  17.127  0.00  0.00    +0.000 C 
BRANCH   8   9
ATOM      9  C   UNL     1       2.429   3.517  18.491  0.00  0.00    +0.000 A 
ATOM     10  C   UNL     1       2.514   2.325  19.226  0.00  0.00    +0.000 A 
ATOM     11  C   UNL     1       1.911   2.220  20.482  0.00  0.00    +0.000 A 
ATOM     12  C   UNL     1       1.220   3.307  21.018  0.00  0.00    +0.000 A 
ATOM     13  C   UNL     1       1.137   4.498  20.302  0.00  0.00    +0.000 A 
ATOM     14  C   UNL     1       1.739   4.605  19.049  0.00  0.00    +0.000 A 
ENDBRANCH   8   9
ENDBRANCH   5   8
ENDBRANCH   1   2
BRANCH   1  17
ATOM     15  C   UNL     1       8.363   8.860  18.328  0.00  0.00    +0.000 A 
ATOM     16  N   UNL     1       7.701   8.442  17.267  0.00  0.00    +0.000 NA
ATOM     17  C   UNL     1       7.612   7.073  17.424  0.00  0.00    +0.000 A 
ATOM     18  C   UNL     1       8.175   6.729  18.633  0.00  0.00    +0.000 A 
ATOM     19  O   UNL     1       8.657   7.863  19.222  0.00  0.00    +0.000 OA
BRANCH  15  24
ATOM     20  F   UNL     1      10.562  13.966  19.056  0.00  0.00    +0.000 F 
ATOM     21  C   UNL     1      10.015  12.751  18.910  0.00  0.00    +0.000 A 
ATOM     22  C   UNL     1       9.194  12.498  17.820  0.00  0.00    +0.000 A 
ATOM     23  C   UNL     1       8.640  11.224  17.661  0.00  0.00    +0.000 A 
ATOM     24  C   UNL     1       8.902  10.197  18.587  0.00  0.00    +0.000 A 
ATOM     25  C   UNL     1       9.726  10.484  19.687  0.00  0.00    +0.000 A 
ATOM     26  C   UNL     1      10.282  11.759  19.847  0.00  0.00    +0.000 A 
ENDBRANCH  15  24
ENDBRANCH   1  17
TORSDOF 5
ENDMDL
MODEL 5
REMARK VINA RESULT:      -7.8      5.254      7.908
REMARK  Name = 
REMARK  5 active torsions:
REMARK  status: ('A' for Active; 'I' for Inactive)
REMARK    1  A    between atoms: C_5  and  C_6
REMARK    2  A    between atoms: C_8  and  C_9
REMARK    3  A    between atoms: C_9  and  N_10
REMARK    4  A    between atoms: N_13  and  C_14
REMARK    5  A    between atoms: C_14  and  C_15
REMARK                            x       y       z     vdW  Elec       q    Type
REMARK                         _______ _______ _______ _____ _____    ______ ____
ROOT
ATOM      1  C   UNL     1       2.780   5.782  19.130  0.00  0.00    +0.000 C 
ENDROOT
BRANCH   1   2
ATOM      2  N   UNL     1       4.239   5.580  19.092  0.00  0.00    +0.000 NA
ATOM      3  C   UNL     1       4.623   4.160  18.916  0.00  0.00    +0.000 C 
ATOM      4  C   UNL     1       4.362   3.549  17.515  0.00  0.00    +0.000 C 
ATOM      5  N   UNL     1       4.815   4.348  16.354  0.00  0.00    +0.000 NA
ATOM      6  C   UNL     1       4.451   5.764  16.549  0.00  0.00    +0.000 C 
ATOM      7  C   UNL     1       4.803   6.340  17.947  0.00  0.00    +0.000 C 
BRANCH   5   8
ATOM      8  C   UNL     1       6.255   4.212  16.075  0.00  0.00    +0.000 C 
BRANCH   8   9
ATOM      9  C   UNL     1       6.611   4.307  14.604  0.00  0.00    +0.000 A 
ATOM     10  C   UNL     1       7.588   5.207  14.150  0.00  0.00    +0.000 A 
ATOM     11  C   UNL     1       7.908   5.282  12.792  0.00  0.00    +0.000 A 
ATOM     12  C   UNL     1       7.258   4.457  11.873  0.00  0.00    +0.000 A 
ATOM     13  C   UNL     1       6.294   3.554  12.314  0.00  0.00    +0.000 A 
ATOM     14  C   UNL     1       5.974   3.477  13.669  0.00  0.00    +0.000 A 
ENDBRANCH   8   9
ENDBRANCH   5   8
ENDBRANCH   1   2
BRANCH   1  17
ATOM     15  C   UNL     1       1.377   8.869  20.187  0.00  0.00    +0.000 A 
ATOM     16  N   UNL     1       1.916   7.697  20.462  0.00  0.00    +0.000 NA
ATOM     17  C   UNL     1       2.341   7.210  19.242  0.00  0.00    +0.000 A 
ATOM     18  C   UNL     1       2.098   8.162  18.276  0.00  0.00    +0.000 A 
ATOM     19  O   UNL     1       1.484   9.229  18.868  0.00  0.00    +0.000 OA
BRANCH  15  24
ATOM     20  F   UNL     1      -1.813  11.998  23.574  0.00  0.00    +0.000 F 
ATOM     21  C   UNL     1      -1.022  11.270  22.773  0.00  0.00    +0.000 A 
ATOM     22  C   UNL     1      -0.716   9.962  23.121  0.00  0.00    +0.000 A 
ATOM     23  C   UNL     1       0.094   9.200  22.274  0.00  0.00    +0.000 A 
ATOM     24  C   UNL     1       0.602   9.737  21.076  0.00  0.00    +0.000 A 
ATOM     25  C   UNL     1       0.287  11.067  20.754  0.00  0.00    +0.000 A 
ATOM     26  C   UNL     1      -0.525  11.831  21.602  0.00  0.00    +0.000 A 
ENDBRANCH  15  24
ENDBRANCH   1  17
TORSDOF 5
ENDMDL
MODEL 6
REMARK VINA RESULT:      -7.5      0.802      1.194
REMARK  Name = 
REMARK  5 active torsions:
REMARK  status: ('A' for Active; 'I' for Inactive)
REMARK    1  A    between atoms: C_5  and  C_6
REMARK    2  A    between atoms: C_8  and  C_9
REMARK    3  A    between atoms: C_9  and  N_10
REMARK    4  A    between atoms: N_13  and  C_14
REMARK    5  A    between atoms: C_14  and  C_15
REMARK                            x       y       z     vdW  Elec       q    Type
REMARK                         _______ _______ _______ _____ _____    ______ ____
ROOT
ATOM      1  C   UNL     1       7.140   6.533  16.312  0.00  0.00    +0.000 C 
ENDROOT
BRANCH   1   2
ATOM      2  N   UNL     1       5.690   6.643  16.068  0.00  0.00    +0.000 NA
ATOM      3  C   UNL     1       5.135   5.474  15.345  0.00  0.00    +0.000 C 
ATOM      4  C   UNL     1       5.040   4.153  16.151  0.00  0.00    +0.000 C 
ATOM      5  N   UNL     1       4.445   4.248  17.503  0.00  0.00    +0.000 NA
ATOM      6  C   UNL     1       4.985   5.428  18.206  0.00  0.00    +0.000 C 
ATOM      7  C   UNL     1       4.987   6.737  17.372  0.00  0.00    +0.000 C 
BRANCH   5   8
ATOM      8  C   UNL     1       2.973   4.273  17.495  0.00  0.00    +0.000 C 
BRANCH   8   9
ATOM      9  C   UNL     1       2.338   3.792  18.786  0.00  0.00    +0.000 A 
ATOM     10  C   UNL     1       2.702   4.344  20.024  0.00  0.00    +0.000 A 
ATOM     11  C   UNL     1       2.108   3.893  21.205  0.00  0.00    +0.000 A 
ATOM     12  C   UNL     1       1.141   2.888  21.162  0.00  0.00    +0.000 A 
ATOM     13  C   UNL     1       0.766   2.340  19.938  0.00  0.00    +0.000 A 
ATOM     14  C   UNL     1       1.357   2.789  18.758  0.00  0.00    +0.000 A 
ENDBRANCH   8   9
ENDBRANCH   5   8
ENDBRANCH   1   2
BRANCH   1  17
ATOM     15  C   UNL     1       8.472   9.124  18.344  0.00  0.00    +0.000 A 
ATOM     16  N   UNL     1       7.780   8.727  17.292  0.00  0.00    +0.000 NA
ATOM     17  C   UNL     1       7.654   7.361  17.449  0.00  0.00    +0.000 A 
ATOM     18  C   UNL     1       8.227   6.998  18.648  0.00  0.00    +0.000 A 
ATOM     19  O   UNL     1       8.752   8.117  19.231  0.00  0.00    +0.000 OA
BRANCH  15  24
ATOM     20  F   UNL     1      10.564  14.181  19.564  0.00  0.00    +0.000 F 
ATOM     21  C   UNL     1      10.087  12.969  19.245  0.00  0.00    +0.000 A 
ATOM     22  C   UNL     1      10.348  11.890  20.078  0.00  0.00    +0.000 A 
ATOM     23  C   UNL     1       9.833  10.633  19.751  0.00  0.00    +0.000 A 
ATOM     24  C   UNL     1       9.054  10.444  18.595  0.00  0.00    +0.000 A 
ATOM     25  C   UNL     1       8.815  11.550  17.763  0.00  0.00    +0.000 A 
ATOM     26  C   UNL     1       9.330  12.811  18.089  0.00  0.00    +0.000 A 
ENDBRANCH  15  24
ENDBRANCH   1  17
TORSDOF 5
ENDMDL
MODEL 7
REMARK VINA RESULT:      -7.2      7.208      9.565
REMARK  Name = 
REMARK  5 active torsions:
REMARK  status: ('A' for Active; 'I' for Inactive)
REMARK    1  A    between atoms: C_5  and  C_6
REMARK    2  A    between atoms: C_8  and  C_9
REMARK    3  A    between atoms: C_9  and  N_10
REMARK    4  A    between atoms: N_13  and  C_14
REMARK    5  A    between atoms: C_14  and  C_15
REMARK                            x       y       z     vdW  Elec       q    Type
REMARK                         _______ _______ _______ _____ _____    ______ ____
ROOT
ATOM      1  C   UNL     1       1.422   8.647  20.742  0.00  0.00    +0.000 C 
ENDROOT
BRANCH   1   2
ATOM      2  N   UNL     1      -0.034   8.848  20.865  0.00  0.00    +0.000 NA
ATOM      3  C   UNL     1      -0.534   8.633  22.243  0.00  0.00    +0.000 C 
ATOM      4  C   UNL     1      -0.157   9.718  23.285  0.00  0.00    +0.000 C 
ATOM      5  N   UNL     1      -0.370  11.124  22.877  0.00  0.00    +0.000 NA
ATOM      6  C   UNL     1       0.108  11.323  21.495  0.00  0.00    +0.000 C 
ATOM      7  C   UNL     1      -0.362  10.245  20.483  0.00  0.00    +0.000 C 
BRANCH   5   8
ATOM      8  C   UNL     1      -1.767  11.570  23.016  0.00  0.00    +0.000 C 
BRANCH   8   9
ATOM      9  C   UNL     1      -1.961  13.064  22.844  0.00  0.00    +0.000 A 
ATOM     10  C   UNL     1      -1.312  13.982  23.685  0.00  0.00    +0.000 A 
ATOM     11  C   UNL     1      -1.499  15.355  23.514  0.00  0.00    +0.000 A 
ATOM     12  C   UNL     1      -2.333  15.828  22.500  0.00  0.00    +0.000 A 
ATOM     13  C   UNL     1      -2.974  14.926  21.655  0.00  0.00    +0.000 A 
ATOM     14  C   UNL     1      -2.789  13.554  21.823  0.00  0.00    +0.000 A 
ENDBRANCH   8   9
ENDBRANCH   5   8
ENDBRANCH   1   2
BRANCH   1  17
ATOM     15  C   UNL     1       2.995   7.063  17.981  0.00  0.00    +0.000 A 
ATOM     16  N   UNL     1       2.477   7.013  19.193  0.00  0.00    +0.000 NA
ATOM     17  C   UNL     1       1.893   8.250  19.377  0.00  0.00    +0.000 A 
ATOM     18  C   UNL     1       2.026   8.980  18.217  0.00  0.00    +0.000 A 
ATOM     19  O   UNL     1       2.728   8.231  17.314  0.00  0.00    +0.000 OA
BRANCH  15  24
ATOM     20  F   UNL     1       6.330   3.459  15.272  0.00  0.00    +0.000 F 
ATOM     21  C   UNL     1       5.550   4.313  15.951  0.00  0.00    +0.000 A 
ATOM     22  C   UNL     1       5.683   5.678  15.735  0.00  0.00    +0.000 A 
ATOM     23  C   UNL     1       4.855   6.564  16.430  0.00  0.00    +0.000 A 
ATOM     24  C   UNL     1       3.890   6.096  17.341  0.00  0.00    +0.000 A 
ATOM     25  C   UNL     1       3.785   4.711  17.549  0.00  0.00    +0.000 A 
ATOM     26  C   UNL     1       4.614   3.822  16.853  0.00  0.00    +0.000 A 
ENDBRANCH  15  24
ENDBRANCH   1  17
TORSDOF 5
ENDMDL
MODEL 8
REMARK VINA RESULT:      -7.0      7.127      9.265
REMARK  Name = 
REMARK  5 active torsions:
REMARK  status: ('A' for Active; 'I' for Inactive)
REMARK    1  A    between atoms: C_5  and  C_6
REMARK    2  A    between atoms: C_8  and  C_9
REMARK    3  A    between atoms: C_9  and  N_10
REMARK    4  A    between atoms: N_13  and  C_14
REMARK    5  A    between atoms: C_14  and  C_15
REMARK                            x       y       z     vdW  Elec       q    Type
REMARK                         _______ _______ _______ _____ _____    ______ ____
ROOT
ATOM      1  C   UNL     1       1.033   9.795  18.361  0.00  0.00    +0.000 C 
ENDROOT
BRANCH   1   2
ATOM      2  N   UNL     1       1.217  10.948  19.261  0.00  0.00    +0.000 NA
ATOM      3  C   UNL     1       0.561  12.180  18.765  0.00  0.00    +0.000 C 
ATOM      4  C   UNL     1      -0.988  12.203  18.825  0.00  0.00    +0.000 C 
ATOM      5  N   UNL     1      -1.604  11.775  20.102  0.00  0.00    +0.000 NA
ATOM      6  C   UNL     1      -0.928  10.562  20.601  0.00  0.00    +0.000 C 
ATOM      7  C   UNL     1       0.623  10.627  20.584  0.00  0.00    +0.000 C 
BRANCH   5   8
ATOM      8  C   UNL     1      -1.613  12.829  21.130  0.00  0.00    +0.000 C 
BRANCH   8   9
ATOM      9  C   UNL     1      -2.850  12.829  22.006  0.00  0.00    +0.000 A 
ATOM     10  C   UNL     1      -4.125  13.054  21.463  0.00  0.00    +0.000 A 
ATOM     11  C   UNL     1      -5.257  13.049  22.282  0.00  0.00    +0.000 A 
ATOM     12  C   UNL     1      -5.128  12.816  23.652  0.00  0.00    +0.000 A 
ATOM     13  C   UNL     1      -3.870  12.584  24.200  0.00  0.00    +0.000 A 
ATOM     14  C   UNL     1      -2.739  12.587  23.384  0.00  0.00    +0.000 A 
ENDBRANCH   8   9
ENDBRANCH   5   8
ENDBRANCH   1   2
BRANCH   1  17
ATOM     15  C   UNL     1       3.262   7.047  18.057  0.00  0.00    +0.000 A 
ATOM     16  N   UNL     1       2.785   8.195  17.615  0.00  0.00    +0.000 NA
ATOM     17  C   UNL     1       1.948   8.638  18.620  0.00  0.00    +0.000 A 
ATOM     18  C   UNL     1       2.015   7.754  19.674  0.00  0.00    +0.000 A 
ATOM     19  O   UNL     1       2.853   6.732  19.327  0.00  0.00    +0.000 OA
BRANCH  15  24
ATOM     20  F   UNL     1       6.164   3.355  14.993  0.00  0.00    +0.000 F 
ATOM     21  C   UNL     1       5.490   4.228  15.754  0.00  0.00    +0.000 A 
ATOM     22  C   UNL     1       5.664   5.590  15.549  0.00  0.00    +0.000 A 
ATOM     23  C   UNL     1       4.946   6.498  16.331  0.00  0.00    +0.000 A 
ATOM     24  C   UNL     1       4.049   6.055  17.322  0.00  0.00    +0.000 A 
ATOM     25  C   UNL     1       3.901   4.672  17.517  0.00  0.00    +0.000 A 
ATOM     26  C   UNL     1       4.620   3.761  16.732  0.00  0.00    +0.000 A 
ENDBRANCH  15  24
ENDBRANCH   1  17
TORSDOF 5
ENDMDL
MODEL 9
REMARK VINA RESULT:      -7.0      7.238     10.622
REMARK  Name = 
REMARK  5 active torsions:
REMARK  status: ('A' for Active; 'I' for Inactive)
REMARK    1  A    between atoms: C_5  and  C_6
REMARK    2  A    between atoms: C_8  and  C_9
REMARK    3  A    between atoms: C_9  and  N_10
REMARK    4  A    between atoms: N_13  and  C_14
REMARK    5  A    between atoms: C_14  and  C_15
REMARK                            x       y       z     vdW  Elec       q    Type
REMARK                         _______ _______ _______ _____ _____    ______ ____
ROOT
ATOM      1  C   UNL     1       0.352  10.478  19.493  0.00  0.00    +0.000 C 
ENDROOT
BRANCH   1   2
ATOM      2  N   UNL     1       0.845  11.668  20.211  0.00  0.00    +0.000 NA
ATOM      3  C   UNL     1       1.616  12.590  19.344  0.00  0.00    +0.000 C 
ATOM      4  C   UNL     1       0.797  13.390  18.298  0.00  0.00    +0.000 C 
ATOM      5  N   UNL     1      -0.428  14.057  18.792  0.00  0.00    +0.000 NA
ATOM      6  C   UNL     1      -1.176  13.140  19.674  0.00  0.00    +0.000 C 
ATOM      7  C   UNL     1      -0.315  12.423  20.748  0.00  0.00    +0.000 C 
BRANCH   5   8
ATOM      8  C   UNL     1      -0.166  15.337  19.470  0.00  0.00    +0.000 C 
BRANCH   8   9
ATOM      9  C   UNL     1       0.199  16.471  18.533  0.00  0.00    +0.000 A 
ATOM     10  C   UNL     1      -0.786  17.310  17.989  0.00  0.00    +0.000 A 
ATOM     11  C   UNL     1      -0.435  18.353  17.128  0.00  0.00    +0.000 A 
ATOM     12  C   UNL     1       0.904  18.570  16.803  0.00  0.00    +0.000 A 
ATOM     13  C   UNL     1       1.891  17.750  17.343  0.00  0.00    +0.000 A 
ATOM     14  C   UNL     1       1.543  16.709  18.204  0.00  0.00    +0.000 A 
ENDBRANCH   8   9
ENDBRANCH   5   8
ENDBRANCH   1   2
BRANCH   1  17
ATOM     15  C   UNL     1       2.339   7.574  19.014  0.00  0.00    +0.000 A 
ATOM     16  N   UNL     1       1.947   8.775  18.633  0.00  0.00    +0.000 NA
ATOM     17  C   UNL     1       1.175   9.241  19.679  0.00  0.00    +0.000 A 
ATOM     18  C   UNL     1       1.195   8.310  20.693  0.00  0.00    +0.000 A 
ATOM     19  O   UNL     1       1.938   7.239  20.282  0.00  0.00    +0.000 OA
BRANCH  15  24
ATOM     20  F   UNL     1       5.026   3.527  16.213  0.00  0.00    +0.000 F 
ATOM     21  C   UNL     1       4.370   4.507  16.851  0.00  0.00    +0.000 A 
ATOM     22  C   UNL     1       3.294   4.188  17.670  0.00  0.00    +0.000 A 
ATOM     23  C   UNL     1       2.625   5.210  18.349  0.00  0.00    +0.000 A 
ATOM     24  C   UNL     1       3.023   6.554  18.217  0.00  0.00    +0.000 A 
ATOM     25  C   UNL     1       4.107   6.849  17.373  0.00  0.00    +0.000 A 
ATOM     26  C   UNL     1       4.779   5.826  16.693  0.00  0.00    +0.000 A 
ENDBRANCH  15  24
ENDBRANCH   1  17
TORSDOF 5
ENDMDL
