MODEL 1
REMARK VINA RESULT:      -6.6      0.000      0.000
REMARK  Name = 
REMARK  7 active torsions:
REMARK  status: ('A' for Active; 'I' for Inactive)
REMARK    1  A    between atoms: C_1  and  C_2
REMARK    2  A    between atoms: C_2  and  C_3
REMARK    3  A    between atoms: C_2  and  C_4
REMARK    4  A    between atoms: C_2  and  C_5
REMARK    5  A    between atoms: C_8  and  N_9
REMARK    6  A    between atoms: N_12  and  C_13
REMARK    7  A    between atoms: C_13  and  C_14
REMARK                            x       y       z     vdW  Elec       q    Type
REMARK                         _______ _______ _______ _____ _____    ______ ____
ROOT
ATOM      1  N   UNL     1      -0.649  12.135  19.917  0.00  0.00    +0.000 NA
ATOM      2  C   UNL     1       0.421  12.447  18.958  0.00  0.00    +0.000 C 
ATOM      3  C   UNL     1       1.537  11.386  18.860  0.00  0.00    +0.000 C 
ATOM      4  N   UNL     1       1.180   9.973  19.109  0.00  0.00    +0.000 NA
ATOM      5  C   UNL     1      -0.174   9.730  19.615  0.00  0.00    +0.000 C 
ATOM      6  C   UNL     1      -1.193  10.850  19.495  0.00  0.00    +0.000 C 
ENDROOT
BRANCH   1  10
ATOM      7  C   UNL     1      -2.560  13.171  23.326  0.00  0.00    +0.000 C 
ATOM      8  C   UNL     1      -2.032  11.716  23.290  0.00  0.00    +0.000 C 
ATOM      9  C   UNL     1      -0.703  11.458  22.547  0.00  0.00    +0.000 C 
ATOM     10  C   UNL     1      -0.295  12.356  21.346  0.00  0.00    +0.000 C 
ATOM     11  C   UNL     1      -0.544  13.803  21.790  0.00  0.00    +0.000 C 
ATOM     12  C   UNL     1      -1.969  14.095  22.241  0.00  0.00    +0.000 C 
BRANCH   7  14
ATOM     13  C   UNL     1      -4.835  12.877  22.121  0.00  0.00    +0.000 C 
ATOM     14  C   UNL     1      -4.148  13.320  23.427  0.00  0.00    +0.000 C 
ATOM     15  C   UNL     1      -4.633  14.754  23.726  0.00  0.00    +0.000 C 
ATOM     16  C   UNL     1      -4.696  12.424  24.563  0.00  0.00    +0.000 C 
ENDBRANCH   7  14
ENDBRANCH   1  10
BRANCH   4  17
ATOM     17  C   UNL     1       1.484   9.047  18.022  0.00  0.00    +0.000 C 
BRANCH  17  18
ATOM     18  C   UNL     1       2.395   7.922  18.420  0.00  0.00    +0.000 A 
ATOM     19  C   UNL     1       3.436   7.497  17.500  0.00  0.00    +0.000 A 
ATOM     20  C   UNL     1       4.212   6.441  17.784  0.00  0.00    +0.000 A 
ATOM     21  C   UNL     1       4.008   5.710  19.055  0.00  0.00    +0.000 A 
ATOM     22  O   UNL     1       4.679   4.720  19.335  0.00  0.00    +0.000 OA
ATOM     23  N   UNL     1       3.036   6.200  19.891  0.00  0.00    +0.000 N 
ATOM     24  C   UNL     1       2.242   7.272  19.587  0.00  0.00    +0.000 A 
ATOM     25  H   UNL     1       2.900   5.693  20.751  0.00  0.00    +0.000 HD
ENDBRANCH  17  18
ENDBRANCH   4  17
TORSDOF 4
ENDMDL
MODEL 2
REMARK VINA RESULT:      -6.4      0.686      1.165
REMARK  Name = 
REMARK  7 active torsions:
REMARK  status: ('A' for Active; 'I' for Inactive)
REMARK    1  A    between atoms: C_1  and  C_2
REMARK    2  A    between atoms: C_2  and  C_3
REMARK    3  A    between atoms: C_2  and  C_4
REMARK    4  A    between atoms: C_2  and  C_5
REMARK    5  A    between atoms: C_8  and  N_9
REMARK    6  A    between atoms: N_12  and  C_13
REMARK    7  A    between atoms: C_13  and  C_14
REMARK                            x       y       z     vdW  Elec       q    Type
REMARK                         _______ _______ _______ _____ _____    ______ ____
ROOT
ATOM      1  N   UNL     1      -0.765  12.365  20.251  0.00  0.00    +0.000 NA
ATOM      2  C   UNL     1       0.434  12.695  19.468  0.00  0.00    +0.000 C 
ATOM      3  C   UNL     1       1.480  11.564  19.372  0.00  0.00    +0.000 C 
ATOM      4  N   UNL     1       1.001  10.166  19.404  0.00  0.00    +0.000 NA
ATOM      5  C   UNL     1      -0.419   9.978  19.716  0.00  0.00    +0.000 C 
ATOM      6  C   UNL     1      -1.338  11.184  19.614  0.00  0.00    +0.000 C 
ENDROOT
BRANCH   1  10
ATOM      7  C   UNL     1      -2.798  13.712  23.476  0.00  0.00    +0.000 C 
ATOM      8  C   UNL     1      -2.694  12.171  23.367  0.00  0.00    +0.000 C 
ATOM      9  C   UNL     1      -1.393  11.585  22.775  0.00  0.00    +0.000 C 
ATOM     10  C   UNL     1      -0.580  12.394  21.727  0.00  0.00    +0.000 C 
ATOM     11  C   UNL     1      -0.481  13.824  22.273  0.00  0.00    +0.000 C 
ATOM     12  C   UNL     1      -1.821  14.487  22.567  0.00  0.00    +0.000 C 
BRANCH   7  14
ATOM     13  C   UNL     1      -4.436  15.548  24.288  0.00  0.00    +0.000 C 
ATOM     14  C   UNL     1      -4.279  14.305  23.391  0.00  0.00    +0.000 C 
ATOM     15  C   UNL     1      -5.385  13.311  23.803  0.00  0.00    +0.000 C 
ATOM     16  C   UNL     1      -4.596  14.740  21.940  0.00  0.00    +0.000 C 
ENDBRANCH   7  14
ENDBRANCH   1  10
BRANCH   4  17
ATOM     17  C   UNL     1       1.375   9.347  18.256  0.00  0.00    +0.000 C 
BRANCH  17  18
ATOM     18  C   UNL     1       2.207   8.148  18.610  0.00  0.00    +0.000 A 
ATOM     19  C   UNL     1       3.141   7.621  17.630  0.00  0.00    +0.000 A 
ATOM     20  C   UNL     1       3.837   6.503  17.879  0.00  0.00    +0.000 A 
ATOM     21  C   UNL     1       3.655   5.806  19.173  0.00  0.00    +0.000 A 
ATOM     22  O   UNL     1       4.253   4.762  19.425  0.00  0.00    +0.000 OA
ATOM     23  N   UNL     1       2.791   6.391  20.064  0.00  0.00    +0.000 N 
ATOM     24  C   UNL     1       2.076   7.527  19.796  0.00  0.00    +0.000 A 
ATOM     25  H   UNL     1       2.668   5.908  20.940  0.00  0.00    +0.000 HD
ENDBRANCH  17  18
ENDBRANCH   4  17
TORSDOF 4
ENDMDL
MODEL 3
REMARK VINA RESULT:      -6.3      1.286      1.776
REMARK  Name = 
REMARK  7 active torsions:
REMARK  status: ('A' for Active; 'I' for Inactive)
REMARK    1  A    between atoms: C_1  and  C_2
REMARK    2  A    between atoms: C_2  and  C_3
REMARK    3  A    between atoms: C_2  and  C_4
REMARK    4  A    between atoms: C_2  and  C_5
REMARK    5  A    between atoms: C_8  and  N_9
REMARK    6  A    between atoms: N_12  and  C_13
REMARK    7  A    between atoms: C_13  and  C_14
REMARK                            x       y       z     vdW  Elec       q    Type
REMARK                         _______ _______ _______ _____ _____    ______ ____
ROOT
ATOM      1  N   UNL     1      -0.610  13.604  21.055  0.00  0.00    +0.000 NA
ATOM      2  C   UNL     1       0.783  13.572  20.586  0.00  0.00    +0.000 C 
ATOM      3  C   UNL     1       1.378  12.159  20.409  0.00  0.00    +0.000 C 
ATOM      4  N   UNL     1       0.464  11.059  20.032  0.00  0.00    +0.000 NA
ATOM      5  C   UNL     1      -0.967  11.377  20.046  0.00  0.00    +0.000 C 
ATOM      6  C   UNL     1      -1.373  12.841  20.073  0.00  0.00    +0.000 C 
ENDROOT
BRANCH   1  10
ATOM      7  C   UNL     1      -3.674  13.425  23.687  0.00  0.00    +0.000 C 
ATOM      8  C   UNL     1      -2.989  12.069  23.390  0.00  0.00    +0.000 C 
ATOM      9  C   UNL     1      -1.465  12.081  23.134  0.00  0.00    +0.000 C 
ATOM     10  C   UNL     1      -0.791  13.332  22.507  0.00  0.00    +0.000 C 
ATOM     11  C   UNL     1      -1.352  14.544  23.260  0.00  0.00    +0.000 C 
ATOM     12  C   UNL     1      -2.870  14.662  23.234  0.00  0.00    +0.000 C 
BRANCH   7  14
ATOM     13  C   UNL     1      -5.691  14.989  23.240  0.00  0.00    +0.000 C 
ATOM     14  C   UNL     1      -5.208  13.526  23.250  0.00  0.00    +0.000 C 
ATOM     15  C   UNL     1      -6.178  12.738  24.156  0.00  0.00    +0.000 C 
ATOM     16  C   UNL     1      -5.392  12.970  21.818  0.00  0.00    +0.000 C 
ENDBRANCH   7  14
ENDBRANCH   1  10
BRANCH   4  17
ATOM     17  C   UNL     1       0.810  10.347  18.806  0.00  0.00    +0.000 C 
BRANCH  17  18
ATOM     18  C   UNL     1       1.516   9.043  19.039  0.00  0.00    +0.000 A 
ATOM     19  C   UNL     1       2.178   8.389  17.924  0.00  0.00    +0.000 A 
ATOM     20  C   UNL     1       2.745   7.183  18.075  0.00  0.00    +0.000 A 
ATOM     21  C   UNL     1       2.700   6.519  19.398  0.00  0.00    +0.000 A 
ATOM     22  O   UNL     1       3.181   5.402  19.567  0.00  0.00    +0.000 OA
ATOM     23  N   UNL     1       2.097   7.221  20.413  0.00  0.00    +0.000 N 
ATOM     24  C   UNL     1       1.512   8.447  20.246  0.00  0.00    +0.000 A 
ATOM     25  H   UNL     1       2.066   6.760  21.308  0.00  0.00    +0.000 HD
ENDBRANCH  17  18
ENDBRANCH   4  17
TORSDOF 4
ENDMDL
MODEL 4
REMARK VINA RESULT:      -6.3      3.684      9.648
REMARK  Name = 
REMARK  7 active torsions:
REMARK  status: ('A' for Active; 'I' for Inactive)
REMARK    1  A    between atoms: C_1  and  C_2
REMARK    2  A    between atoms: C_2  and  C_3
REMARK    3  A    between atoms: C_2  and  C_4
REMARK    4  A    between atoms: C_2  and  C_5
REMARK    5  A    between atoms: C_8  and  N_9
REMARK    6  A    between atoms: N_12  and  C_13
REMARK    7  A    between atoms: C_13  and  C_14
REMARK                            x       y       z     vdW  Elec       q    Type
REMARK                         _______ _______ _______ _____ _____    ______ ____
ROOT
ATOM      1  N   UNL     1       1.946   4.186  18.937  0.00  0.00    +0.000 NA
ATOM      2  C   UNL     1       1.246   4.850  20.046  0.00  0.00    +0.000 C 
ATOM      3  C   UNL     1       1.806   6.235  20.434  0.00  0.00    +0.000 C 
ATOM      4  N   UNL     1       2.423   7.060  19.373  0.00  0.00    +0.000 NA
ATOM      5  C   UNL     1       2.618   6.403  18.077  0.00  0.00    +0.000 C 
ATOM      6  C   UNL     1       1.865   5.111  17.811  0.00  0.00    +0.000 C 
ENDROOT
BRANCH   1  10
ATOM      7  C   UNL     1       5.778   4.389  17.661  0.00  0.00    +0.000 C 
ATOM      8  C   UNL     1       5.527   4.981  19.069  0.00  0.00    +0.000 C 
ATOM      9  C   UNL     1       4.463   4.293  19.953  0.00  0.00    +0.000 C 
ATOM     10  C   UNL     1       3.254   3.572  19.296  0.00  0.00    +0.000 C 
ATOM     11  C   UNL     1       3.829   2.721  18.157  0.00  0.00    +0.000 C 
ATOM     12  C   UNL     1       4.636   3.500  17.126  0.00  0.00    +0.000 C 
BRANCH   7  14
ATOM     13  C   UNL     1       7.212   6.492  17.177  0.00  0.00    +0.000 C 
ATOM     14  C   UNL     1       6.278   5.433  16.559  0.00  0.00    +0.000 C 
ATOM     15  C   UNL     1       5.142   6.196  15.846  0.00  0.00    +0.000 C 
ATOM     16  C   UNL     1       7.078   4.700  15.456  0.00  0.00    +0.000 C 
ENDBRANCH   7  14
ENDBRANCH   1  10
BRANCH   4  17
ATOM     17  C   UNL     1       1.835   8.382  19.184  0.00  0.00    +0.000 C 
BRANCH  17  18
ATOM     18  C   UNL     1       1.099   8.898  20.386  0.00  0.00    +0.000 A 
ATOM     19  C   UNL     1      -0.100   9.694  20.193  0.00  0.00    +0.000 A 
ATOM     20  C   UNL     1      -0.735  10.243  21.238  0.00  0.00    +0.000 A 
ATOM     21  C   UNL     1      -0.209  10.024  22.605  0.00  0.00    +0.000 A 
ATOM     22  O   UNL     1      -0.745  10.535  23.585  0.00  0.00    +0.000 OA
ATOM     23  N   UNL     1       0.901   9.222  22.710  0.00  0.00    +0.000 N 
ATOM     24  C   UNL     1       1.548   8.675  21.634  0.00  0.00    +0.000 A 
ATOM     25  H   UNL     1       1.256   9.082  23.642  0.00  0.00    +0.000 HD
ENDBRANCH  17  18
ENDBRANCH   4  17
TORSDOF 4
ENDMDL
MODEL 5
REMARK VINA RESULT:      -6.2      3.414      8.425
REMARK  Name = 
REMARK  7 active torsions:
REMARK  status: ('A' for Active; 'I' for Inactive)
REMARK    1  A    between atoms: C_1  and  C_2
REMARK    2  A    between atoms: C_2  and  C_3
REMARK    3  A    between atoms: C_2  and  C_4
REMARK    4  A    between atoms: C_2  and  C_5
REMARK    5  A    between atoms: C_8  and  N_9
REMARK    6  A    between atoms: N_12  and  C_13
REMARK    7  A    between atoms: C_13  and  C_14
REMARK                            x       y       z     vdW  Elec       q    Type
REMARK                         _______ _______ _______ _____ _____    ______ ____
ROOT
ATOM      1  N   UNL     1      -0.267   9.504  19.612  0.00  0.00    +0.000 NA
ATOM      2  C   UNL     1      -0.820   9.922  20.908  0.00  0.00    +0.000 C 
ATOM      3  C   UNL     1      -0.675  11.426  21.223  0.00  0.00    +0.000 C 
ATOM      4  N   UNL     1      -0.683  12.379  20.093  0.00  0.00    +0.000 NA
ATOM      5  C   UNL     1      -0.638  11.790  18.752  0.00  0.00    +0.000 C 
ATOM      6  C   UNL     1      -0.956  10.311  18.611  0.00  0.00    +0.000 C 
ENDROOT
BRANCH   1  10
ATOM      7  C   UNL     1       2.468   6.531  19.439  0.00  0.00    +0.000 C 
ATOM      8  C   UNL     1       2.381   7.412  18.168  0.00  0.00    +0.000 C 
ATOM      9  C   UNL     1       2.071   8.912  18.361  0.00  0.00    +0.000 C 
ATOM     10  C   UNL     1       1.216   9.382  19.572  0.00  0.00    +0.000 C 
ATOM     11  C   UNL     1       1.773   8.651  20.799  0.00  0.00    +0.000 C 
ATOM     12  C   UNL     1       1.784   7.131  20.684  0.00  0.00    +0.000 C 
BRANCH   7  14
ATOM     13  C   UNL     1       3.295   4.075  19.449  0.00  0.00    +0.000 C 
ATOM     14  C   UNL     1       2.078   4.995  19.234  0.00  0.00    +0.000 C 
ATOM     15  C   UNL     1       1.508   4.666  17.838  0.00  0.00    +0.000 C 
ATOM     16  C   UNL     1       0.998   4.578  20.260  0.00  0.00    +0.000 C 
ENDBRANCH   7  14
ENDBRANCH   1  10
BRANCH   4  17
ATOM     17  C   UNL     1      -1.708  13.416  20.153  0.00  0.00    +0.000 C 
BRANCH  17  18
ATOM     18  C   UNL     1      -3.068  12.905  20.532  0.00  0.00    +0.000 A 
ATOM     19  C   UNL     1      -3.968  12.449  19.487  0.00  0.00    +0.000 A 
ATOM     20  C   UNL     1      -5.219  12.066  19.779  0.00  0.00    +0.000 A 
ATOM     21  C   UNL     1      -5.681  12.103  21.185  0.00  0.00    +0.000 A 
ATOM     22  O   UNL     1      -6.830  11.789  21.487  0.00  0.00    +0.000 OA
ATOM     23  N   UNL     1      -4.759  12.502  22.120  0.00  0.00    +0.000 N 
ATOM     24  C   UNL     1      -3.486  12.901  21.810  0.00  0.00    +0.000 A 
ATOM     25  H   UNL     1      -5.083  12.529  23.073  0.00  0.00    +0.000 HD
ENDBRANCH  17  18
ENDBRANCH   4  17
TORSDOF 4
ENDMDL
MODEL 6
REMARK VINA RESULT:      -6.2      0.917      1.488
REMARK  Name = 
REMARK  7 active torsions:
REMARK  status: ('A' for Active; 'I' for Inactive)
REMARK    1  A    between atoms: C_1  and  C_2
REMARK    2  A    between atoms: C_2  and  C_3
REMARK    3  A    between atoms: C_2  and  C_4
REMARK    4  A    between atoms: C_2  and  C_5
REMARK    5  A    between atoms: C_8  and  N_9
REMARK    6  A    between atoms: N_12  and  C_13
REMARK    7  A    between atoms: C_13  and  C_14
REMARK                            x       y       z     vdW  Elec       q    Type
REMARK                         _______ _______ _______ _____ _____    ______ ____
ROOT
ATOM      1  N   UNL     1      -0.184  11.586  19.759  0.00  0.00    +0.000 NA
ATOM      2  C   UNL     1       0.865  11.899  18.777  0.00  0.00    +0.000 C 
ATOM      3  C   UNL     1       1.971  10.832  18.643  0.00  0.00    +0.000 C 
ATOM      4  N   UNL     1       1.611   9.419  18.888  0.00  0.00    +0.000 NA
ATOM      5  C   UNL     1       0.268   9.180  19.425  0.00  0.00    +0.000 C 
ATOM      6  C   UNL     1      -0.747  10.307  19.338  0.00  0.00    +0.000 C 
ENDROOT
BRANCH   1  10
ATOM      7  C   UNL     1      -1.942  12.871  23.165  0.00  0.00    +0.000 C 
ATOM      8  C   UNL     1      -1.571  11.369  23.150  0.00  0.00    +0.000 C 
ATOM      9  C   UNL     1      -0.283  10.960  22.400  0.00  0.00    +0.000 C 
ATOM     10  C   UNL     1       0.205  11.791  21.181  0.00  0.00    +0.000 C 
ATOM     11  C   UNL     1       0.114  13.263  21.601  0.00  0.00    +0.000 C 
ATOM     12  C   UNL     1      -1.269  13.710  22.059  0.00  0.00    +0.000 C 
BRANCH   7  14
ATOM     13  C   UNL     1      -3.760  14.700  23.424  0.00  0.00    +0.000 C 
ATOM     14  C   UNL     1      -3.505  13.188  23.276  0.00  0.00    +0.000 C 
ATOM     15  C   UNL     1      -4.210  12.496  24.462  0.00  0.00    +0.000 C 
ATOM     16  C   UNL     1      -4.236  12.720  21.996  0.00  0.00    +0.000 C 
ENDBRANCH   7  14
ENDBRANCH   1  10
BRANCH   4  17
ATOM     17  C   UNL     1       1.883   8.501  17.787  0.00  0.00    +0.000 C 
BRANCH  17  18
ATOM     18  C   UNL     1       2.838   7.397  18.137  0.00  0.00    +0.000 A 
ATOM     19  C   UNL     1       2.543   6.541  19.273  0.00  0.00    +0.000 A 
ATOM     20  C   UNL     1       3.414   5.601  19.667  0.00  0.00    +0.000 A 
ATOM     21  C   UNL     1       4.686   5.432  18.928  0.00  0.00    +0.000 A 
ATOM     22  O   UNL     1       5.521   4.602  19.278  0.00  0.00    +0.000 OA
ATOM     23  N   UNL     1       4.871   6.247  17.839  0.00  0.00    +0.000 N 
ATOM     24  C   UNL     1       3.980   7.212  17.451  0.00  0.00    +0.000 A 
ATOM     25  H   UNL     1       5.741   6.130  17.345  0.00  0.00    +0.000 HD
ENDBRANCH  17  18
ENDBRANCH   4  17
TORSDOF 4
ENDMDL
MODEL 7
REMARK VINA RESULT:      -6.1      3.374      8.438
REMARK  Name = 
REMARK  7 active torsions:
REMARK  status: ('A' for Active; 'I' for Inactive)
REMARK    1  A    between atoms: C_1  and  C_2
REMARK    2  A    between atoms: C_2  and  C_3
REMARK    3  A    between atoms: C_2  and  C_4
REMARK    4  A    between atoms: C_2  and  C_5
REMARK    5  A    between atoms: C_8  and  N_9
REMARK    6  A    between atoms: N_12  and  C_13
REMARK    7  A    between atoms: C_13  and  C_14
REMARK                            x       y       z     vdW  Elec       q    Type
REMARK                         _______ _______ _______ _____ _____    ______ ____
ROOT
ATOM      1  N   UNL     1      -0.023   9.332  19.393  0.00  0.00    +0.000 NA
ATOM      2  C   UNL     1      -0.639   9.758  20.658  0.00  0.00    +0.000 C 
ATOM      3  C   UNL     1      -0.404  11.237  21.031  0.00  0.00    +0.000 C 
ATOM      4  N   UNL     1      -0.256  12.218  19.935  0.00  0.00    +0.000 NA
ATOM      5  C   UNL     1      -0.156  11.662  18.582  0.00  0.00    +0.000 C 
ATOM      6  C   UNL     1      -0.573  10.216  18.371  0.00  0.00    +0.000 C 
ENDROOT
BRANCH   1  10
ATOM      7  C   UNL     1       2.482   6.158  19.419  0.00  0.00    +0.000 C 
ATOM      8  C   UNL     1       2.550   7.032  18.143  0.00  0.00    +0.000 C 
ATOM      9  C   UNL     1       2.344   8.554  18.310  0.00  0.00    +0.000 C 
ATOM     10  C   UNL     1       1.446   9.097  19.456  0.00  0.00    +0.000 C 
ATOM     11  C   UNL     1       1.859   8.336  20.722  0.00  0.00    +0.000 C 
ATOM     12  C   UNL     1       1.761   6.819  20.612  0.00  0.00    +0.000 C 
BRANCH   7  14
ATOM     13  C   UNL     1       1.433   4.458  17.769  0.00  0.00    +0.000 C 
ATOM     14  C   UNL     1       1.990   4.655  19.192  0.00  0.00    +0.000 C 
ATOM     15  C   UNL     1       0.892   4.191  20.172  0.00  0.00    +0.000 C 
ATOM     16  C   UNL     1       3.175   3.675  19.363  0.00  0.00    +0.000 C 
ENDBRANCH   7  14
ENDBRANCH   1  10
BRANCH   4  17
ATOM     17  C   UNL     1      -1.202  13.328  19.953  0.00  0.00    +0.000 C 
BRANCH  17  18
ATOM     18  C   UNL     1      -2.549  12.970  20.512  0.00  0.00    +0.000 A 
ATOM     19  C   UNL     1      -3.584  12.492  19.611  0.00  0.00    +0.000 A 
ATOM     20  C   UNL     1      -4.822  12.244  20.060  0.00  0.00    +0.000 A 
ATOM     21  C   UNL     1      -5.132  12.455  21.493  0.00  0.00    +0.000 A 
ATOM     22  O   UNL     1      -6.263  12.268  21.935  0.00  0.00    +0.000 OA
ATOM     23  N   UNL     1      -4.091  12.864  22.288  0.00  0.00    +0.000 N 
ATOM     24  C   UNL     1      -2.832  13.124  21.818  0.00  0.00    +0.000 A 
ATOM     25  H   UNL     1      -4.311  13.010  23.260  0.00  0.00    +0.000 HD
ENDBRANCH  17  18
ENDBRANCH   4  17
TORSDOF 4
ENDMDL
MODEL 8
REMARK VINA RESULT:      -6.1      3.222      8.454
REMARK  Name = 
REMARK  7 active torsions:
REMARK  status: ('A' for Active; 'I' for Inactive)
REMARK    1  A    between atoms: C_1  and  C_2
REMARK    2  A    between atoms: C_2  and  C_3
REMARK    3  A    between atoms: C_2  and  C_4
REMARK    4  A    between atoms: C_2  and  C_5
REMARK    5  A    between atoms: C_8  and  N_9
REMARK    6  A    between atoms: N_12  and  C_13
REMARK    7  A    between atoms: C_13  and  C_14
REMARK                            x       y       z     vdW  Elec       q    Type
REMARK                         _______ _______ _______ _____ _____    ______ ____
ROOT
ATOM      1  N   UNL     1      -0.226   9.536  19.209  0.00  0.00    +0.000 NA
ATOM      2  C   UNL     1      -0.846   9.792  20.517  0.00  0.00    +0.000 C 
ATOM      3  C   UNL     1      -0.730  11.246  21.019  0.00  0.00    +0.000 C 
ATOM      4  N   UNL     1      -0.692  12.330  20.014  0.00  0.00    +0.000 NA
ATOM      5  C   UNL     1      -0.576  11.908  18.615  0.00  0.00    +0.000 C 
ATOM      6  C   UNL     1      -0.873  10.456  18.281  0.00  0.00    +0.000 C 
ENDROOT
BRANCH   1  10
ATOM      7  C   UNL     1       2.533   6.582  19.316  0.00  0.00    +0.000 C 
ATOM      8  C   UNL     1       2.485   7.382  17.991  0.00  0.00    +0.000 C 
ATOM      9  C   UNL     1       2.158   8.889  18.080  0.00  0.00    +0.000 C 
ATOM     10  C   UNL     1       1.258   9.424  19.228  0.00  0.00    +0.000 C 
ATOM     11  C   UNL     1       1.776   8.775  20.517  0.00  0.00    +0.000 C 
ATOM     12  C   UNL     1       1.801   7.252  20.497  0.00  0.00    +0.000 C 
BRANCH   7  14
ATOM     13  C   UNL     1       3.400   4.141  19.399  0.00  0.00    +0.000 C 
ATOM     14  C   UNL     1       2.160   5.033  19.193  0.00  0.00    +0.000 C 
ATOM     15  C   UNL     1       1.541   4.635  17.837  0.00  0.00    +0.000 C 
ATOM     16  C   UNL     1       1.129   4.645  20.279  0.00  0.00    +0.000 C 
ENDBRANCH   7  14
ENDBRANCH   1  10
BRANCH   4  17
ATOM     17  C   UNL     1      -1.728  13.348  20.148  0.00  0.00    +0.000 C 
BRANCH  17  18
ATOM     18  C   UNL     1      -2.637  13.140  21.324  0.00  0.00    +0.000 A 
ATOM     19  C   UNL     1      -2.137  13.411  22.661  0.00  0.00    +0.000 A 
ATOM     20  C   UNL     1      -2.891  13.155  23.740  0.00  0.00    +0.000 A 
ATOM     21  C   UNL     1      -4.250  12.597  23.561  0.00  0.00    +0.000 A 
ATOM     22  O   UNL     1      -4.958  12.322  24.527  0.00  0.00    +0.000 OA
ATOM     23  N   UNL     1      -4.668  12.412  22.267  0.00  0.00    +0.000 N 
ATOM     24  C   UNL     1      -3.887  12.666  21.172  0.00  0.00    +0.000 A 
ATOM     25  H   UNL     1      -5.592  12.027  22.154  0.00  0.00    +0.000 HD
ENDBRANCH  17  18
ENDBRANCH   4  17
TORSDOF 4
ENDMDL
MODEL 9
REMARK VINA RESULT:      -6.1      3.278      5.596
REMARK  Name = 
REMARK  7 active torsions:
REMARK  status: ('A' for Active; 'I' for Inactive)
REMARK    1  A    between atoms: C_1  and  C_2
REMARK    2  A    between atoms: C_2  and  C_3
REMARK    3  A    between atoms: C_2  and  C_4
REMARK    4  A    between atoms: C_2  and  C_5
REMARK    5  A    between atoms: C_8  and  N_9
REMARK    6  A    between atoms: N_12  and  C_13
REMARK    7  A    between atoms: C_13  and  C_14
REMARK                            x       y       z     vdW  Elec       q    Type
REMARK                         _______ _______ _______ _____ _____    ______ ____
ROOT
ATOM      1  N   UNL     1       1.672   6.957  19.066  0.00  0.00    +0.000 NA
ATOM      2  C   UNL     1       2.257   6.955  17.717  0.00  0.00    +0.000 C 
ATOM      3  C   UNL     1       3.777   6.691  17.668  0.00  0.00    +0.000 C 
ATOM      4  N   UNL     1       4.370   5.829  18.713  0.00  0.00    +0.000 NA
ATOM      5  C   UNL     1       3.483   5.455  19.819  0.00  0.00    +0.000 C 
ATOM      6  C   UNL     1       1.988   5.651  19.633  0.00  0.00    +0.000 C 
ENDROOT
BRANCH   1  10
ATOM      7  C   UNL     1      -0.002  10.612  19.497  0.00  0.00    +0.000 C 
ATOM      8  C   UNL     1      -0.122   9.689  20.734  0.00  0.00    +0.000 C 
ATOM      9  C   UNL     1       1.054   8.732  21.027  0.00  0.00    +0.000 C 
ATOM     10  C   UNL     1       1.926   8.190  19.860  0.00  0.00    +0.000 C 
ATOM     11  C   UNL     1       2.251   9.397  18.972  0.00  0.00    +0.000 C 
ATOM     12  C   UNL     1       1.033  10.150  18.451  0.00  0.00    +0.000 C 
BRANCH   7  14
ATOM     13  C   UNL     1      -2.385  11.563  19.858  0.00  0.00    +0.000 C 
ATOM     14  C   UNL     1      -1.386  11.025  18.815  0.00  0.00    +0.000 C 
ATOM     15  C   UNL     1      -2.094   9.875  18.067  0.00  0.00    +0.000 C 
ATOM     16  C   UNL     1      -1.155  12.149  17.777  0.00  0.00    +0.000 C 
ENDBRANCH   7  14
ENDBRANCH   1  10
BRANCH   4  17
ATOM     17  C   UNL     1       5.090   4.657  18.227  0.00  0.00    +0.000 C 
BRANCH  17  18
ATOM     18  C   UNL     1       5.752   4.859  16.895  0.00  0.00    +0.000 A 
ATOM     19  C   UNL     1       5.189   4.217  15.720  0.00  0.00    +0.000 A 
ATOM     20  C   UNL     1       5.802   4.305  14.531  0.00  0.00    +0.000 A 
ATOM     21  C   UNL     1       7.062   5.074  14.417  0.00  0.00    +0.000 A 
ATOM     22  O   UNL     1       7.668   5.152  13.351  0.00  0.00    +0.000 OA
ATOM     23  N   UNL     1       7.506   5.690  15.561  0.00  0.00    +0.000 N 
ATOM     24  C   UNL     1       6.879   5.585  16.773  0.00  0.00    +0.000 A 
ATOM     25  H   UNL     1       8.367   6.206  15.477  0.00  0.00    +0.000 HD
ENDBRANCH  17  18
ENDBRANCH   4  17
TORSDOF 4
ENDMDL
