MODEL 1
REMARK VINA RESULT:      -8.2      0.000      0.000
REMARK  Name = 
REMARK  5 active torsions:
REMARK  status: ('A' for Active; 'I' for Inactive)
REMARK    1  A    between atoms: C_1  and  C_2
REMARK    2  A    between atoms: C_4  and  N_5
REMARK    3  A    between atoms: N_5  and  C_6
REMARK    4  A    between atoms: C_9  and  C_10
REMARK    5  A    between atoms: C_14  and  C_15
REMARK                            x       y       z     vdW  Elec       q    Type
REMARK                         _______ _______ _______ _____ _____    ______ ____
ROOT
ATOM      1  C   UNL     1       2.299   6.331  19.468  0.00  0.00    +0.000 A 
ATOM      2  C   UNL     1       2.322   5.892  18.145  0.00  0.00    +0.000 A 
ATOM      3  C   UNL     1       2.368   4.525  17.849  0.00  0.00    +0.000 A 
ATOM      4  C   UNL     1       2.396   3.553  18.863  0.00  0.00    +0.000 A 
ATOM      5  C   UNL     1       2.330   3.972  20.207  0.00  0.00    +0.000 A 
ATOM      6  C   UNL     1       2.279   5.357  20.479  0.00  0.00    +0.000 A 
ENDROOT
BRANCH   4   7
ATOM      7  C   UNL     1       2.534   2.090  18.481  0.00  0.00    +0.000 C 
ATOM      8  F   UNL     1       1.583   1.299  19.052  0.00  0.00    +0.000 F 
ATOM      9  F   UNL     1       2.414   1.895  17.142  0.00  0.00    +0.000 F 
ATOM     10  F   UNL     1       3.725   1.558  18.859  0.00  0.00    +0.000 F 
ENDBRANCH   4   7
BRANCH   5  11
ATOM     11  C   UNL     1       2.328   3.035  21.398  0.00  0.00    +0.000 C 
ATOM     12  F   UNL     1       3.386   2.193  21.472  0.00  0.00    +0.000 F 
ATOM     13  F   UNL     1       2.316   3.718  22.577  0.00  0.00    +0.000 F 
ATOM     14  F   UNL     1       1.220   2.245  21.419  0.00  0.00    +0.000 F 
ENDBRANCH   5  11
BRANCH   1  15
ATOM     15  N   UNL     1       2.421   7.702  19.755  0.00  0.00    +0.000 N 
ATOM     16  H   UNL     1       3.236   8.183  19.372  0.00  0.00    +0.000 HD
BRANCH  15  20
ATOM     17  C   UNL     1      -0.112   9.572  23.581  0.00  0.00    +0.000 C 
ATOM     18  C   UNL     1       0.138   9.531  22.094  0.00  0.00    +0.000 A 
ATOM     19  C   UNL     1       1.223   8.621  21.637  0.00  0.00    +0.000 A 
ATOM     20  C   UNL     1       1.452   8.528  20.315  0.00  0.00    +0.000 A 
ATOM     21  N   UNL     1       0.686   9.355  19.466  0.00  0.00    +0.000 N 
ATOM     22  N   UNL     1       0.744   9.487  18.110  0.00  0.00    +0.000 NA
ATOM     23  C   UNL     1      -0.212  10.390  17.884  0.00  0.00    +0.000 A 
ATOM     24  N   UNL     1      -0.872  10.851  18.980  0.00  0.00    +0.000 NA
ATOM     25  C   UNL     1      -0.309  10.203  19.977  0.00  0.00    +0.000 A 
ATOM     26  N   UNL     1      -0.584  10.275  21.314  0.00  0.00    +0.000 NA
ENDBRANCH  15  20
ENDBRANCH   1  15
TORSDOF 4
ENDMDL
MODEL 2
REMARK VINA RESULT:      -8.1      0.085      1.065
REMARK  Name = 
REMARK  5 active torsions:
REMARK  status: ('A' for Active; 'I' for Inactive)
REMARK    1  A    between atoms: C_1  and  C_2
REMARK    2  A    between atoms: C_4  and  N_5
REMARK    3  A    between atoms: N_5  and  C_6
REMARK    4  A    between atoms: C_9  and  C_10
REMARK    5  A    between atoms: C_14  and  C_15
REMARK                            x       y       z     vdW  Elec       q    Type
REMARK                         _______ _______ _______ _____ _____    ______ ____
ROOT
ATOM      1  C   UNL     1       2.298   6.304  19.501  0.00  0.00    +0.000 A 
ATOM      2  C   UNL     1       2.276   5.888  18.172  0.00  0.00    +0.000 A 
ATOM      3  C   UNL     1       2.302   4.527  17.851  0.00  0.00    +0.000 A 
ATOM      4  C   UNL     1       2.355   3.536  18.846  0.00  0.00    +0.000 A 
ATOM      5  C   UNL     1       2.333   3.932  20.199  0.00  0.00    +0.000 A 
ATOM      6  C   UNL     1       2.302   5.313  20.496  0.00  0.00    +0.000 A 
ENDROOT
BRANCH   4   7
ATOM      7  C   UNL     1       2.469   2.079  18.436  0.00  0.00    +0.000 C 
ATOM      8  F   UNL     1       2.434   1.902  17.085  0.00  0.00    +0.000 F 
ATOM      9  F   UNL     1       3.637   1.521  18.847  0.00  0.00    +0.000 F 
ATOM     10  F   UNL     1       1.462   1.314  18.930  0.00  0.00    +0.000 F 
ENDBRANCH   4   7
BRANCH   5  11
ATOM     11  C   UNL     1       2.362   2.975  21.373  0.00  0.00    +0.000 C 
ATOM     12  F   UNL     1       1.352   2.073  21.407  0.00  0.00    +0.000 F 
ATOM     13  F   UNL     1       3.511   2.244  21.400  0.00  0.00    +0.000 F 
ATOM     14  F   UNL     1       2.315   3.633  22.564  0.00  0.00    +0.000 F 
ENDBRANCH   5  11
BRANCH   1  15
ATOM     15  N   UNL     1       2.440   7.669  19.809  0.00  0.00    +0.000 N 
ATOM     16  H   UNL     1       3.277   8.137  19.457  0.00  0.00    +0.000 HD
BRANCH  15  20
ATOM     17  C   UNL     1      -0.139   9.589  23.578  0.00  0.00    +0.000 C 
ATOM     18  C   UNL     1       0.137   9.538  22.096  0.00  0.00    +0.000 A 
ATOM     19  C   UNL     1       1.219   8.612  21.663  0.00  0.00    +0.000 A 
ATOM     20  C   UNL     1       1.471   8.510  20.346  0.00  0.00    +0.000 A 
ATOM     21  N   UNL     1       0.731   9.342  19.479  0.00  0.00    +0.000 N 
ATOM     22  N   UNL     1       0.815   9.467  18.124  0.00  0.00    +0.000 NA
ATOM     23  C   UNL     1      -0.125  10.381  17.877  0.00  0.00    +0.000 A 
ATOM     24  N   UNL     1      -0.799  10.855  18.958  0.00  0.00    +0.000 NA
ATOM     25  C   UNL     1      -0.263  10.205  19.968  0.00  0.00    +0.000 A 
ATOM     26  N   UNL     1      -0.561  10.287  21.300  0.00  0.00    +0.000 NA
ENDBRANCH  15  20
ENDBRANCH   1  15
TORSDOF 4
ENDMDL
MODEL 3
REMARK VINA RESULT:      -8.1      4.641      7.577
REMARK  Name = 
REMARK  5 active torsions:
REMARK  status: ('A' for Active; 'I' for Inactive)
REMARK    1  A    between atoms: C_1  and  C_2
REMARK    2  A    between atoms: C_4  and  N_5
REMARK    3  A    between atoms: N_5  and  C_6
REMARK    4  A    between atoms: C_9  and  C_10
REMARK    5  A    between atoms: C_14  and  C_15
REMARK                            x       y       z     vdW  Elec       q    Type
REMARK                         _______ _______ _______ _____ _____    ______ ____
ROOT
ATOM      1  C   UNL     1       2.902   5.268  19.047  0.00  0.00    +0.000 A 
ATOM      2  C   UNL     1       2.332   5.169  20.314  0.00  0.00    +0.000 A 
ATOM      3  C   UNL     1       1.652   6.255  20.877  0.00  0.00    +0.000 A 
ATOM      4  C   UNL     1       1.523   7.476  20.193  0.00  0.00    +0.000 A 
ATOM      5  C   UNL     1       2.053   7.585  18.892  0.00  0.00    +0.000 A 
ATOM      6  C   UNL     1       2.731   6.472  18.345  0.00  0.00    +0.000 A 
ENDROOT
BRANCH   4   7
ATOM      7  C   UNL     1       0.850   8.646  20.889  0.00  0.00    +0.000 C 
ATOM      8  F   UNL     1      -0.064   9.280  20.101  0.00  0.00    +0.000 F 
ATOM      9  F   UNL     1       0.169   8.260  21.999  0.00  0.00    +0.000 F 
ATOM     10  F   UNL     1       1.731   9.606  21.271  0.00  0.00    +0.000 F 
ENDBRANCH   4   7
BRANCH   5  11
ATOM     11  C   UNL     1       1.967   8.829  18.032  0.00  0.00    +0.000 C 
ATOM     12  F   UNL     1       2.373   9.974  18.630  0.00  0.00    +0.000 F 
ATOM     13  F   UNL     1       2.721   8.715  16.903  0.00  0.00    +0.000 F 
ATOM     14  F   UNL     1       0.696   9.062  17.604  0.00  0.00    +0.000 F 
ENDBRANCH   5  11
BRANCH   1  15
ATOM     15  N   UNL     1       3.722   4.233  18.562  0.00  0.00    +0.000 N 
ATOM     16  H   UNL     1       3.376   3.279  18.674  0.00  0.00    +0.000 HD
BRANCH  15  20
ATOM     17  C   UNL     1       6.107   3.916  14.231  0.00  0.00    +0.000 C 
ATOM     18  C   UNL     1       6.134   4.268  15.697  0.00  0.00    +0.000 A 
ATOM     19  C   UNL     1       4.853   4.100  16.435  0.00  0.00    +0.000 A 
ATOM     20  C   UNL     1       4.846   4.368  17.753  0.00  0.00    +0.000 A 
ATOM     21  N   UNL     1       6.042   4.854  18.322  0.00  0.00    +0.000 N 
ATOM     22  N   UNL     1       6.294   5.236  19.606  0.00  0.00    +0.000 NA
ATOM     23  C   UNL     1       7.580   5.584  19.539  0.00  0.00    +0.000 A 
ATOM     24  N   UNL     1       8.172   5.460  18.321  0.00  0.00    +0.000 NA
ATOM     25  C   UNL     1       7.208   5.003  17.552  0.00  0.00    +0.000 A 
ATOM     26  N   UNL     1       7.243   4.692  16.222  0.00  0.00    +0.000 NA
ENDBRANCH  15  20
ENDBRANCH   1  15
TORSDOF 4
ENDMDL
MODEL 4
REMARK VINA RESULT:      -8.0      1.381      2.728
REMARK  Name = 
REMARK  5 active torsions:
REMARK  status: ('A' for Active; 'I' for Inactive)
REMARK    1  A    between atoms: C_1  and  C_2
REMARK    2  A    between atoms: C_4  and  N_5
REMARK    3  A    between atoms: N_5  and  C_6
REMARK    4  A    between atoms: C_9  and  C_10
REMARK    5  A    between atoms: C_14  and  C_15
REMARK                            x       y       z     vdW  Elec       q    Type
REMARK                         _______ _______ _______ _____ _____    ______ ____
ROOT
ATOM      1  C   UNL     1       2.147   6.892  19.801  0.00  0.00    +0.000 A 
ATOM      2  C   UNL     1       2.910   6.980  18.639  0.00  0.00    +0.000 A 
ATOM      3  C   UNL     1       3.231   5.831  17.909  0.00  0.00    +0.000 A 
ATOM      4  C   UNL     1       2.804   4.556  18.317  0.00  0.00    +0.000 A 
ATOM      5  C   UNL     1       1.994   4.448  19.466  0.00  0.00    +0.000 A 
ATOM      6  C   UNL     1       1.680   5.624  20.183  0.00  0.00    +0.000 A 
ENDROOT
BRANCH   4   7
ATOM      7  C   UNL     1       3.256   3.337  17.533  0.00  0.00    +0.000 C 
ATOM      8  F   UNL     1       3.927   3.658  16.391  0.00  0.00    +0.000 F 
ATOM      9  F   UNL     1       4.105   2.554  18.247  0.00  0.00    +0.000 F 
ATOM     10  F   UNL     1       2.220   2.552  17.139  0.00  0.00    +0.000 F 
ENDBRANCH   4   7
BRANCH   5  11
ATOM     11  C   UNL     1       1.443   3.144  20.007  0.00  0.00    +0.000 C 
ATOM     12  F   UNL     1       2.352   2.151  20.156  0.00  0.00    +0.000 F 
ATOM     13  F   UNL     1       0.871   3.309  21.233  0.00  0.00    +0.000 F 
ATOM     14  F   UNL     1       0.464   2.637  19.208  0.00  0.00    +0.000 F 
ENDBRANCH   5  11
BRANCH   1  15
ATOM     15  N   UNL     1       1.973   8.026  20.615  0.00  0.00    +0.000 N 
ATOM     16  H   UNL     1       2.722   8.241  21.275  0.00  0.00    +0.000 HD
BRANCH  15  20
ATOM     17  C   UNL     1      -0.807  11.136  17.940  0.00  0.00    +0.000 C 
ATOM     18  C   UNL     1      -0.425  10.580  19.290  0.00  0.00    +0.000 A 
ATOM     19  C   UNL     1       0.608   9.509  19.288  0.00  0.00    +0.000 A 
ATOM     20  C   UNL     1       1.003   9.014  20.475  0.00  0.00    +0.000 A 
ATOM     21  N   UNL     1       0.355   9.503  21.629  0.00  0.00    +0.000 N 
ATOM     22  N   UNL     1       0.531   9.148  22.933  0.00  0.00    +0.000 NA
ATOM     23  C   UNL     1      -0.338   9.948  23.553  0.00  0.00    +0.000 A 
ATOM     24  N   UNL     1      -1.058  10.782  22.756  0.00  0.00    +0.000 NA
ATOM     25  C   UNL     1      -0.626  10.504  21.545  0.00  0.00    +0.000 A 
ATOM     26  N   UNL     1      -1.006  11.050  20.350  0.00  0.00    +0.000 NA
ENDBRANCH  15  20
ENDBRANCH   1  15
TORSDOF 4
ENDMDL
MODEL 5
REMARK VINA RESULT:      -8.0      4.650      7.577
REMARK  Name = 
REMARK  5 active torsions:
REMARK  status: ('A' for Active; 'I' for Inactive)
REMARK    1  A    between atoms: C_1  and  C_2
REMARK    2  A    between atoms: C_4  and  N_5
REMARK    3  A    between atoms: N_5  and  C_6
REMARK    4  A    between atoms: C_9  and  C_10
REMARK    5  A    between atoms: C_14  and  C_15
REMARK                            x       y       z     vdW  Elec       q    Type
REMARK                         _______ _______ _______ _____ _____    ______ ____
ROOT
ATOM      1  C   UNL     1       2.895   5.297  19.082  0.00  0.00    +0.000 A 
ATOM      2  C   UNL     1       2.339   5.216  20.357  0.00  0.00    +0.000 A 
ATOM      3  C   UNL     1       1.659   6.308  20.908  0.00  0.00    +0.000 A 
ATOM      4  C   UNL     1       1.516   7.516  20.206  0.00  0.00    +0.000 A 
ATOM      5  C   UNL     1       2.032   7.606  18.898  0.00  0.00    +0.000 A 
ATOM      6  C   UNL     1       2.710   6.489  18.362  0.00  0.00    +0.000 A 
ENDROOT
BRANCH   4   7
ATOM      7  C   UNL     1       0.844   8.694  20.889  0.00  0.00    +0.000 C 
ATOM      8  F   UNL     1       1.713   9.696  21.200  0.00  0.00    +0.000 F 
ATOM      9  F   UNL     1      -0.108   9.266  20.106  0.00  0.00    +0.000 F 
ATOM     10  F   UNL     1       0.248   8.352  22.061  0.00  0.00    +0.000 F 
ENDBRANCH   4   7
BRANCH   5  11
ATOM     11  C   UNL     1       1.930   8.836  18.018  0.00  0.00    +0.000 C 
ATOM     12  F   UNL     1       0.680   9.143  17.598  0.00  0.00    +0.000 F 
ATOM     13  F   UNL     1       2.390   9.950  18.654  0.00  0.00    +0.000 F 
ATOM     14  F   UNL     1       2.684   8.717  16.891  0.00  0.00    +0.000 F 
ENDBRANCH   5  11
BRANCH   1  15
ATOM     15  N   UNL     1       3.716   4.259  18.606  0.00  0.00    +0.000 N 
ATOM     16  H   UNL     1       3.375   3.305  18.732  0.00  0.00    +0.000 HD
BRANCH  15  20
ATOM     17  C   UNL     1       6.068   3.914  14.259  0.00  0.00    +0.000 C 
ATOM     18  C   UNL     1       6.107   4.274  15.723  0.00  0.00    +0.000 A 
ATOM     19  C   UNL     1       4.831   4.113  16.472  0.00  0.00    +0.000 A 
ATOM     20  C   UNL     1       4.834   4.387  17.788  0.00  0.00    +0.000 A 
ATOM     21  N   UNL     1       6.036   4.872  18.346  0.00  0.00    +0.000 N 
ATOM     22  N   UNL     1       6.298   5.261  19.626  0.00  0.00    +0.000 NA
ATOM     23  C   UNL     1       7.585   5.604  19.548  0.00  0.00    +0.000 A 
ATOM     24  N   UNL     1       8.167   5.474  18.326  0.00  0.00    +0.000 NA
ATOM     25  C   UNL     1       7.196   5.015  17.567  0.00  0.00    +0.000 A 
ATOM     26  N   UNL     1       7.221   4.697  16.238  0.00  0.00    +0.000 NA
ENDBRANCH  15  20
ENDBRANCH   1  15
TORSDOF 4
ENDMDL
MODEL 6
REMARK VINA RESULT:      -8.0      0.935      2.351
REMARK  Name = 
REMARK  5 active torsions:
REMARK  status: ('A' for Active; 'I' for Inactive)
REMARK    1  A    between atoms: C_1  and  C_2
REMARK    2  A    between atoms: C_4  and  N_5
REMARK    3  A    between atoms: N_5  and  C_6
REMARK    4  A    between atoms: C_9  and  C_10
REMARK    5  A    between atoms: C_14  and  C_15
REMARK                            x       y       z     vdW  Elec       q    Type
REMARK                         _______ _______ _______ _____ _____    ______ ____
ROOT
ATOM      1  C   UNL     1       2.127   6.588  19.345  0.00  0.00    +0.000 A 
ATOM      2  C   UNL     1       2.182   6.116  18.035  0.00  0.00    +0.000 A 
ATOM      3  C   UNL     1       2.236   4.742  17.776  0.00  0.00    +0.000 A 
ATOM      4  C   UNL     1       2.240   3.796  18.815  0.00  0.00    +0.000 A 
ATOM      5  C   UNL     1       2.141   4.249  20.146  0.00  0.00    +0.000 A 
ATOM      6  C   UNL     1       2.084   5.641  20.381  0.00  0.00    +0.000 A 
ENDROOT
BRANCH   4   7
ATOM      7  C   UNL     1       2.387   2.324  18.475  0.00  0.00    +0.000 C 
ATOM      8  F   UNL     1       3.557   1.788  18.923  0.00  0.00    +0.000 F 
ATOM      9  F   UNL     1       1.404   1.568  19.031  0.00  0.00    +0.000 F 
ATOM     10  F   UNL     1       2.367   2.088  17.138  0.00  0.00    +0.000 F 
ENDBRANCH   4   7
BRANCH   5  11
ATOM     11  C   UNL     1       2.111   3.344  21.361  0.00  0.00    +0.000 C 
ATOM     12  F   UNL     1       3.030   2.349  21.362  0.00  0.00    +0.000 F 
ATOM     13  F   UNL     1       2.318   4.040  22.513  0.00  0.00    +0.000 F 
ATOM     14  F   UNL     1       0.903   2.736  21.509  0.00  0.00    +0.000 F 
ENDBRANCH   5  11
BRANCH   1  15
ATOM     15  N   UNL     1       2.243   7.967  19.600  0.00  0.00    +0.000 N 
ATOM     16  H   UNL     1       3.176   8.375  19.518  0.00  0.00    +0.000 HD
BRANCH  15  20
ATOM     17  C   UNL     1      -1.193  11.042  17.787  0.00  0.00    +0.000 C 
ATOM     18  C   UNL     1      -0.524  10.415  18.985  0.00  0.00    +0.000 A 
ATOM     19  C   UNL     1       0.556   9.434  18.693  0.00  0.00    +0.000 A 
ATOM     20  C   UNL     1       1.204   8.881  19.734  0.00  0.00    +0.000 A 
ATOM     21  N   UNL     1       0.760   9.226  21.028  0.00  0.00    +0.000 N 
ATOM     22  N   UNL     1       1.207   8.785  22.238  0.00  0.00    +0.000 NA
ATOM     23  C   UNL     1       0.424   9.463  23.081  0.00  0.00    +0.000 A 
ATOM     24  N   UNL     1      -0.488  10.296  22.512  0.00  0.00    +0.000 NA
ATOM     25  C   UNL     1      -0.280  10.149  21.221  0.00  0.00    +0.000 A 
ATOM     26  N   UNL     1      -0.918  10.753  20.174  0.00  0.00    +0.000 NA
ENDBRANCH  15  20
ENDBRANCH   1  15
TORSDOF 4
ENDMDL
MODEL 7
REMARK VINA RESULT:      -7.9      1.381      2.731
REMARK  Name = 
REMARK  5 active torsions:
REMARK  status: ('A' for Active; 'I' for Inactive)
REMARK    1  A    between atoms: C_1  and  C_2
REMARK    2  A    between atoms: C_4  and  N_5
REMARK    3  A    between atoms: N_5  and  C_6
REMARK    4  A    between atoms: C_9  and  C_10
REMARK    5  A    between atoms: C_14  and  C_15
REMARK                            x       y       z     vdW  Elec       q    Type
REMARK                         _______ _______ _______ _____ _____    ______ ____
ROOT
ATOM      1  C   UNL     1       2.202   6.881  19.740  0.00  0.00    +0.000 A 
ATOM      2  C   UNL     1       2.979   6.959  18.586  0.00  0.00    +0.000 A 
ATOM      3  C   UNL     1       3.291   5.805  17.859  0.00  0.00    +0.000 A 
ATOM      4  C   UNL     1       2.841   4.536  18.262  0.00  0.00    +0.000 A 
ATOM      5  C   UNL     1       2.017   4.439  19.401  0.00  0.00    +0.000 A 
ATOM      6  C   UNL     1       1.712   5.620  20.115  0.00  0.00    +0.000 A 
ENDROOT
BRANCH   4   7
ATOM      7  C   UNL     1       3.283   3.311  17.482  0.00  0.00    +0.000 C 
ATOM      8  F   UNL     1       4.065   2.468  18.213  0.00  0.00    +0.000 F 
ATOM      9  F   UNL     1       2.231   2.561  17.064  0.00  0.00    +0.000 F 
ATOM     10  F   UNL     1       4.015   3.625  16.381  0.00  0.00    +0.000 F 
ENDBRANCH   4   7
BRANCH   5  11
ATOM     11  C   UNL     1       1.441   3.143  19.936  0.00  0.00    +0.000 C 
ATOM     12  F   UNL     1       0.548   2.530  19.124  0.00  0.00    +0.000 F 
ATOM     13  F   UNL     1       2.415   2.221  20.177  0.00  0.00    +0.000 F 
ATOM     14  F   UNL     1       0.803   3.325  21.124  0.00  0.00    +0.000 F 
ENDBRANCH   5  11
BRANCH   1  15
ATOM     15  N   UNL     1       2.034   8.017  20.552  0.00  0.00    +0.000 N 
ATOM     16  H   UNL     1       2.801   8.249  21.186  0.00  0.00    +0.000 HD
BRANCH  15  20
ATOM     17  C   UNL     1      -0.859  11.089  17.956  0.00  0.00    +0.000 C 
ATOM     18  C   UNL     1      -0.438  10.532  19.293  0.00  0.00    +0.000 A 
ATOM     19  C   UNL     1       0.614   9.481  19.264  0.00  0.00    +0.000 A 
ATOM     20  C   UNL     1       1.044   8.987  20.439  0.00  0.00    +0.000 A 
ATOM     21  N   UNL     1       0.411   9.458  21.609  0.00  0.00    +0.000 N 
ATOM     22  N   UNL     1       0.622   9.098  22.907  0.00  0.00    +0.000 NA
ATOM     23  C   UNL     1      -0.249   9.878  23.550  0.00  0.00    +0.000 A 
ATOM     24  N   UNL     1      -1.002  10.703  22.773  0.00  0.00    +0.000 NA
ATOM     25  C   UNL     1      -0.590  10.440  21.552  0.00  0.00    +0.000 A 
ATOM     26  N   UNL     1      -1.005  10.985  20.369  0.00  0.00    +0.000 NA
ENDBRANCH  15  20
ENDBRANCH   1  15
TORSDOF 4
ENDMDL
MODEL 8
REMARK VINA RESULT:      -7.8      4.990      7.509
REMARK  Name = 
REMARK  5 active torsions:
REMARK  status: ('A' for Active; 'I' for Inactive)
REMARK    1  A    between atoms: C_1  and  C_2
REMARK    2  A    between atoms: C_4  and  N_5
REMARK    3  A    between atoms: N_5  and  C_6
REMARK    4  A    between atoms: C_9  and  C_10
REMARK    5  A    between atoms: C_14  and  C_15
REMARK                            x       y       z     vdW  Elec       q    Type
REMARK                         _______ _______ _______ _____ _____    ______ ____
ROOT
ATOM      1  C   UNL     1       2.988   6.207  18.733  0.00  0.00    +0.000 A 
ATOM      2  C   UNL     1       2.529   5.871  20.005  0.00  0.00    +0.000 A 
ATOM      3  C   UNL     1       1.738   6.765  20.736  0.00  0.00    +0.000 A 
ATOM      4  C   UNL     1       1.382   8.023  20.222  0.00  0.00    +0.000 A 
ATOM      5  C   UNL     1       1.798   8.366  18.920  0.00  0.00    +0.000 A 
ATOM      6  C   UNL     1       2.592   7.445  18.201  0.00  0.00    +0.000 A 
ENDROOT
BRANCH   4   7
ATOM      7  C   UNL     1       0.595   8.984  21.095  0.00  0.00    +0.000 C 
ATOM      8  F   UNL     1      -0.511   9.482  20.475  0.00  0.00    +0.000 F 
ATOM      9  F   UNL     1       0.141   8.391  22.230  0.00  0.00    +0.000 F 
ATOM     10  F   UNL     1       1.322  10.067  21.471  0.00  0.00    +0.000 F 
ENDBRANCH   4   7
BRANCH   5  11
ATOM     11  C   UNL     1       1.469   9.675  18.231  0.00  0.00    +0.000 C 
ATOM     12  F   UNL     1       1.660  10.786  18.982  0.00  0.00    +0.000 F 
ATOM     13  F   UNL     1       2.218   9.856  17.107  0.00  0.00    +0.000 F 
ATOM     14  F   UNL     1       0.172   9.720  17.821  0.00  0.00    +0.000 F 
ENDBRANCH   5  11
BRANCH   1  15
ATOM     15  N   UNL     1       3.916   5.377  18.079  0.00  0.00    +0.000 N 
ATOM     16  H   UNL     1       3.605   4.433  17.843  0.00  0.00    +0.000 HD
BRANCH  15  20
ATOM     17  C   UNL     1       7.989   8.190  17.873  0.00  0.00    +0.000 C 
ATOM     18  C   UNL     1       7.172   7.057  17.304  0.00  0.00    +0.000 A 
ATOM     19  C   UNL     1       5.906   6.739  18.018  0.00  0.00    +0.000 A 
ATOM     20  C   UNL     1       5.130   5.760  17.519  0.00  0.00    +0.000 A 
ATOM     21  N   UNL     1       5.613   5.064  16.391  0.00  0.00    +0.000 N 
ATOM     22  N   UNL     1       5.054   4.017  15.720  0.00  0.00    +0.000 NA
ATOM     23  C   UNL     1       5.950   3.802  14.756  0.00  0.00    +0.000 A 
ATOM     24  N   UNL     1       7.038   4.619  14.755  0.00  0.00    +0.000 NA
ATOM     25  C   UNL     1       6.829   5.413  15.783  0.00  0.00    +0.000 A 
ATOM     26  N   UNL     1       7.607   6.435  16.251  0.00  0.00    +0.000 NA
ENDBRANCH  15  20
ENDBRANCH   1  15
TORSDOF 4
ENDMDL
MODEL 9
REMARK VINA RESULT:      -7.8      1.393      2.761
REMARK  Name = 
REMARK  5 active torsions:
REMARK  status: ('A' for Active; 'I' for Inactive)
REMARK    1  A    between atoms: C_1  and  C_2
REMARK    2  A    between atoms: C_4  and  N_5
REMARK    3  A    between atoms: N_5  and  C_6
REMARK    4  A    between atoms: C_9  and  C_10
REMARK    5  A    between atoms: C_14  and  C_15
REMARK                            x       y       z     vdW  Elec       q    Type
REMARK                         _______ _______ _______ _____ _____    ______ ____
ROOT
ATOM      1  C   UNL     1       2.669   7.079  18.421  0.00  0.00    +0.000 A 
ATOM      2  C   UNL     1       3.665   6.687  17.529  0.00  0.00    +0.000 A 
ATOM      3  C   UNL     1       3.945   5.331  17.324  0.00  0.00    +0.000 A 
ATOM      4  C   UNL     1       3.243   4.324  18.007  0.00  0.00    +0.000 A 
ATOM      5  C   UNL     1       2.203   4.695  18.882  0.00  0.00    +0.000 A 
ATOM      6  C   UNL     1       1.936   6.070  19.067  0.00  0.00    +0.000 A 
ENDROOT
BRANCH   4   7
ATOM      7  C   UNL     1       3.650   2.874  17.809  0.00  0.00    +0.000 C 
ATOM      8  F   UNL     1       4.651   2.722  16.898  0.00  0.00    +0.000 F 
ATOM      9  F   UNL     1       4.112   2.311  18.956  0.00  0.00    +0.000 F 
ATOM     10  F   UNL     1       2.629   2.098  17.363  0.00  0.00    +0.000 F 
ENDBRANCH   4   7
BRANCH   5  11
ATOM     11  C   UNL     1       1.349   3.717  19.664  0.00  0.00    +0.000 C 
ATOM     12  F   UNL     1       2.032   2.880  20.481  0.00  0.00    +0.000 F 
ATOM     13  F   UNL     1       0.449   4.358  20.461  0.00  0.00    +0.000 F 
ATOM     14  F   UNL     1       0.612   2.919  18.844  0.00  0.00    +0.000 F 
ENDBRANCH   5  11
BRANCH   1  15
ATOM     15  N   UNL     1       2.510   8.438  18.744  0.00  0.00    +0.000 N 
ATOM     16  H   UNL     1       3.319   9.045  18.601  0.00  0.00    +0.000 HD
BRANCH  15  20
ATOM     17  C   UNL     1      -1.633  10.821  17.439  0.00  0.00    +0.000 C 
ATOM     18  C   UNL     1      -0.749  10.270  18.530  0.00  0.00    +0.000 A 
ATOM     19  C   UNL     1       0.484   9.568  18.082  0.00  0.00    +0.000 A 
ATOM     20  C   UNL     1       1.317   9.096  19.026  0.00  0.00    +0.000 A 
ATOM     21  N   UNL     1       0.922   9.245  20.372  0.00  0.00    +0.000 N 
ATOM     22  N   UNL     1       1.550   8.827  21.507  0.00  0.00    +0.000 NA
ATOM     23  C   UNL     1       0.717   9.258  22.455  0.00  0.00    +0.000 A 
ATOM     24  N   UNL     1      -0.395   9.913  22.023  0.00  0.00    +0.000 NA
ATOM     25  C   UNL     1      -0.269   9.906  20.714  0.00  0.00    +0.000 A 
ATOM     26  N   UNL     1      -1.105  10.431  19.767  0.00  0.00    +0.000 NA
ENDBRANCH  15  20
ENDBRANCH   1  15
TORSDOF 4
ENDMDL
