MODEL 1
REMARK VINA RESULT:      -7.9      0.000      0.000
REMARK  Name = 
REMARK  3 active torsions:
REMARK  status: ('A' for Active; 'I' for Inactive)
REMARK    1  A    between atoms: C_2  and  C_18
REMARK    2  A    between atoms: N_3  and  N_4
REMARK    3  A    between atoms: C_5  and  C_6
REMARK                            x       y       z     vdW  Elec       q    Type
REMARK                         _______ _______ _______ _____ _____    ______ ____
ROOT
ATOM      1  N   UNL     1       4.544   4.118  17.284  0.00  0.00    +0.000 N 
ATOM      2  C   UNL     1       5.119   4.829  18.325  0.00  0.00    +0.000 A 
ATOM      3  N   UNL     1       4.584   4.945  19.501  0.00  0.00    +0.000 NA
ATOM      4  C   UNL     1       3.366   4.295  19.739  0.00  0.00    +0.000 A 
ATOM      5  C   UNL     1       2.818   4.343  21.024  0.00  0.00    +0.000 A 
ATOM      6  C   UNL     1       1.605   3.709  21.303  0.00  0.00    +0.000 A 
ATOM      7  C   UNL     1       0.937   3.001  20.303  0.00  0.00    +0.000 A 
ATOM      8  C   UNL     1       1.475   2.945  19.018  0.00  0.00    +0.000 A 
ATOM      9  C   UNL     1       2.675   3.610  18.740  0.00  0.00    +0.000 A 
ATOM     10  C   UNL     1       3.240   3.628  17.374  0.00  0.00    +0.000 A 
ATOM     11  O   UNL     1       2.537   3.297  16.425  0.00  0.00    +0.000 OA
ENDROOT
BRANCH   1  14
ATOM     12  O   UNL     1       4.859   6.144  15.409  0.00  0.00    +0.000 OA
ATOM     13  C   UNL     1       5.384   5.050  15.204  0.00  0.00    +0.000 C 
ATOM     14  N   UNL     1       5.229   3.959  16.053  0.00  0.00    +0.000 N 
ATOM     15  H   UNL     1       5.729   3.097  15.881  0.00  0.00    +0.000 HD
BRANCH  13  16
ATOM     16  C   UNL     1       6.184   4.795  14.023  0.00  0.00    +0.000 A 
ATOM     17  C   UNL     1       6.070   3.807  13.065  0.00  0.00    +0.000 A 
ATOM     18  C   UNL     1       7.220   3.892  12.245  0.00  0.00    +0.000 A 
ATOM     19  C   UNL     1       7.943   4.964  12.722  0.00  0.00    +0.000 A 
ATOM     20  O   UNL     1       7.311   5.539  13.780  0.00  0.00    +0.000 OA
ENDBRANCH  13  16
ENDBRANCH   1  14
BRANCH   2  21
ATOM     21  C   UNL     1       6.427   5.516  18.155  0.00  0.00    +0.000 C 
ATOM     22  C   UNL     1       7.451   5.693  19.254  0.00  0.00    +0.000 C 
ATOM     23  C   UNL     1       7.679   4.651  18.206  0.00  0.00    +0.000 C 
ENDBRANCH   2  21
TORSDOF 3
ENDMDL
MODEL 2
REMARK VINA RESULT:      -7.6      1.796      6.381
REMARK  Name = 
REMARK  3 active torsions:
REMARK  status: ('A' for Active; 'I' for Inactive)
REMARK    1  A    between atoms: C_2  and  C_18
REMARK    2  A    between atoms: N_3  and  N_4
REMARK    3  A    between atoms: C_5  and  C_6
REMARK                            x       y       z     vdW  Elec       q    Type
REMARK                         _______ _______ _______ _____ _____    ______ ____
ROOT
ATOM      1  N   UNL     1       5.989   4.555  16.722  0.00  0.00    +0.000 N 
ATOM      2  C   UNL     1       6.927   5.564  16.577  0.00  0.00    +0.000 A 
ATOM      3  N   UNL     1       7.535   5.830  15.463  0.00  0.00    +0.000 NA
ATOM      4  C   UNL     1       7.207   5.068  14.334  0.00  0.00    +0.000 A 
ATOM      5  C   UNL     1       7.793   5.395  13.108  0.00  0.00    +0.000 A 
ATOM      6  C   UNL     1       7.493   4.659  11.958  0.00  0.00    +0.000 A 
ATOM      7  C   UNL     1       6.586   3.601  12.020  0.00  0.00    +0.000 A 
ATOM      8  C   UNL     1       5.995   3.265  13.238  0.00  0.00    +0.000 A 
ATOM      9  C   UNL     1       6.325   3.988  14.390  0.00  0.00    +0.000 A 
ATOM     10  C   UNL     1       5.769   3.619  15.709  0.00  0.00    +0.000 A 
ATOM     11  O   UNL     1       5.233   2.526  15.854  0.00  0.00    +0.000 OA
ENDROOT
BRANCH   1  14
ATOM     12  O   UNL     1       3.529   5.710  17.297  0.00  0.00    +0.000 OA
ATOM     13  C   UNL     1       4.043   4.954  18.120  0.00  0.00    +0.000 C 
ATOM     14  N   UNL     1       5.299   4.380  17.948  0.00  0.00    +0.000 N 
ATOM     15  H   UNL     1       5.659   3.715  18.619  0.00  0.00    +0.000 HD
BRANCH  13  16
ATOM     16  C   UNL     1       3.391   4.628  19.372  0.00  0.00    +0.000 A 
ATOM     17  C   UNL     1       3.277   3.420  20.032  0.00  0.00    +0.000 A 
ATOM     18  C   UNL     1       2.374   3.617  21.103  0.00  0.00    +0.000 A 
ATOM     19  C   UNL     1       2.031   4.952  21.064  0.00  0.00    +0.000 A 
ATOM     20  O   UNL     1       2.665   5.583  20.039  0.00  0.00    +0.000 OA
ENDBRANCH  13  16
ENDBRANCH   1  14
BRANCH   2  21
ATOM     21  C   UNL     1       7.299   6.435  17.724  0.00  0.00    +0.000 C 
ATOM     22  C   UNL     1       8.019   7.759  17.595  0.00  0.00    +0.000 C 
ATOM     23  C   UNL     1       6.549   7.752  17.870  0.00  0.00    +0.000 C 
ENDBRANCH   2  21
TORSDOF 3
ENDMDL
MODEL 3
REMARK VINA RESULT:      -7.6      3.696      4.694
REMARK  Name = 
REMARK  3 active torsions:
REMARK  status: ('A' for Active; 'I' for Inactive)
REMARK    1  A    between atoms: C_2  and  C_18
REMARK    2  A    between atoms: N_3  and  N_4
REMARK    3  A    between atoms: C_5  and  C_6
REMARK                            x       y       z     vdW  Elec       q    Type
REMARK                         _______ _______ _______ _____ _____    ______ ____
ROOT
ATOM      1  N   UNL     1       2.515   6.983  18.536  0.00  0.00    +0.000 N 
ATOM      2  C   UNL     1       2.339   6.432  19.795  0.00  0.00    +0.000 A 
ATOM      3  N   UNL     1       1.701   7.021  20.757  0.00  0.00    +0.000 NA
ATOM      4  C   UNL     1       1.135   8.277  20.502  0.00  0.00    +0.000 A 
ATOM      5  C   UNL     1       0.375   8.889  21.504  0.00  0.00    +0.000 A 
ATOM      6  C   UNL     1      -0.204  10.142  21.290  0.00  0.00    +0.000 A 
ATOM      7  C   UNL     1      -0.048  10.787  20.064  0.00  0.00    +0.000 A 
ATOM      8  C   UNL     1       0.708  10.187  19.057  0.00  0.00    +0.000 A 
ATOM      9  C   UNL     1       1.311   8.946  19.291  0.00  0.00    +0.000 A 
ATOM     10  C   UNL     1       2.173   8.310  18.271  0.00  0.00    +0.000 A 
ATOM     11  O   UNL     1       2.585   8.977  17.328  0.00  0.00    +0.000 OA
ENDROOT
BRANCH   1  14
ATOM     12  O   UNL     1       5.223   7.149  17.940  0.00  0.00    +0.000 OA
ATOM     13  C   UNL     1       4.521   6.351  17.321  0.00  0.00    +0.000 C 
ATOM     14  N   UNL     1       3.146   6.242  17.504  0.00  0.00    +0.000 N 
ATOM     15  H   UNL     1       2.615   5.531  17.020  0.00  0.00    +0.000 HD
BRANCH  13  16
ATOM     16  C   UNL     1       5.070   5.477  16.304  0.00  0.00    +0.000 A 
ATOM     17  C   UNL     1       5.032   4.100  16.195  0.00  0.00    +0.000 A 
ATOM     18  C   UNL     1       5.891   3.746  15.128  0.00  0.00    +0.000 A 
ATOM     19  C   UNL     1       6.362   4.936  14.615  0.00  0.00    +0.000 A 
ATOM     20  O   UNL     1       5.849   5.993  15.298  0.00  0.00    +0.000 OA
ENDBRANCH  13  16
ENDBRANCH   1  14
BRANCH   2  21
ATOM     21  C   UNL     1       2.882   5.088  20.126  0.00  0.00    +0.000 C 
ATOM     22  C   UNL     1       2.346   4.193  21.221  0.00  0.00    +0.000 C 
ATOM     23  C   UNL     1       2.009   3.884  19.798  0.00  0.00    +0.000 C 
ENDBRANCH   2  21
TORSDOF 3
ENDMDL
MODEL 4
REMARK VINA RESULT:      -7.5      1.661      6.357
REMARK  Name = 
REMARK  3 active torsions:
REMARK  status: ('A' for Active; 'I' for Inactive)
REMARK    1  A    between atoms: C_2  and  C_18
REMARK    2  A    between atoms: N_3  and  N_4
REMARK    3  A    between atoms: C_5  and  C_6
REMARK                            x       y       z     vdW  Elec       q    Type
REMARK                         _______ _______ _______ _____ _____    ______ ____
ROOT
ATOM      1  N   UNL     1       5.821   4.498  16.895  0.00  0.00    +0.000 N 
ATOM      2  C   UNL     1       6.662   5.597  16.825  0.00  0.00    +0.000 A 
ATOM      3  N   UNL     1       7.292   5.956  15.751  0.00  0.00    +0.000 NA
ATOM      4  C   UNL     1       7.094   5.203  14.586  0.00  0.00    +0.000 A 
ATOM      5  C   UNL     1       7.702   5.625  13.400  0.00  0.00    +0.000 A 
ATOM      6  C   UNL     1       7.531   4.902  12.217  0.00  0.00    +0.000 A 
ATOM      7  C   UNL     1       6.730   3.760  12.204  0.00  0.00    +0.000 A 
ATOM      8  C   UNL     1       6.117   3.330  13.381  0.00  0.00    +0.000 A 
ATOM      9  C   UNL     1       6.320   4.043  14.568  0.00  0.00    +0.000 A 
ATOM     10  C   UNL     1       5.741   3.579  15.847  0.00  0.00    +0.000 A 
ATOM     11  O   UNL     1       5.309   2.435  15.934  0.00  0.00    +0.000 OA
ENDROOT
BRANCH   1  14
ATOM     12  O   UNL     1       3.216   5.347  17.356  0.00  0.00    +0.000 OA
ATOM     13  C   UNL     1       3.773   4.638  18.193  0.00  0.00    +0.000 C 
ATOM     14  N   UNL     1       5.094   4.218  18.079  0.00  0.00    +0.000 N 
ATOM     15  H   UNL     1       5.495   3.585  18.758  0.00  0.00    +0.000 HD
BRANCH  13  16
ATOM     16  C   UNL     1       3.100   4.212  19.404  0.00  0.00    +0.000 A 
ATOM     17  C   UNL     1       2.408   4.948  20.346  0.00  0.00    +0.000 A 
ATOM     18  C   UNL     1       2.128   4.077  21.426  0.00  0.00    +0.000 A 
ATOM     19  C   UNL     1       2.621   2.845  21.051  0.00  0.00    +0.000 A 
ATOM     20  O   UNL     1       3.185   2.906  19.816  0.00  0.00    +0.000 OA
ENDBRANCH  13  16
ENDBRANCH   1  14
BRANCH   2  21
ATOM     21  C   UNL     1       6.893   6.462  18.013  0.00  0.00    +0.000 C 
ATOM     22  C   UNL     1       8.199   6.545  18.771  0.00  0.00    +0.000 C 
ATOM     23  C   UNL     1       7.828   7.651  17.838  0.00  0.00    +0.000 C 
ENDBRANCH   2  21
TORSDOF 3
ENDMDL
MODEL 5
REMARK VINA RESULT:      -7.3      1.758      6.400
REMARK  Name = 
REMARK  3 active torsions:
REMARK  status: ('A' for Active; 'I' for Inactive)
REMARK    1  A    between atoms: C_2  and  C_18
REMARK    2  A    between atoms: N_3  and  N_4
REMARK    3  A    between atoms: C_5  and  C_6
REMARK                            x       y       z     vdW  Elec       q    Type
REMARK                         _______ _______ _______ _____ _____    ______ ____
ROOT
ATOM      1  N   UNL     1       5.239   5.067  16.525  0.00  0.00    +0.000 N 
ATOM      2  C   UNL     1       6.375   5.858  16.581  0.00  0.00    +0.000 A 
ATOM      3  N   UNL     1       7.254   5.927  15.630  0.00  0.00    +0.000 NA
ATOM      4  C   UNL     1       7.030   5.176  14.469  0.00  0.00    +0.000 A 
ATOM      5  C   UNL     1       7.925   5.301  13.402  0.00  0.00    +0.000 A 
ATOM      6  C   UNL     1       7.739   4.569  12.228  0.00  0.00    +0.000 A 
ATOM      7  C   UNL     1       6.641   3.718  12.099  0.00  0.00    +0.000 A 
ATOM      8  C   UNL     1       5.741   3.584  13.156  0.00  0.00    +0.000 A 
ATOM      9  C   UNL     1       5.953   4.298  14.341  0.00  0.00    +0.000 A 
ATOM     10  C   UNL     1       5.057   4.132  15.505  0.00  0.00    +0.000 A 
ATOM     11  O   UNL     1       4.288   3.178  15.543  0.00  0.00    +0.000 OA
ENDROOT
BRANCH   1  14
ATOM     12  O   UNL     1       5.361   3.507  18.820  0.00  0.00    +0.000 OA
ATOM     13  C   UNL     1       4.455   4.331  18.703  0.00  0.00    +0.000 C 
ATOM     14  N   UNL     1       4.276   5.111  17.565  0.00  0.00    +0.000 N 
ATOM     15  H   UNL     1       3.557   5.821  17.533  0.00  0.00    +0.000 HD
BRANCH  13  16
ATOM     16  C   UNL     1       3.462   4.530  19.740  0.00  0.00    +0.000 A 
ATOM     17  C   UNL     1       2.875   3.621  20.599  0.00  0.00    +0.000 A 
ATOM     18  C   UNL     1       1.831   4.302  21.269  0.00  0.00    +0.000 A 
ATOM     19  C   UNL     1       1.879   5.602  20.815  0.00  0.00    +0.000 A 
ATOM     20  O   UNL     1       2.882   5.762  19.911  0.00  0.00    +0.000 OA
ENDBRANCH  13  16
ENDBRANCH   1  14
BRANCH   2  21
ATOM     21  C   UNL     1       6.659   6.709  17.767  0.00  0.00    +0.000 C 
ATOM     22  C   UNL     1       7.921   6.626  18.597  0.00  0.00    +0.000 C 
ATOM     23  C   UNL     1       7.760   7.753  17.629  0.00  0.00    +0.000 C 
ENDBRANCH   2  21
TORSDOF 3
ENDMDL
MODEL 6
REMARK VINA RESULT:      -7.3      2.185      6.345
REMARK  Name = 
REMARK  3 active torsions:
REMARK  status: ('A' for Active; 'I' for Inactive)
REMARK    1  A    between atoms: C_2  and  C_18
REMARK    2  A    between atoms: N_3  and  N_4
REMARK    3  A    between atoms: C_5  and  C_6
REMARK                            x       y       z     vdW  Elec       q    Type
REMARK                         _______ _______ _______ _____ _____    ______ ____
ROOT
ATOM      1  N   UNL     1       5.303   5.371  16.906  0.00  0.00    +0.000 N 
ATOM      2  C   UNL     1       6.484   6.092  16.825  0.00  0.00    +0.000 A 
ATOM      3  N   UNL     1       7.291   6.042  15.811  0.00  0.00    +0.000 NA
ATOM      4  C   UNL     1       6.938   5.230  14.725  0.00  0.00    +0.000 A 
ATOM      5  C   UNL     1       7.756   5.227  13.592  0.00  0.00    +0.000 A 
ATOM      6  C   UNL     1       7.440   4.431  12.489  0.00  0.00    +0.000 A 
ATOM      7  C   UNL     1       6.289   3.643  12.500  0.00  0.00    +0.000 A 
ATOM      8  C   UNL     1       5.464   3.638  13.625  0.00  0.00    +0.000 A 
ATOM      9  C   UNL     1       5.806   4.415  14.737  0.00  0.00    +0.000 A 
ATOM     10  C   UNL     1       4.991   4.383  15.971  0.00  0.00    +0.000 A 
ATOM     11  O   UNL     1       4.174   3.484  16.131  0.00  0.00    +0.000 OA
ENDROOT
BRANCH   1  14
ATOM     12  O   UNL     1       3.465   7.444  17.113  0.00  0.00    +0.000 OA
ATOM     13  C   UNL     1       3.499   6.582  17.991  0.00  0.00    +0.000 C 
ATOM     14  N   UNL     1       4.426   5.545  18.006  0.00  0.00    +0.000 N 
ATOM     15  H   UNL     1       4.380   4.822  18.712  0.00  0.00    +0.000 HD
BRANCH  13  16
ATOM     16  C   UNL     1       2.591   6.604  19.120  0.00  0.00    +0.000 A 
ATOM     17  C   UNL     1       2.035   7.672  19.798  0.00  0.00    +0.000 A 
ATOM     18  C   UNL     1       1.385   7.143  20.939  0.00  0.00    +0.000 A 
ATOM     19  C   UNL     1       1.539   5.776  20.858  0.00  0.00    +0.000 A 
ATOM     20  O   UNL     1       2.241   5.434  19.745  0.00  0.00    +0.000 OA
ENDBRANCH  13  16
ENDBRANCH   1  14
BRANCH   2  21
ATOM     21  C   UNL     1       6.905   7.001  17.924  0.00  0.00    +0.000 C 
ATOM     22  C   UNL     1       8.309   7.076  18.482  0.00  0.00    +0.000 C 
ATOM     23  C   UNL     1       7.833   8.152  17.559  0.00  0.00    +0.000 C 
ENDBRANCH   2  21
TORSDOF 3
ENDMDL
MODEL 7
REMARK VINA RESULT:      -7.3      3.283      7.024
REMARK  Name = 
REMARK  3 active torsions:
REMARK  status: ('A' for Active; 'I' for Inactive)
REMARK    1  A    between atoms: C_2  and  C_18
REMARK    2  A    between atoms: N_3  and  N_4
REMARK    3  A    between atoms: C_5  and  C_6
REMARK                            x       y       z     vdW  Elec       q    Type
REMARK                         _______ _______ _______ _____ _____    ______ ____
ROOT
ATOM      1  N   UNL     1       3.442   6.038  18.291  0.00  0.00    +0.000 N 
ATOM      2  C   UNL     1       2.863   4.826  17.951  0.00  0.00    +0.000 A 
ATOM      3  N   UNL     1       3.374   3.997  17.096  0.00  0.00    +0.000 NA
ATOM      4  C   UNL     1       4.595   4.334  16.498  0.00  0.00    +0.000 A 
ATOM      5  C   UNL     1       5.200   3.415  15.636  0.00  0.00    +0.000 A 
ATOM      6  C   UNL     1       6.416   3.713  15.018  0.00  0.00    +0.000 A 
ATOM      7  C   UNL     1       7.053   4.928  15.274  0.00  0.00    +0.000 A 
ATOM      8  C   UNL     1       6.460   5.853  16.132  0.00  0.00    +0.000 A 
ATOM      9  C   UNL     1       5.226   5.559  16.722  0.00  0.00    +0.000 A 
ATOM     10  C   UNL     1       4.536   6.542  17.585  0.00  0.00    +0.000 A 
ATOM     11  O   UNL     1       4.900   7.712  17.576  0.00  0.00    +0.000 OA
ENDROOT
BRANCH   1  14
ATOM     12  O   UNL     1       1.783   8.208  17.783  0.00  0.00    +0.000 OA
ATOM     13  C   UNL     1       2.007   7.884  18.949  0.00  0.00    +0.000 C 
ATOM     14  N   UNL     1       2.873   6.854  19.301  0.00  0.00    +0.000 N 
ATOM     15  H   UNL     1       2.981   6.578  20.268  0.00  0.00    +0.000 HD
BRANCH  13  16
ATOM     16  C   UNL     1       1.410   8.587  20.066  0.00  0.00    +0.000 A 
ATOM     17  C   UNL     1       1.063   8.133  21.324  0.00  0.00    +0.000 A 
ATOM     18  C   UNL     1       0.335   9.171  21.952  0.00  0.00    +0.000 A 
ATOM     19  C   UNL     1       0.327  10.219  21.056  0.00  0.00    +0.000 A 
ATOM     20  O   UNL     1       1.001   9.889  19.922  0.00  0.00    +0.000 OA
ENDBRANCH  13  16
ENDBRANCH   1  14
BRANCH   2  21
ATOM     21  C   UNL     1       1.585   4.387  18.572  0.00  0.00    +0.000 C 
ATOM     22  C   UNL     1       1.121   2.950  18.650  0.00  0.00    +0.000 C 
ATOM     23  C   UNL     1       1.677   3.603  19.874  0.00  0.00    +0.000 C 
ENDBRANCH   2  21
TORSDOF 3
ENDMDL
MODEL 8
REMARK VINA RESULT:      -7.3      3.887      7.466
REMARK  Name = 
REMARK  3 active torsions:
REMARK  status: ('A' for Active; 'I' for Inactive)
REMARK    1  A    between atoms: C_2  and  C_18
REMARK    2  A    between atoms: N_3  and  N_4
REMARK    3  A    between atoms: C_5  and  C_6
REMARK                            x       y       z     vdW  Elec       q    Type
REMARK                         _______ _______ _______ _____ _____    ______ ____
ROOT
ATOM      1  N   UNL     1       2.729   6.596  19.160  0.00  0.00    +0.000 N 
ATOM      2  C   UNL     1       2.390   5.253  19.193  0.00  0.00    +0.000 A 
ATOM      3  N   UNL     1       2.865   4.369  18.372  0.00  0.00    +0.000 NA
ATOM      4  C   UNL     1       3.793   4.792  17.411  0.00  0.00    +0.000 A 
ATOM      5  C   UNL     1       4.375   3.837  16.572  0.00  0.00    +0.000 A 
ATOM      6  C   UNL     1       5.303   4.217  15.599  0.00  0.00    +0.000 A 
ATOM      7  C   UNL     1       5.675   5.555  15.471  0.00  0.00    +0.000 A 
ATOM      8  C   UNL     1       5.102   6.517  16.302  0.00  0.00    +0.000 A 
ATOM      9  C   UNL     1       4.149   6.131  17.252  0.00  0.00    +0.000 A 
ATOM     10  C   UNL     1       3.472   7.131  18.106  0.00  0.00    +0.000 A 
ATOM     11  O   UNL     1       3.535   8.319  17.809  0.00  0.00    +0.000 OA
ENDROOT
BRANCH   1  14
ATOM     12  O   UNL     1       0.885   8.611  18.652  0.00  0.00    +0.000 OA
ATOM     13  C   UNL     1       1.273   8.430  19.805  0.00  0.00    +0.000 C 
ATOM     14  N   UNL     1       2.240   7.490  20.146  0.00  0.00    +0.000 N 
ATOM     15  H   UNL     1       2.485   7.329  21.114  0.00  0.00    +0.000 HD
BRANCH  13  16
ATOM     16  C   UNL     1       0.777   9.223  20.913  0.00  0.00    +0.000 A 
ATOM     17  C   UNL     1       0.819   8.981  22.272  0.00  0.00    +0.000 A 
ATOM     18  C   UNL     1       0.017   9.969  22.892  0.00  0.00    +0.000 A 
ATOM     19  C   UNL     1      -0.424  10.787  21.874  0.00  0.00    +0.000 A 
ATOM     20  O   UNL     1       0.054  10.364  20.673  0.00  0.00    +0.000 OA
ENDBRANCH  13  16
ENDBRANCH   1  14
BRANCH   2  21
ATOM     21  C   UNL     1       1.439   4.728  20.208  0.00  0.00    +0.000 C 
ATOM     22  C   UNL     1       1.125   3.262  20.409  0.00  0.00    +0.000 C 
ATOM     23  C   UNL     1       2.027   3.954  21.380  0.00  0.00    +0.000 C 
ENDBRANCH   2  21
TORSDOF 3
ENDMDL
MODEL 9
REMARK VINA RESULT:      -7.2      1.870      2.235
REMARK  Name = 
REMARK  3 active torsions:
REMARK  status: ('A' for Active; 'I' for Inactive)
REMARK    1  A    between atoms: C_2  and  C_18
REMARK    2  A    between atoms: N_3  and  N_4
REMARK    3  A    between atoms: C_5  and  C_6
REMARK                            x       y       z     vdW  Elec       q    Type
REMARK                         _______ _______ _______ _____ _____    ______ ____
ROOT
ATOM      1  N   UNL     1       3.716   4.524  17.430  0.00  0.00    +0.000 N 
ATOM      2  C   UNL     1       3.095   5.637  17.974  0.00  0.00    +0.000 A 
ATOM      3  N   UNL     1       2.543   5.653  19.148  0.00  0.00    +0.000 NA
ATOM      4  C   UNL     1       2.599   4.485  19.920  0.00  0.00    +0.000 A 
ATOM      5  C   UNL     1       2.081   4.511  21.218  0.00  0.00    +0.000 A 
ATOM      6  C   UNL     1       2.116   3.368  22.020  0.00  0.00    +0.000 A 
ATOM      7  C   UNL     1       2.691   2.191  21.539  0.00  0.00    +0.000 A 
ATOM      8  C   UNL     1       3.211   2.154  20.245  0.00  0.00    +0.000 A 
ATOM      9  C   UNL     1       3.143   3.294  19.438  0.00  0.00    +0.000 A 
ATOM     10  C   UNL     1       3.624   3.272  18.040  0.00  0.00    +0.000 A 
ATOM     11  O   UNL     1       3.836   2.196  17.492  0.00  0.00    +0.000 OA
ENDROOT
BRANCH   1  14
ATOM     12  O   UNL     1       6.455   4.890  17.141  0.00  0.00    +0.000 OA
ATOM     13  C   UNL     1       5.761   4.732  16.137  0.00  0.00    +0.000 C 
ATOM     14  N   UNL     1       4.377   4.606  16.178  0.00  0.00    +0.000 N 
ATOM     15  H   UNL     1       3.850   4.415  15.336  0.00  0.00    +0.000 HD
BRANCH  13  16
ATOM     16  C   UNL     1       6.336   4.708  14.806  0.00  0.00    +0.000 A 
ATOM     17  C   UNL     1       6.006   3.941  13.706  0.00  0.00    +0.000 A 
ATOM     18  C   UNL     1       7.005   4.167  12.730  0.00  0.00    +0.000 A 
ATOM     19  C   UNL     1       7.858   5.102  13.277  0.00  0.00    +0.000 A 
ATOM     20  O   UNL     1       7.447   5.461  14.522  0.00  0.00    +0.000 OA
ENDBRANCH  13  16
ENDBRANCH   1  14
BRANCH   2  21
ATOM     21  C   UNL     1       3.028   6.920  17.226  0.00  0.00    +0.000 C 
ATOM     22  C   UNL     1       2.699   8.258  17.849  0.00  0.00    +0.000 C 
ATOM     23  C   UNL     1       4.119   7.945  17.503  0.00  0.00    +0.000 C 
ENDBRANCH   2  21
TORSDOF 3
ENDMDL
