MODEL 1
REMARK VINA RESULT:      -7.8      0.000      0.000
REMARK  Name = 
REMARK  9 active torsions:
REMARK  status: ('A' for Active; 'I' for Inactive)
REMARK    1  A    between atoms: C_1  and  C_2
REMARK    2  A    between atoms: C_3  and  S_4
REMARK    3  A    between atoms: S_4  and  C_5
REMARK    4  A    between atoms: C_5  and  C_6
REMARK    5  A    between atoms: C_6  and  C_7
REMARK    6  A    between atoms: C_10  and  C_11
REMARK    7  A    between atoms: C_11  and  C_12
REMARK    8  A    between atoms: C_11  and  C_13
REMARK    9  A    between atoms: C_11  and  C_14
REMARK                            x       y       z     vdW  Elec       q    Type
REMARK                         _______ _______ _______ _____ _____    ______ ____
ROOT
ATOM      1  S   UNL     1       3.794   3.873  17.885  0.00  0.00    +0.000 S 
ENDROOT
BRANCH   1   4
ATOM      2  C   UNL     1       6.272   5.976  18.329  0.00  0.00    +0.000 C 
ATOM      3  C   UNL     1       5.980   5.292  17.024  0.00  0.00    +0.000 A 
ATOM      4  C   UNL     1       5.001   4.414  16.719  0.00  0.00    +0.000 A 
ATOM      5  O   UNL     1       4.841   3.849  15.463  0.00  0.00    +0.000 OA
ATOM      6  C   UNL     1       5.728   4.138  14.469  0.00  0.00    +0.000 A 
ATOM      7  C   UNL     1       5.533   3.494  13.247  0.00  0.00    +0.000 A 
ATOM      8  C   UNL     1       6.407   3.741  12.187  0.00  0.00    +0.000 A 
ATOM      9  C   UNL     1       7.468   4.632  12.353  0.00  0.00    +0.000 A 
ATOM     10  C   UNL     1       7.657   5.275  13.577  0.00  0.00    +0.000 A 
ATOM     11  C   UNL     1       6.779   5.021  14.637  0.00  0.00    +0.000 A 
ATOM     12  C   UNL     1       6.943   5.667  15.941  0.00  0.00    +0.000 A 
ATOM     13  O   UNL     1       7.845   6.476  16.124  0.00  0.00    +0.000 OA
ENDBRANCH   1   4
BRANCH   1  14
ATOM     14  C   UNL     1       2.765   5.394  18.026  0.00  0.00    +0.000 C 
BRANCH  14  15
ATOM     15  C   UNL     1       2.897   6.140  19.357  0.00  0.00    +0.000 C 
BRANCH  15  16
ATOM     16  C   UNL     1       2.142   7.458  19.314  0.00  0.00    +0.000 A 
ATOM     17  C   UNL     1       2.018   8.175  18.120  0.00  0.00    +0.000 A 
ATOM     18  C   UNL     1       1.342   9.404  18.079  0.00  0.00    +0.000 A 
ATOM     19  C   UNL     1       0.762   9.968  19.228  0.00  0.00    +0.000 A 
ATOM     20  C   UNL     1       0.910   9.245  20.427  0.00  0.00    +0.000 A 
ATOM     21  C   UNL     1       1.585   8.013  20.470  0.00  0.00    +0.000 A 
BRANCH  19  22
ATOM     22  C   UNL     1      -0.017  11.300  19.200  0.00  0.00    +0.000 C 
ATOM     23  C   UNL     1       0.836  12.506  18.738  0.00  0.00    +0.000 C 
ATOM     24  C   UNL     1      -1.208  11.190  18.222  0.00  0.00    +0.000 C 
ATOM     25  C   UNL     1      -0.563  11.645  20.603  0.00  0.00    +0.000 C 
ENDBRANCH  19  22
ENDBRANCH  15  16
ENDBRANCH  14  15
ENDBRANCH   1  14
TORSDOF 5
ENDMDL
MODEL 2
REMARK VINA RESULT:      -7.8      0.676      1.405
REMARK  Name = 
REMARK  9 active torsions:
REMARK  status: ('A' for Active; 'I' for Inactive)
REMARK    1  A    between atoms: C_1  and  C_2
REMARK    2  A    between atoms: C_3  and  S_4
REMARK    3  A    between atoms: S_4  and  C_5
REMARK    4  A    between atoms: C_5  and  C_6
REMARK    5  A    between atoms: C_6  and  C_7
REMARK    6  A    between atoms: C_10  and  C_11
REMARK    7  A    between atoms: C_11  and  C_12
REMARK    8  A    between atoms: C_11  and  C_13
REMARK    9  A    between atoms: C_11  and  C_14
REMARK                            x       y       z     vdW  Elec       q    Type
REMARK                         _______ _______ _______ _____ _____    ______ ____
ROOT
ATOM      1  S   UNL     1       4.180   3.395  18.363  0.00  0.00    +0.000 S 
ENDROOT
BRANCH   1   4
ATOM      2  C   UNL     1       6.397   5.778  18.763  0.00  0.00    +0.000 C 
ATOM      3  C   UNL     1       6.114   5.113  17.447  0.00  0.00    +0.000 A 
ATOM      4  C   UNL     1       5.235   4.130  17.157  0.00  0.00    +0.000 A 
ATOM      5  O   UNL     1       5.071   3.597  15.888  0.00  0.00    +0.000 OA
ATOM      6  C   UNL     1       5.852   4.035  14.859  0.00  0.00    +0.000 A 
ATOM      7  C   UNL     1       5.664   3.419  13.622  0.00  0.00    +0.000 A 
ATOM      8  C   UNL     1       6.434   3.816  12.528  0.00  0.00    +0.000 A 
ATOM      9  C   UNL     1       7.384   4.828  12.674  0.00  0.00    +0.000 A 
ATOM     10  C   UNL     1       7.566   5.443  13.914  0.00  0.00    +0.000 A 
ATOM     11  C   UNL     1       6.793   5.038  15.008  0.00  0.00    +0.000 A 
ATOM     12  C   UNL     1       6.955   5.649  16.330  0.00  0.00    +0.000 A 
ATOM     13  O   UNL     1       7.758   6.559  16.499  0.00  0.00    +0.000 OA
ENDBRANCH   1   4
BRANCH   1  14
ATOM     14  C   UNL     1       2.875   4.688  18.493  0.00  0.00    +0.000 C 
BRANCH  14  15
ATOM     15  C   UNL     1       2.791   5.383  19.855  0.00  0.00    +0.000 C 
BRANCH  15  16
ATOM     16  C   UNL     1       2.269   6.802  19.704  0.00  0.00    +0.000 A 
ATOM     17  C   UNL     1       1.577   7.427  20.747  0.00  0.00    +0.000 A 
ATOM     18  C   UNL     1       1.074   8.729  20.604  0.00  0.00    +0.000 A 
ATOM     19  C   UNL     1       1.239   9.461  19.416  0.00  0.00    +0.000 A 
ATOM     20  C   UNL     1       1.921   8.814  18.368  0.00  0.00    +0.000 A 
ATOM     21  C   UNL     1       2.429   7.510  18.509  0.00  0.00    +0.000 A 
BRANCH  19  22
ATOM     22  C   UNL     1       0.725  10.907  19.250  0.00  0.00    +0.000 C 
ATOM     23  C   UNL     1       0.515  11.647  20.592  0.00  0.00    +0.000 C 
ATOM     24  C   UNL     1       1.741  11.735  18.433  0.00  0.00    +0.000 C 
ATOM     25  C   UNL     1      -0.631  10.924  18.509  0.00  0.00    +0.000 C 
ENDBRANCH  19  22
ENDBRANCH  15  16
ENDBRANCH  14  15
ENDBRANCH   1  14
TORSDOF 5
ENDMDL
MODEL 3
REMARK VINA RESULT:      -7.8      4.353      9.299
REMARK  Name = 
REMARK  9 active torsions:
REMARK  status: ('A' for Active; 'I' for Inactive)
REMARK    1  A    between atoms: C_1  and  C_2
REMARK    2  A    between atoms: C_3  and  S_4
REMARK    3  A    between atoms: S_4  and  C_5
REMARK    4  A    between atoms: C_5  and  C_6
REMARK    5  A    between atoms: C_6  and  C_7
REMARK    6  A    between atoms: C_10  and  C_11
REMARK    7  A    between atoms: C_11  and  C_12
REMARK    8  A    between atoms: C_11  and  C_13
REMARK    9  A    between atoms: C_11  and  C_14
REMARK                            x       y       z     vdW  Elec       q    Type
REMARK                         _______ _______ _______ _____ _____    ______ ____
ROOT
ATOM      1  S   UNL     1       1.106   9.989  19.396  0.00  0.00    +0.000 S 
ENDROOT
BRANCH   1   4
ATOM      2  C   UNL     1      -0.805  12.062  21.073  0.00  0.00    +0.000 C 
ATOM      3  C   UNL     1      -1.189  11.452  19.755  0.00  0.00    +0.000 A 
ATOM      4  C   UNL     1      -0.496  10.595  18.975  0.00  0.00    +0.000 A 
ATOM      5  O   UNL     1      -0.968  10.103  17.768  0.00  0.00    +0.000 OA
ATOM      6  C   UNL     1      -2.175  10.519  17.289  0.00  0.00    +0.000 A 
ATOM      7  C   UNL     1      -2.562  10.020  16.045  0.00  0.00    +0.000 A 
ATOM      8  C   UNL     1      -3.784  10.408  15.494  0.00  0.00    +0.000 A 
ATOM      9  C   UNL     1      -4.614  11.289  16.189  0.00  0.00    +0.000 A 
ATOM     10  C   UNL     1      -4.222  11.783  17.434  0.00  0.00    +0.000 A 
ATOM     11  C   UNL     1      -2.994  11.392  17.981  0.00  0.00    +0.000 A 
ATOM     12  C   UNL     1      -2.539  11.892  19.280  0.00  0.00    +0.000 A 
ATOM     13  O   UNL     1      -3.246  12.646  19.938  0.00  0.00    +0.000 OA
ENDBRANCH   1   4
BRANCH   1  14
ATOM     14  C   UNL     1       1.526   9.067  17.858  0.00  0.00    +0.000 C 
BRANCH  14  15
ATOM     15  C   UNL     1       2.918   8.431  17.849  0.00  0.00    +0.000 C 
BRANCH  15  16
ATOM     16  C   UNL     1       2.867   7.016  18.402  0.00  0.00    +0.000 A 
ATOM     17  C   UNL     1       2.273   6.750  19.640  0.00  0.00    +0.000 A 
ATOM     18  C   UNL     1       2.244   5.450  20.166  0.00  0.00    +0.000 A 
ATOM     19  C   UNL     1       2.807   4.361  19.479  0.00  0.00    +0.000 A 
ATOM     20  C   UNL     1       3.417   4.644  18.242  0.00  0.00    +0.000 A 
ATOM     21  C   UNL     1       3.446   5.946  17.712  0.00  0.00    +0.000 A 
BRANCH  19  22
ATOM     22  C   UNL     1       2.754   2.917  20.021  0.00  0.00    +0.000 C 
ATOM     23  C   UNL     1       1.737   2.015  19.282  0.00  0.00    +0.000 C 
ATOM     24  C   UNL     1       4.140   2.249  19.873  0.00  0.00    +0.000 C 
ATOM     25  C   UNL     1       2.363   2.907  21.515  0.00  0.00    +0.000 C 
ENDBRANCH  19  22
ENDBRANCH  15  16
ENDBRANCH  14  15
ENDBRANCH   1  14
TORSDOF 5
ENDMDL
MODEL 4
REMARK VINA RESULT:      -7.6      4.799      7.409
REMARK  Name = 
REMARK  9 active torsions:
REMARK  status: ('A' for Active; 'I' for Inactive)
REMARK    1  A    between atoms: C_1  and  C_2
REMARK    2  A    between atoms: C_3  and  S_4
REMARK    3  A    between atoms: S_4  and  C_5
REMARK    4  A    between atoms: C_5  and  C_6
REMARK    5  A    between atoms: C_6  and  C_7
REMARK    6  A    between atoms: C_10  and  C_11
REMARK    7  A    between atoms: C_11  and  C_12
REMARK    8  A    between atoms: C_11  and  C_13
REMARK    9  A    between atoms: C_11  and  C_14
REMARK                            x       y       z     vdW  Elec       q    Type
REMARK                         _______ _______ _______ _____ _____    ______ ____
ROOT
ATOM      1  S   UNL     1       7.229   5.164  17.702  0.00  0.00    +0.000 S 
ENDROOT
BRANCH   1   4
ATOM      2  C   UNL     1       4.655   6.906  16.652  0.00  0.00    +0.000 C 
ATOM      3  C   UNL     1       4.567   5.836  17.702  0.00  0.00    +0.000 A 
ATOM      4  C   UNL     1       5.544   5.056  18.212  0.00  0.00    +0.000 A 
ATOM      5  O   UNL     1       5.328   4.094  19.187  0.00  0.00    +0.000 OA
ATOM      6  C   UNL     1       4.066   3.863  19.647  0.00  0.00    +0.000 A 
ATOM      7  C   UNL     1       3.917   2.847  20.590  0.00  0.00    +0.000 A 
ATOM      8  C   UNL     1       2.652   2.556  21.101  0.00  0.00    +0.000 A 
ATOM      9  C   UNL     1       1.541   3.283  20.669  0.00  0.00    +0.000 A 
ATOM     10  C   UNL     1       1.696   4.302  19.727  0.00  0.00    +0.000 A 
ATOM     11  C   UNL     1       2.968   4.587  19.217  0.00  0.00    +0.000 A 
ATOM     12  C   UNL     1       3.176   5.640  18.221  0.00  0.00    +0.000 A 
ATOM     13  O   UNL     1       2.235   6.322  17.832  0.00  0.00    +0.000 OA
ENDBRANCH   1   4
BRANCH   1  14
ATOM     14  C   UNL     1       7.690   6.793  18.426  0.00  0.00    +0.000 C 
BRANCH  14  15
ATOM     15  C   UNL     1       7.739   7.952  17.426  0.00  0.00    +0.000 C 
BRANCH  15  16
ATOM     16  C   UNL     1       8.324   9.197  18.072  0.00  0.00    +0.000 A 
ATOM     17  C   UNL     1       8.200  10.449  17.461  0.00  0.00    +0.000 A 
ATOM     18  C   UNL     1       8.758  11.597  18.042  0.00  0.00    +0.000 A 
ATOM     19  C   UNL     1       9.464  11.545  19.257  0.00  0.00    +0.000 A 
ATOM     20  C   UNL     1       9.596  10.276  19.853  0.00  0.00    +0.000 A 
ATOM     21  C   UNL     1       9.036   9.124  19.274  0.00  0.00    +0.000 A 
BRANCH  19  22
ATOM     22  C   UNL     1      10.055  12.800  19.931  0.00  0.00    +0.000 C 
ATOM     23  C   UNL     1       9.487  14.128  19.374  0.00  0.00    +0.000 C 
ATOM     24  C   UNL     1       9.745  12.778  21.445  0.00  0.00    +0.000 C 
ATOM     25  C   UNL     1      11.587  12.852  19.745  0.00  0.00    +0.000 C 
ENDBRANCH  19  22
ENDBRANCH  15  16
ENDBRANCH  14  15
ENDBRANCH   1  14
TORSDOF 5
ENDMDL
MODEL 5
REMARK VINA RESULT:      -7.6      4.200      9.502
REMARK  Name = 
REMARK  9 active torsions:
REMARK  status: ('A' for Active; 'I' for Inactive)
REMARK    1  A    between atoms: C_1  and  C_2
REMARK    2  A    between atoms: C_3  and  S_4
REMARK    3  A    between atoms: S_4  and  C_5
REMARK    4  A    between atoms: C_5  and  C_6
REMARK    5  A    between atoms: C_6  and  C_7
REMARK    6  A    between atoms: C_10  and  C_11
REMARK    7  A    between atoms: C_11  and  C_12
REMARK    8  A    between atoms: C_11  and  C_13
REMARK    9  A    between atoms: C_11  and  C_14
REMARK                            x       y       z     vdW  Elec       q    Type
REMARK                         _______ _______ _______ _____ _____    ______ ____
ROOT
ATOM      1  S   UNL     1       0.183  11.218  21.231  0.00  0.00    +0.000 S 
ENDROOT
BRANCH   1   4
ATOM      2  C   UNL     1      -2.507  13.036  21.699  0.00  0.00    +0.000 C 
ATOM      3  C   UNL     1      -2.276  12.183  20.485  0.00  0.00    +0.000 A 
ATOM      4  C   UNL     1      -1.221  11.398  20.178  0.00  0.00    +0.000 A 
ATOM      5  O   UNL     1      -1.130  10.656  19.011  0.00  0.00    +0.000 OA
ATOM      6  C   UNL     1      -2.121  10.730  18.078  0.00  0.00    +0.000 A 
ATOM      7  C   UNL     1      -1.938   9.995  16.908  0.00  0.00    +0.000 A 
ATOM      8  C   UNL     1      -2.912  10.029  15.909  0.00  0.00    +0.000 A 
ATOM      9  C   UNL     1      -4.065  10.796  16.086  0.00  0.00    +0.000 A 
ATOM     10  C   UNL     1      -4.245  11.528  17.261  0.00  0.00    +0.000 A 
ATOM     11  C   UNL     1      -3.262  11.492  18.257  0.00  0.00    +0.000 A 
ATOM     12  C   UNL     1      -3.404  12.251  19.502  0.00  0.00    +0.000 A 
ATOM     13  O   UNL     1      -4.411  12.916  19.712  0.00  0.00    +0.000 OA
ENDBRANCH   1   4
BRANCH   1  14
ATOM     14  C   UNL     1       1.054   9.834  20.385  0.00  0.00    +0.000 C 
BRANCH  14  15
ATOM     15  C   UNL     1       1.015   8.497  21.130  0.00  0.00    +0.000 C 
BRANCH  15  16
ATOM     16  C   UNL     1       1.670   7.401  20.307  0.00  0.00    +0.000 A 
ATOM     17  C   UNL     1       1.726   6.085  20.777  0.00  0.00    +0.000 A 
ATOM     18  C   UNL     1       2.350   5.074  20.030  0.00  0.00    +0.000 A 
ATOM     19  C   UNL     1       2.945   5.334  18.784  0.00  0.00    +0.000 A 
ATOM     20  C   UNL     1       2.897   6.666  18.330  0.00  0.00    +0.000 A 
ATOM     21  C   UNL     1       2.271   7.680  19.075  0.00  0.00    +0.000 A 
BRANCH  19  22
ATOM     22  C   UNL     1       3.604   4.231  17.930  0.00  0.00    +0.000 C 
ATOM     23  C   UNL     1       4.503   4.780  16.796  0.00  0.00    +0.000 C 
ATOM     24  C   UNL     1       4.498   3.340  18.822  0.00  0.00    +0.000 C 
ATOM     25  C   UNL     1       2.533   3.340  17.264  0.00  0.00    +0.000 C 
ENDBRANCH  19  22
ENDBRANCH  15  16
ENDBRANCH  14  15
ENDBRANCH   1  14
TORSDOF 5
ENDMDL
MODEL 6
REMARK VINA RESULT:      -7.6      0.582      1.093
REMARK  Name = 
REMARK  9 active torsions:
REMARK  status: ('A' for Active; 'I' for Inactive)
REMARK    1  A    between atoms: C_1  and  C_2
REMARK    2  A    between atoms: C_3  and  S_4
REMARK    3  A    between atoms: S_4  and  C_5
REMARK    4  A    between atoms: C_5  and  C_6
REMARK    5  A    between atoms: C_6  and  C_7
REMARK    6  A    between atoms: C_10  and  C_11
REMARK    7  A    between atoms: C_11  and  C_12
REMARK    8  A    between atoms: C_11  and  C_13
REMARK    9  A    between atoms: C_11  and  C_14
REMARK                            x       y       z     vdW  Elec       q    Type
REMARK                         _______ _______ _______ _____ _____    ______ ____
ROOT
ATOM      1  S   UNL     1       3.981   3.557  17.930  0.00  0.00    +0.000 S 
ENDROOT
BRANCH   1   4
ATOM      2  C   UNL     1       6.378   5.736  18.444  0.00  0.00    +0.000 C 
ATOM      3  C   UNL     1       6.085   5.116  17.108  0.00  0.00    +0.000 A 
ATOM      4  C   UNL     1       5.136   4.216  16.772  0.00  0.00    +0.000 A 
ATOM      5  O   UNL     1       4.970   3.718  15.489  0.00  0.00    +0.000 OA
ATOM      6  C   UNL     1       5.821   4.102  14.495  0.00  0.00    +0.000 A 
ATOM      7  C   UNL     1       5.624   3.522  13.242  0.00  0.00    +0.000 A 
ATOM      8  C   UNL     1       6.462   3.868  12.180  0.00  0.00    +0.000 A 
ATOM      9  C   UNL     1       7.489   4.792  12.375  0.00  0.00    +0.000 A 
ATOM     10  C   UNL     1       7.680   5.372  13.631  0.00  0.00    +0.000 A 
ATOM     11  C   UNL     1       6.838   5.019  14.692  0.00  0.00    +0.000 A 
ATOM     12  C   UNL     1       7.006   5.594  16.028  0.00  0.00    +0.000 A 
ATOM     13  O   UNL     1       7.877   6.430  16.240  0.00  0.00    +0.000 OA
ENDBRANCH   1   4
BRANCH   1  14
ATOM     14  C   UNL     1       2.903   5.026  18.195  0.00  0.00    +0.000 C 
BRANCH  14  15
ATOM     15  C   UNL     1       2.961   5.621  19.605  0.00  0.00    +0.000 C 
BRANCH  15  16
ATOM     16  C   UNL     1       2.268   6.973  19.649  0.00  0.00    +0.000 A 
ATOM     17  C   UNL     1       2.183   7.773  18.505  0.00  0.00    +0.000 A 
ATOM     18  C   UNL     1       1.564   9.032  18.546  0.00  0.00    +0.000 A 
ATOM     19  C   UNL     1       1.006   9.545  19.729  0.00  0.00    +0.000 A 
ATOM     20  C   UNL     1       1.113   8.736  20.877  0.00  0.00    +0.000 A 
ATOM     21  C   UNL     1       1.731   7.474  20.839  0.00  0.00    +0.000 A 
BRANCH  19  22
ATOM     22  C   UNL     1       0.289  10.910  19.788  0.00  0.00    +0.000 C 
ATOM     23  C   UNL     1      -0.919  10.934  20.754  0.00  0.00    +0.000 C 
ATOM     24  C   UNL     1       1.273  11.999  20.271  0.00  0.00    +0.000 C 
ATOM     25  C   UNL     1      -0.241  11.311  18.394  0.00  0.00    +0.000 C 
ENDBRANCH  19  22
ENDBRANCH  15  16
ENDBRANCH  14  15
ENDBRANCH   1  14
TORSDOF 5
ENDMDL
MODEL 7
REMARK VINA RESULT:      -7.6      4.568      9.160
REMARK  Name = 
REMARK  9 active torsions:
REMARK  status: ('A' for Active; 'I' for Inactive)
REMARK    1  A    between atoms: C_1  and  C_2
REMARK    2  A    between atoms: C_3  and  S_4
REMARK    3  A    between atoms: S_4  and  C_5
REMARK    4  A    between atoms: C_5  and  C_6
REMARK    5  A    between atoms: C_6  and  C_7
REMARK    6  A    between atoms: C_10  and  C_11
REMARK    7  A    between atoms: C_11  and  C_12
REMARK    8  A    between atoms: C_11  and  C_13
REMARK    9  A    between atoms: C_11  and  C_14
REMARK                            x       y       z     vdW  Elec       q    Type
REMARK                         _______ _______ _______ _____ _____    ______ ____
ROOT
ATOM      1  S   UNL     1       1.251   9.494  19.320  0.00  0.00    +0.000 S 
ENDROOT
BRANCH   1   4
ATOM      2  C   UNL     1      -0.472  11.643  21.102  0.00  0.00    +0.000 C 
ATOM      3  C   UNL     1      -0.925  11.105  19.776  0.00  0.00    +0.000 A 
ATOM      4  C   UNL     1      -0.312  10.226  18.954  0.00  0.00    +0.000 A 
ATOM      5  O   UNL     1      -0.841   9.809  17.743  0.00  0.00    +0.000 OA
ATOM      6  C   UNL     1      -2.025  10.325  17.304  0.00  0.00    +0.000 A 
ATOM      7  C   UNL     1      -2.471   9.896  16.055  0.00  0.00    +0.000 A 
ATOM      8  C   UNL     1      -3.673  10.388  15.543  0.00  0.00    +0.000 A 
ATOM      9  C   UNL     1      -4.423  11.303  16.283  0.00  0.00    +0.000 A 
ATOM     10  C   UNL     1      -3.973  11.727  17.534  0.00  0.00    +0.000 A 
ATOM     11  C   UNL     1      -2.765  11.232  18.041  0.00  0.00    +0.000 A 
ATOM     12  C   UNL     1      -2.249  11.655  19.344  0.00  0.00    +0.000 A 
ATOM     13  O   UNL     1      -2.886  12.437  20.041  0.00  0.00    +0.000 OA
ENDBRANCH   1   4
BRANCH   1  14
ATOM     14  C   UNL     1       1.712   8.851  17.658  0.00  0.00    +0.000 C 
BRANCH  14  15
ATOM     15  C   UNL     1       3.086   8.178  17.587  0.00  0.00    +0.000 C 
BRANCH  15  16
ATOM     16  C   UNL     1       3.042   6.796  18.217  0.00  0.00    +0.000 A 
ATOM     17  C   UNL     1       4.149   6.282  18.900  0.00  0.00    +0.000 A 
ATOM     18  C   UNL     1       4.121   4.998  19.464  0.00  0.00    +0.000 A 
ATOM     19  C   UNL     1       2.989   4.171  19.368  0.00  0.00    +0.000 A 
ATOM     20  C   UNL     1       1.888   4.693  18.663  0.00  0.00    +0.000 A 
ATOM     21  C   UNL     1       1.912   5.980  18.099  0.00  0.00    +0.000 A 
BRANCH  19  22
ATOM     22  C   UNL     1       2.924   2.770  20.010  0.00  0.00    +0.000 C 
ATOM     23  C   UNL     1       2.419   2.782  21.473  0.00  0.00    +0.000 C 
ATOM     24  C   UNL     1       1.959   1.868  19.208  0.00  0.00    +0.000 C 
ATOM     25  C   UNL     1       4.319   2.107  20.021  0.00  0.00    +0.000 C 
ENDBRANCH  19  22
ENDBRANCH  15  16
ENDBRANCH  14  15
ENDBRANCH   1  14
TORSDOF 5
ENDMDL
MODEL 8
REMARK VINA RESULT:      -7.6      2.600      4.664
REMARK  Name = 
REMARK  9 active torsions:
REMARK  status: ('A' for Active; 'I' for Inactive)
REMARK    1  A    between atoms: C_1  and  C_2
REMARK    2  A    between atoms: C_3  and  S_4
REMARK    3  A    between atoms: S_4  and  C_5
REMARK    4  A    between atoms: C_5  and  C_6
REMARK    5  A    between atoms: C_6  and  C_7
REMARK    6  A    between atoms: C_10  and  C_11
REMARK    7  A    between atoms: C_11  and  C_12
REMARK    8  A    between atoms: C_11  and  C_13
REMARK    9  A    between atoms: C_11  and  C_14
REMARK                            x       y       z     vdW  Elec       q    Type
REMARK                         _______ _______ _______ _____ _____    ______ ____
ROOT
ATOM      1  S   UNL     1       1.812   8.055  19.894  0.00  0.00    +0.000 S 
ENDROOT
BRANCH   1   4
ATOM      2  C   UNL     1       1.415   4.854  20.492  0.00  0.00    +0.000 C 
ATOM      3  C   UNL     1       2.331   5.399  19.434  0.00  0.00    +0.000 A 
ATOM      4  C   UNL     1       2.577   6.682  19.094  0.00  0.00    +0.000 A 
ATOM      5  O   UNL     1       3.453   7.054  18.086  0.00  0.00    +0.000 OA
ATOM      6  C   UNL     1       4.086   6.099  17.347  0.00  0.00    +0.000 A 
ATOM      7  C   UNL     1       4.914   6.547  16.319  0.00  0.00    +0.000 A 
ATOM      8  C   UNL     1       5.589   5.622  15.521  0.00  0.00    +0.000 A 
ATOM      9  C   UNL     1       5.436   4.255  15.756  0.00  0.00    +0.000 A 
ATOM     10  C   UNL     1       4.608   3.812  16.789  0.00  0.00    +0.000 A 
ATOM     11  C   UNL     1       3.931   4.745  17.584  0.00  0.00    +0.000 A 
ATOM     12  C   UNL     1       3.046   4.326  18.673  0.00  0.00    +0.000 A 
ATOM     13  O   UNL     1       2.901   3.137  18.934  0.00  0.00    +0.000 OA
ENDBRANCH   1   4
BRANCH   1  14
ATOM     14  C   UNL     1       1.281   9.037  18.429  0.00  0.00    +0.000 C 
BRANCH  14  15
ATOM     15  C   UNL     1       0.981  10.511  18.717  0.00  0.00    +0.000 C 
BRANCH  15  16
ATOM     16  C   UNL     1      -0.509  10.787  18.616  0.00  0.00    +0.000 A 
ATOM     17  C   UNL     1      -1.311  10.083  17.712  0.00  0.00    +0.000 A 
ATOM     18  C   UNL     1      -2.684  10.351  17.599  0.00  0.00    +0.000 A 
ATOM     19  C   UNL     1      -3.313  11.333  18.382  0.00  0.00    +0.000 A 
ATOM     20  C   UNL     1      -2.492  12.047  19.276  0.00  0.00    +0.000 A 
ATOM     21  C   UNL     1      -1.117  11.779  19.393  0.00  0.00    +0.000 A 
BRANCH  19  22
ATOM     22  C   UNL     1      -4.827  11.619  18.300  0.00  0.00    +0.000 C 
ATOM     23  C   UNL     1      -5.291  12.103  16.905  0.00  0.00    +0.000 C 
ATOM     24  C   UNL     1      -5.623  10.333  18.618  0.00  0.00    +0.000 C 
ATOM     25  C   UNL     1      -5.234  12.711  19.314  0.00  0.00    +0.000 C 
ENDBRANCH  19  22
ENDBRANCH  15  16
ENDBRANCH  14  15
ENDBRANCH   1  14
TORSDOF 5
ENDMDL
MODEL 9
REMARK VINA RESULT:      -7.6      0.869      1.499
REMARK  Name = 
REMARK  9 active torsions:
REMARK  status: ('A' for Active; 'I' for Inactive)
REMARK    1  A    between atoms: C_1  and  C_2
REMARK    2  A    between atoms: C_3  and  S_4
REMARK    3  A    between atoms: S_4  and  C_5
REMARK    4  A    between atoms: C_5  and  C_6
REMARK    5  A    between atoms: C_6  and  C_7
REMARK    6  A    between atoms: C_10  and  C_11
REMARK    7  A    between atoms: C_11  and  C_12
REMARK    8  A    between atoms: C_11  and  C_13
REMARK    9  A    between atoms: C_11  and  C_14
REMARK                            x       y       z     vdW  Elec       q    Type
REMARK                         _______ _______ _______ _____ _____    ______ ____
ROOT
ATOM      1  S   UNL     1       4.512   3.724  19.067  0.00  0.00    +0.000 S 
ENDROOT
BRANCH   1   4
ATOM      2  C   UNL     1       6.905   5.966  19.025  0.00  0.00    +0.000 C 
ATOM      3  C   UNL     1       6.405   5.255  17.801  0.00  0.00    +0.000 A 
ATOM      4  C   UNL     1       5.437   4.321  17.690  0.00  0.00    +0.000 A 
ATOM      5  O   UNL     1       5.069   3.736  16.488  0.00  0.00    +0.000 OA
ATOM      6  C   UNL     1       5.728   4.065  15.341  0.00  0.00    +0.000 A 
ATOM      7  C   UNL     1       5.337   3.400  14.179  0.00  0.00    +0.000 A 
ATOM      8  C   UNL     1       5.973   3.686  12.971  0.00  0.00    +0.000 A 
ATOM      9  C   UNL     1       6.995   4.636  12.928  0.00  0.00    +0.000 A 
ATOM     10  C   UNL     1       7.380   5.301  14.094  0.00  0.00    +0.000 A 
ATOM     11  C   UNL     1       6.740   5.007  15.303  0.00  0.00    +0.000 A 
ATOM     12  C   UNL     1       7.117   5.673  16.552  0.00  0.00    +0.000 A 
ATOM     13  O   UNL     1       7.990   6.533  16.558  0.00  0.00    +0.000 OA
ENDBRANCH   1   4
BRANCH   1  14
ATOM     14  C   UNL     1       3.521   5.222  19.475  0.00  0.00    +0.000 C 
BRANCH  14  15
ATOM     15  C   UNL     1       3.089   6.056  18.266  0.00  0.00    +0.000 C 
BRANCH  15  16
ATOM     16  C   UNL     1       2.365   7.316  18.712  0.00  0.00    +0.000 A 
ATOM     17  C   UNL     1       1.991   7.494  20.048  0.00  0.00    +0.000 A 
ATOM     18  C   UNL     1       1.303   8.645  20.460  0.00  0.00    +0.000 A 
ATOM     19  C   UNL     1       0.958   9.665  19.557  0.00  0.00    +0.000 A 
ATOM     20  C   UNL     1       1.325   9.466  18.212  0.00  0.00    +0.000 A 
ATOM     21  C   UNL     1       2.017   8.314  17.797  0.00  0.00    +0.000 A 
BRANCH  19  22
ATOM     22  C   UNL     1       0.233  10.955  19.995  0.00  0.00    +0.000 C 
ATOM     23  C   UNL     1      -0.783  11.479  18.951  0.00  0.00    +0.000 C 
ATOM     24  C   UNL     1      -0.553  10.699  21.300  0.00  0.00    +0.000 C 
ATOM     25  C   UNL     1       1.247  12.093  20.248  0.00  0.00    +0.000 C 
ENDBRANCH  19  22
ENDBRANCH  15  16
ENDBRANCH  14  15
ENDBRANCH   1  14
TORSDOF 5
ENDMDL
