MODEL 1
REMARK VINA RESULT:      -7.7      0.000      0.000
REMARK  Name = 
REMARK  8 active torsions:
REMARK  status: ('A' for Active; 'I' for Inactive)
REMARK    1  A    between atoms: C_1  and  O_2
REMARK    2  A    between atoms: O_2  and  C_3
REMARK    3  A    between atoms: C_6  and  C_7
REMARK    4  A    between atoms: C_7  and  N_9
REMARK    5  A    between atoms: C_13  and  C_14
REMARK    6  A    between atoms: C_17  and  O_18
REMARK    7  A    between atoms: O_18  and  C_19
REMARK    8  A    between atoms: N_21  and  C_22
REMARK                            x       y       z     vdW  Elec       q    Type
REMARK                         _______ _______ _______ _____ _____    ______ ____
ROOT
ATOM      1  N   UNL     1       4.989   3.500  16.737  0.00  0.00    +0.000 NA
ATOM      2  C   UNL     1       4.144   4.269  17.362  0.00  0.00    +0.000 A 
ATOM      3  S   UNL     1       3.970   6.016  17.058  0.00  0.00    +0.000 S 
ATOM      4  C   UNL     1       2.877   6.193  18.450  0.00  0.00    +0.000 A 
ATOM      5  C   UNL     1       2.334   7.397  18.902  0.00  0.00    +0.000 A 
ATOM      6  C   UNL     1       2.451   8.689  18.150  0.00  0.00    +0.000 C 
ATOM      7  C   UNL     1       1.652   7.365  20.117  0.00  0.00    +0.000 A 
ATOM      8  C   UNL     1       1.447   6.147  20.777  0.00  0.00    +0.000 A 
ATOM      9  C   UNL     1       1.900   4.922  20.248  0.00  0.00    +0.000 A 
ATOM     10  C   UNL     1       2.627   4.935  19.050  0.00  0.00    +0.000 A 
ATOM     11  N   UNL     1       3.220   3.860  18.338  0.00  0.00    +0.000 N 
ATOM     12  C   UNL     1       2.412   2.684  18.071  0.00  0.00    +0.000 C 
ENDROOT
BRANCH   1  13
ATOM     13  C   UNL     1       6.070   4.126  16.151  0.00  0.00    +0.000 C 
ATOM     14  O   UNL     1       6.329   4.031  14.950  0.00  0.00    +0.000 OA
BRANCH  13  18
ATOM     15  C   UNL     1       8.099   7.173  18.401  0.00  0.00    +0.000 A 
ATOM     16  C   UNL     1       7.640   7.417  17.111  0.00  0.00    +0.000 A 
ATOM     17  C   UNL     1       7.029   6.396  16.383  0.00  0.00    +0.000 A 
ATOM     18  C   UNL     1       6.877   5.110  16.931  0.00  0.00    +0.000 A 
ATOM     19  C   UNL     1       7.409   4.846  18.195  0.00  0.00    +0.000 A 
ATOM     20  C   UNL     1       8.018   5.880  18.928  0.00  0.00    +0.000 A 
BRANCH  15  22
ATOM     21  C   UNL     1       8.597   9.472  18.305  0.00  0.00    +0.000 C 
ATOM     22  O   UNL     1       8.641   8.254  19.039  0.00  0.00    +0.000 OA
ENDBRANCH  15  22
ENDBRANCH  13  18
ENDBRANCH   1  13
BRANCH   9  23
ATOM     23  O   UNL     1       1.487   3.857  20.998  0.00  0.00    +0.000 OA
ATOM     24  C   UNL     1       2.451   3.058  21.666  0.00  0.00    +0.000 C 
ENDBRANCH   9  23
TORSDOF 4
ENDMDL
MODEL 2
REMARK VINA RESULT:      -7.3      3.251      6.553
REMARK  Name = 
REMARK  8 active torsions:
REMARK  status: ('A' for Active; 'I' for Inactive)
REMARK    1  A    between atoms: C_1  and  O_2
REMARK    2  A    between atoms: O_2  and  C_3
REMARK    3  A    between atoms: C_6  and  C_7
REMARK    4  A    between atoms: C_7  and  N_9
REMARK    5  A    between atoms: C_13  and  C_14
REMARK    6  A    between atoms: C_17  and  O_18
REMARK    7  A    between atoms: O_18  and  C_19
REMARK    8  A    between atoms: N_21  and  C_22
REMARK                            x       y       z     vdW  Elec       q    Type
REMARK                         _______ _______ _______ _____ _____    ______ ____
ROOT
ATOM      1  N   UNL     1       2.811   8.512  17.818  0.00  0.00    +0.000 NA
ATOM      2  C   UNL     1       3.026   7.235  17.960  0.00  0.00    +0.000 A 
ATOM      3  S   UNL     1       1.740   6.003  17.995  0.00  0.00    +0.000 S 
ATOM      4  C   UNL     1       2.904   4.739  18.453  0.00  0.00    +0.000 A 
ATOM      5  C   UNL     1       2.582   3.410  18.735  0.00  0.00    +0.000 A 
ATOM      6  C   UNL     1       1.223   2.822  18.501  0.00  0.00    +0.000 C 
ATOM      7  C   UNL     1       3.599   2.613  19.257  0.00  0.00    +0.000 A 
ATOM      8  C   UNL     1       4.897   3.121  19.384  0.00  0.00    +0.000 A 
ATOM      9  C   UNL     1       5.233   4.430  18.984  0.00  0.00    +0.000 A 
ATOM     10  C   UNL     1       4.218   5.264  18.498  0.00  0.00    +0.000 A 
ATOM     11  N   UNL     1       4.283   6.617  18.073  0.00  0.00    +0.000 N 
ATOM     12  C   UNL     1       5.321   6.992  17.131  0.00  0.00    +0.000 C 
ENDROOT
BRANCH   1  13
ATOM     13  C   UNL     1       1.548   8.961  18.147  0.00  0.00    +0.000 C 
ATOM     14  O   UNL     1       0.604   8.943  17.355  0.00  0.00    +0.000 OA
BRANCH  13  18
ATOM     15  C   UNL     1       0.276  10.031  22.110  0.00  0.00    +0.000 A 
ATOM     16  C   UNL     1       0.145  10.920  21.047  0.00  0.00    +0.000 A 
ATOM     17  C   UNL     1       0.611  10.567  19.782  0.00  0.00    +0.000 A 
ATOM     18  C   UNL     1       1.227   9.322  19.560  0.00  0.00    +0.000 A 
ATOM     19  C   UNL     1       1.430   8.465  20.643  0.00  0.00    +0.000 A 
ATOM     20  C   UNL     1       0.951   8.821  21.917  0.00  0.00    +0.000 A 
BRANCH  15  22
ATOM     21  C   UNL     1      -1.407  11.283  23.177  0.00  0.00    +0.000 C 
ATOM     22  O   UNL     1      -0.253  10.460  23.295  0.00  0.00    +0.000 OA
ENDBRANCH  15  22
ENDBRANCH  13  18
ENDBRANCH   1  13
BRANCH   9  23
ATOM     23  O   UNL     1       6.574   4.668  19.088  0.00  0.00    +0.000 OA
ATOM     24  C   UNL     1       7.395   4.544  17.937  0.00  0.00    +0.000 C 
ENDBRANCH   9  23
TORSDOF 4
ENDMDL
MODEL 3
REMARK VINA RESULT:      -7.2      3.996      7.602
REMARK  Name = 
REMARK  8 active torsions:
REMARK  status: ('A' for Active; 'I' for Inactive)
REMARK    1  A    between atoms: C_1  and  O_2
REMARK    2  A    between atoms: O_2  and  C_3
REMARK    3  A    between atoms: C_6  and  C_7
REMARK    4  A    between atoms: C_7  and  N_9
REMARK    5  A    between atoms: C_13  and  C_14
REMARK    6  A    between atoms: C_17  and  O_18
REMARK    7  A    between atoms: O_18  and  C_19
REMARK    8  A    between atoms: N_21  and  C_22
REMARK                            x       y       z     vdW  Elec       q    Type
REMARK                         _______ _______ _______ _____ _____    ______ ____
ROOT
ATOM      1  N   UNL     1       1.973   8.308  19.690  0.00  0.00    +0.000 NA
ATOM      2  C   UNL     1       2.261   7.037  19.707  0.00  0.00    +0.000 A 
ATOM      3  S   UNL     1       1.342   5.817  20.623  0.00  0.00    +0.000 S 
ATOM      4  C   UNL     1       2.554   4.568  20.258  0.00  0.00    +0.000 A 
ATOM      5  C   UNL     1       2.529   3.256  20.734  0.00  0.00    +0.000 A 
ATOM      6  C   UNL     1       1.362   2.666  21.468  0.00  0.00    +0.000 C 
ATOM      7  C   UNL     1       3.660   2.477  20.496  0.00  0.00    +0.000 A 
ATOM      8  C   UNL     1       4.712   2.982  19.724  0.00  0.00    +0.000 A 
ATOM      9  C   UNL     1       4.672   4.269  19.151  0.00  0.00    +0.000 A 
ATOM     10  C   UNL     1       3.564   5.086  19.413  0.00  0.00    +0.000 A 
ATOM     11  N   UNL     1       3.302   6.418  18.996  0.00  0.00    +0.000 N 
ATOM     12  C   UNL     1       3.464   6.741  17.591  0.00  0.00    +0.000 C 
ENDROOT
BRANCH   1  13
ATOM     13  C   UNL     1       1.220   8.779  20.746  0.00  0.00    +0.000 C 
ATOM     14  O   UNL     1       1.485   8.527  21.923  0.00  0.00    +0.000 OA
BRANCH  13  18
ATOM     15  C   UNL     1      -1.650  11.925  20.172  0.00  0.00    +0.000 A 
ATOM     16  C   UNL     1      -1.161  11.620  21.438  0.00  0.00    +0.000 A 
ATOM     17  C   UNL     1      -0.269  10.562  21.604  0.00  0.00    +0.000 A 
ATOM     18  C   UNL     1       0.142   9.783  20.506  0.00  0.00    +0.000 A 
ATOM     19  C   UNL     1      -0.411  10.041  19.250  0.00  0.00    +0.000 A 
ATOM     20  C   UNL     1      -1.305  11.114  19.086  0.00  0.00    +0.000 A 
BRANCH  15  22
ATOM     21  C   UNL     1      -3.871  12.705  20.210  0.00  0.00    +0.000 C 
ATOM     22  O   UNL     1      -2.484  13.007  20.116  0.00  0.00    +0.000 OA
ENDBRANCH  15  22
ENDBRANCH  13  18
ENDBRANCH   1  13
BRANCH   9  23
ATOM     23  O   UNL     1       5.749   4.503  18.343  0.00  0.00    +0.000 OA
ATOM     24  C   UNL     1       6.779   5.371  18.789  0.00  0.00    +0.000 C 
ENDBRANCH   9  23
TORSDOF 4
ENDMDL
MODEL 4
REMARK VINA RESULT:      -7.2      0.960      1.472
REMARK  Name = 
REMARK  8 active torsions:
REMARK  status: ('A' for Active; 'I' for Inactive)
REMARK    1  A    between atoms: C_1  and  O_2
REMARK    2  A    between atoms: O_2  and  C_3
REMARK    3  A    between atoms: C_6  and  C_7
REMARK    4  A    between atoms: C_7  and  N_9
REMARK    5  A    between atoms: C_13  and  C_14
REMARK    6  A    between atoms: C_17  and  O_18
REMARK    7  A    between atoms: O_18  and  C_19
REMARK    8  A    between atoms: N_21  and  C_22
REMARK                            x       y       z     vdW  Elec       q    Type
REMARK                         _______ _______ _______ _____ _____    ______ ____
ROOT
ATOM      1  N   UNL     1       6.026   4.100  17.437  0.00  0.00    +0.000 NA
ATOM      2  C   UNL     1       4.960   4.670  17.924  0.00  0.00    +0.000 A 
ATOM      3  S   UNL     1       4.319   6.234  17.360  0.00  0.00    +0.000 S 
ATOM      4  C   UNL     1       3.136   6.276  18.687  0.00  0.00    +0.000 A 
ATOM      5  C   UNL     1       2.248   7.322  18.945  0.00  0.00    +0.000 A 
ATOM      6  C   UNL     1       2.042   8.477  18.011  0.00  0.00    +0.000 C 
ATOM      7  C   UNL     1       1.529   7.260  20.136  0.00  0.00    +0.000 A 
ATOM      8  C   UNL     1       1.636   6.137  20.966  0.00  0.00    +0.000 A 
ATOM      9  C   UNL     1       2.449   5.035  20.634  0.00  0.00    +0.000 A 
ATOM     10  C   UNL     1       3.215   5.094  19.463  0.00  0.00    +0.000 A 
ATOM     11  N   UNL     1       4.132   4.149  18.931  0.00  0.00    +0.000 N 
ATOM     12  C   UNL     1       3.707   2.765  18.825  0.00  0.00    +0.000 C 
ENDROOT
BRANCH   1  13
ATOM     13  C   UNL     1       6.920   4.925  16.787  0.00  0.00    +0.000 C 
ATOM     14  O   UNL     1       7.283   4.736  15.624  0.00  0.00    +0.000 OA
BRANCH  13  18
ATOM     15  C   UNL     1       8.496   8.480  18.617  0.00  0.00    +0.000 A 
ATOM     16  C   UNL     1       8.528   7.256  19.277  0.00  0.00    +0.000 A 
ATOM     17  C   UNL     1       7.965   6.127  18.682  0.00  0.00    +0.000 A 
ATOM     18  C   UNL     1       7.350   6.207  17.419  0.00  0.00    +0.000 A 
ATOM     19  C   UNL     1       7.249   7.451  16.794  0.00  0.00    +0.000 A 
ATOM     20  C   UNL     1       7.825   8.586  17.395  0.00  0.00    +0.000 A 
BRANCH  15  22
ATOM     21  C   UNL     1       9.212  10.721  18.531  0.00  0.00    +0.000 C 
ATOM     22  O   UNL     1       9.115   9.509  19.271  0.00  0.00    +0.000 OA
ENDBRANCH  15  22
ENDBRANCH  13  18
ENDBRANCH   1  13
BRANCH   9  23
ATOM     23  O   UNL     1       2.307   4.009  21.526  0.00  0.00    +0.000 OA
ATOM     24  C   UNL     1       1.309   3.025  21.304  0.00  0.00    +0.000 C 
ENDBRANCH   9  23
TORSDOF 4
ENDMDL
MODEL 5
REMARK VINA RESULT:      -7.2      3.770      7.367
REMARK  Name = 
REMARK  8 active torsions:
REMARK  status: ('A' for Active; 'I' for Inactive)
REMARK    1  A    between atoms: C_1  and  O_2
REMARK    2  A    between atoms: O_2  and  C_3
REMARK    3  A    between atoms: C_6  and  C_7
REMARK    4  A    between atoms: C_7  and  N_9
REMARK    5  A    between atoms: C_13  and  C_14
REMARK    6  A    between atoms: C_17  and  O_18
REMARK    7  A    between atoms: O_18  and  C_19
REMARK    8  A    between atoms: N_21  and  C_22
REMARK                            x       y       z     vdW  Elec       q    Type
REMARK                         _______ _______ _______ _____ _____    ______ ____
ROOT
ATOM      1  N   UNL     1       2.181   8.184  19.362  0.00  0.00    +0.000 NA
ATOM      2  C   UNL     1       2.437   6.912  19.479  0.00  0.00    +0.000 A 
ATOM      3  S   UNL     1       1.432   5.772  20.408  0.00  0.00    +0.000 S 
ATOM      4  C   UNL     1       2.635   4.478  20.205  0.00  0.00    +0.000 A 
ATOM      5  C   UNL     1       2.548   3.201  20.761  0.00  0.00    +0.000 A 
ATOM      6  C   UNL     1       1.322   2.683  21.453  0.00  0.00    +0.000 C 
ATOM      7  C   UNL     1       3.673   2.386  20.649  0.00  0.00    +0.000 A 
ATOM      8  C   UNL     1       4.785   2.819  19.916  0.00  0.00    +0.000 A 
ATOM      9  C   UNL     1       4.812   4.066  19.261  0.00  0.00    +0.000 A 
ATOM     10  C   UNL     1       3.710   4.920  19.397  0.00  0.00    +0.000 A 
ATOM     11  N   UNL     1       3.507   6.226  18.879  0.00  0.00    +0.000 N 
ATOM     12  C   UNL     1       3.766   6.455  17.470  0.00  0.00    +0.000 C 
ENDROOT
BRANCH   1  13
ATOM     13  C   UNL     1       1.373   8.738  20.334  0.00  0.00    +0.000 C 
ATOM     14  O   UNL     1       1.548   8.548  21.539  0.00  0.00    +0.000 OA
BRANCH  13  18
ATOM     15  C   UNL     1      -1.794  11.392  19.154  0.00  0.00    +0.000 A 
ATOM     16  C   UNL     1      -1.141  10.592  18.222  0.00  0.00    +0.000 A 
ATOM     17  C   UNL     1      -0.083   9.776  18.622  0.00  0.00    +0.000 A 
ATOM     18  C   UNL     1       0.347   9.755  19.962  0.00  0.00    +0.000 A 
ATOM     19  C   UNL     1      -0.258  10.617  20.879  0.00  0.00    +0.000 A 
ATOM     20  C   UNL     1      -1.329  11.433  20.473  0.00  0.00    +0.000 A 
BRANCH  15  22
ATOM     21  C   UNL     1      -3.675  11.425  17.739  0.00  0.00    +0.000 C 
ATOM     22  O   UNL     1      -2.844  12.118  18.663  0.00  0.00    +0.000 OA
ENDBRANCH  15  22
ENDBRANCH  13  18
ENDBRANCH   1  13
BRANCH   9  23
ATOM     23  O   UNL     1       5.944   4.226  18.513  0.00  0.00    +0.000 OA
ATOM     24  C   UNL     1       6.904   5.198  18.899  0.00  0.00    +0.000 C 
ENDBRANCH   9  23
TORSDOF 4
ENDMDL
MODEL 6
REMARK VINA RESULT:      -7.2      2.239      6.234
REMARK  Name = 
REMARK  8 active torsions:
REMARK  status: ('A' for Active; 'I' for Inactive)
REMARK    1  A    between atoms: C_1  and  O_2
REMARK    2  A    between atoms: O_2  and  C_3
REMARK    3  A    between atoms: C_6  and  C_7
REMARK    4  A    between atoms: C_7  and  N_9
REMARK    5  A    between atoms: C_13  and  C_14
REMARK    6  A    between atoms: C_17  and  O_18
REMARK    7  A    between atoms: O_18  and  C_19
REMARK    8  A    between atoms: N_21  and  C_22
REMARK                            x       y       z     vdW  Elec       q    Type
REMARK                         _______ _______ _______ _____ _____    ______ ____
ROOT
ATOM      1  N   UNL     1       2.116   4.855  19.066  0.00  0.00    +0.000 NA
ATOM      2  C   UNL     1       3.316   4.759  18.567  0.00  0.00    +0.000 A 
ATOM      3  S   UNL     1       4.801   5.186  19.452  0.00  0.00    +0.000 S 
ATOM      4  C   UNL     1       5.784   4.990  17.982  0.00  0.00    +0.000 A 
ATOM      5  C   UNL     1       7.155   5.236  17.889  0.00  0.00    +0.000 A 
ATOM      6  C   UNL     1       8.025   5.516  19.078  0.00  0.00    +0.000 C 
ATOM      7  C   UNL     1       7.716   5.208  16.614  0.00  0.00    +0.000 A 
ATOM      8  C   UNL     1       6.935   4.846  15.509  0.00  0.00    +0.000 A 
ATOM      9  C   UNL     1       5.578   4.486  15.636  0.00  0.00    +0.000 A 
ATOM     10  C   UNL     1       4.982   4.549  16.902  0.00  0.00    +0.000 A 
ATOM     11  N   UNL     1       3.642   4.282  17.286  0.00  0.00    +0.000 N 
ATOM     12  C   UNL     1       3.032   3.044  16.838  0.00  0.00    +0.000 C 
ENDROOT
BRANCH   1  13
ATOM     13  C   UNL     1       1.963   5.718  20.132  0.00  0.00    +0.000 C 
ATOM     14  O   UNL     1       2.116   5.368  21.304  0.00  0.00    +0.000 OA
BRANCH  13  18
ATOM     15  C   UNL     1       1.206   9.837  19.171  0.00  0.00    +0.000 A 
ATOM     16  C   UNL     1       1.802   8.981  18.250  0.00  0.00    +0.000 A 
ATOM     17  C   UNL     1       2.083   7.662  18.604  0.00  0.00    +0.000 A 
ATOM     18  C   UNL     1       1.780   7.179  19.891  0.00  0.00    +0.000 A 
ATOM     19  C   UNL     1       1.255   8.061  20.837  0.00  0.00    +0.000 A 
ATOM     20  C   UNL     1       0.967   9.389  20.474  0.00  0.00    +0.000 A 
BRANCH  15  22
ATOM     21  C   UNL     1      -0.107  11.779  19.390  0.00  0.00    +0.000 C 
ATOM     22  O   UNL     1       0.935  11.094  18.705  0.00  0.00    +0.000 OA
ENDBRANCH  15  22
ENDBRANCH  13  18
ENDBRANCH   1  13
BRANCH   9  23
ATOM     23  O   UNL     1       5.051   4.057  14.451  0.00  0.00    +0.000 OA
ATOM     24  C   UNL     1       5.919   3.760  13.368  0.00  0.00    +0.000 C 
ENDBRANCH   9  23
TORSDOF 4
ENDMDL
MODEL 7
REMARK VINA RESULT:      -7.0      4.707      8.450
REMARK  Name = 
REMARK  8 active torsions:
REMARK  status: ('A' for Active; 'I' for Inactive)
REMARK    1  A    between atoms: C_1  and  O_2
REMARK    2  A    between atoms: O_2  and  C_3
REMARK    3  A    between atoms: C_6  and  C_7
REMARK    4  A    between atoms: C_7  and  N_9
REMARK    5  A    between atoms: C_13  and  C_14
REMARK    6  A    between atoms: C_17  and  O_18
REMARK    7  A    between atoms: O_18  and  C_19
REMARK    8  A    between atoms: N_21  and  C_22
REMARK                            x       y       z     vdW  Elec       q    Type
REMARK                         _______ _______ _______ _____ _____    ______ ____
ROOT
ATOM      1  N   UNL     1       1.334   9.593  20.203  0.00  0.00    +0.000 NA
ATOM      2  C   UNL     1       1.661   8.361  19.931  0.00  0.00    +0.000 A 
ATOM      3  S   UNL     1       1.110   6.952  20.870  0.00  0.00    +0.000 S 
ATOM      4  C   UNL     1       2.200   5.872  19.971  0.00  0.00    +0.000 A 
ATOM      5  C   UNL     1       2.370   4.509  20.217  0.00  0.00    +0.000 A 
ATOM      6  C   UNL     1       1.505   3.726  21.159  0.00  0.00    +0.000 C 
ATOM      7  C   UNL     1       3.403   3.868  19.535  0.00  0.00    +0.000 A 
ATOM      8  C   UNL     1       4.151   4.564  18.577  0.00  0.00    +0.000 A 
ATOM      9  C   UNL     1       3.890   5.910  18.255  0.00  0.00    +0.000 A 
ATOM     10  C   UNL     1       2.885   6.587  18.959  0.00  0.00    +0.000 A 
ATOM     11  N   UNL     1       2.459   7.937  18.855  0.00  0.00    +0.000 N 
ATOM     12  C   UNL     1       2.173   8.468  17.536  0.00  0.00    +0.000 C 
ENDROOT
BRANCH   1  13
ATOM     13  C   UNL     1       0.922   9.846  21.495  0.00  0.00    +0.000 C 
ATOM     14  O   UNL     1       1.611   9.583  22.482  0.00  0.00    +0.000 OA
BRANCH  13  18
ATOM     15  C   UNL     1      -2.484  12.278  22.473  0.00  0.00    +0.000 A 
ATOM     16  C   UNL     1      -1.963  11.367  23.387  0.00  0.00    +0.000 A 
ATOM     17  C   UNL     1      -0.889  10.555  23.027  0.00  0.00    +0.000 A 
ATOM     18  C   UNL     1      -0.323  10.632  21.741  0.00  0.00    +0.000 A 
ATOM     19  C   UNL     1      -0.898  11.489  20.801  0.00  0.00    +0.000 A 
ATOM     20  C   UNL     1      -1.977  12.312  21.170  0.00  0.00    +0.000 A 
BRANCH  15  22
ATOM     21  C   UNL     1      -4.021  12.668  24.213  0.00  0.00    +0.000 C 
ATOM     22  O   UNL     1      -3.506  13.054  22.944  0.00  0.00    +0.000 OA
ENDBRANCH  15  22
ENDBRANCH  13  18
ENDBRANCH   1  13
BRANCH   9  23
ATOM     23  O   UNL     1       4.661   6.345  17.214  0.00  0.00    +0.000 OA
ATOM     24  C   UNL     1       5.498   5.423  16.533  0.00  0.00    +0.000 C 
ENDBRANCH   9  23
TORSDOF 4
ENDMDL
MODEL 8
REMARK VINA RESULT:      -7.0      4.006      7.350
REMARK  Name = 
REMARK  8 active torsions:
REMARK  status: ('A' for Active; 'I' for Inactive)
REMARK    1  A    between atoms: C_1  and  O_2
REMARK    2  A    between atoms: O_2  and  C_3
REMARK    3  A    between atoms: C_6  and  C_7
REMARK    4  A    between atoms: C_7  and  N_9
REMARK    5  A    between atoms: C_13  and  C_14
REMARK    6  A    between atoms: C_17  and  O_18
REMARK    7  A    between atoms: O_18  and  C_19
REMARK    8  A    between atoms: N_21  and  C_22
REMARK                            x       y       z     vdW  Elec       q    Type
REMARK                         _______ _______ _______ _____ _____    ______ ____
ROOT
ATOM      1  N   UNL     1       1.443   8.349  19.565  0.00  0.00    +0.000 NA
ATOM      2  C   UNL     1       2.196   7.412  19.062  0.00  0.00    +0.000 A 
ATOM      3  S   UNL     1       3.392   7.679  17.769  0.00  0.00    +0.000 S 
ATOM      4  C   UNL     1       3.672   5.930  17.608  0.00  0.00    +0.000 A 
ATOM      5  C   UNL     1       4.514   5.330  16.670  0.00  0.00    +0.000 A 
ATOM      6  C   UNL     1       5.451   6.102  15.790  0.00  0.00    +0.000 C 
ATOM      7  C   UNL     1       4.462   3.941  16.573  0.00  0.00    +0.000 A 
ATOM      8  C   UNL     1       3.668   3.203  17.459  0.00  0.00    +0.000 A 
ATOM      9  C   UNL     1       2.913   3.816  18.478  0.00  0.00    +0.000 A 
ATOM     10  C   UNL     1       2.916   5.215  18.567  0.00  0.00    +0.000 A 
ATOM     11  N   UNL     1       2.218   6.066  19.464  0.00  0.00    +0.000 N 
ATOM     12  C   UNL     1       2.288   5.774  20.883  0.00  0.00    +0.000 C 
ENDROOT
BRANCH   1  13
ATOM     13  C   UNL     1       1.253   9.469  18.782  0.00  0.00    +0.000 C 
ATOM     14  O   UNL     1       2.168  10.017  18.163  0.00  0.00    +0.000 OA
BRANCH  13  18
ATOM     15  C   UNL     1      -2.586  11.221  17.973  0.00  0.00    +0.000 A 
ATOM     16  C   UNL     1      -1.899  11.505  19.150  0.00  0.00    +0.000 A 
ATOM     17  C   UNL     1      -0.679  10.884  19.411  0.00  0.00    +0.000 A 
ATOM     18  C   UNL     1      -0.128   9.961  18.503  0.00  0.00    +0.000 A 
ATOM     19  C   UNL     1      -0.857   9.618  17.362  0.00  0.00    +0.000 A 
ATOM     20  C   UNL     1      -2.085  10.252  17.099  0.00  0.00    +0.000 A 
BRANCH  15  22
ATOM     21  C   UNL     1      -4.640  11.369  16.833  0.00  0.00    +0.000 C 
ATOM     22  O   UNL     1      -3.750  11.917  17.798  0.00  0.00    +0.000 OA
ENDBRANCH  15  22
ENDBRANCH  13  18
ENDBRANCH   1  13
BRANCH   9  23
ATOM     23  O   UNL     1       2.314   2.898  19.294  0.00  0.00    +0.000 OA
ATOM     24  C   UNL     1       0.985   2.482  19.018  0.00  0.00    +0.000 C 
ENDBRANCH   9  23
TORSDOF 4
ENDMDL
MODEL 9
REMARK VINA RESULT:      -7.0      4.892      8.606
REMARK  Name = 
REMARK  8 active torsions:
REMARK  status: ('A' for Active; 'I' for Inactive)
REMARK    1  A    between atoms: C_1  and  O_2
REMARK    2  A    between atoms: O_2  and  C_3
REMARK    3  A    between atoms: C_6  and  C_7
REMARK    4  A    between atoms: C_7  and  N_9
REMARK    5  A    between atoms: C_13  and  C_14
REMARK    6  A    between atoms: C_17  and  O_18
REMARK    7  A    between atoms: O_18  and  C_19
REMARK    8  A    between atoms: N_21  and  C_22
REMARK                            x       y       z     vdW  Elec       q    Type
REMARK                         _______ _______ _______ _____ _____    ______ ____
ROOT
ATOM      1  N   UNL     1       1.028   9.888  20.219  0.00  0.00    +0.000 NA
ATOM      2  C   UNL     1       1.451   8.691  19.928  0.00  0.00    +0.000 A 
ATOM      3  S   UNL     1       1.134   7.250  20.927  0.00  0.00    +0.000 S 
ATOM      4  C   UNL     1       2.240   6.269  19.939  0.00  0.00    +0.000 A 
ATOM      5  C   UNL     1       2.569   4.934  20.180  0.00  0.00    +0.000 A 
ATOM      6  C   UNL     1       1.877   4.086  21.206  0.00  0.00    +0.000 C 
ATOM      7  C   UNL     1       3.594   4.387  19.410  0.00  0.00    +0.000 A 
ATOM      8  C   UNL     1       4.177   5.137  18.381  0.00  0.00    +0.000 A 
ATOM      9  C   UNL     1       3.753   6.444  18.073  0.00  0.00    +0.000 A 
ATOM     10  C   UNL     1       2.754   7.030  18.861  0.00  0.00    +0.000 A 
ATOM     11  N   UNL     1       2.185   8.329  18.787  0.00  0.00    +0.000 N 
ATOM     12  C   UNL     1       1.727   8.805  17.495  0.00  0.00    +0.000 C 
ENDROOT
BRANCH   1  13
ATOM     13  C   UNL     1       0.712  10.122  21.542  0.00  0.00    +0.000 C 
ATOM     14  O   UNL     1       1.447   9.791  22.474  0.00  0.00    +0.000 OA
BRANCH  13  18
ATOM     15  C   UNL     1      -2.870  12.376  22.283  0.00  0.00    +0.000 A 
ATOM     16  C   UNL     1      -2.206  12.461  21.063  0.00  0.00    +0.000 A 
ATOM     17  C   UNL     1      -1.019  11.758  20.865  0.00  0.00    +0.000 A 
ATOM     18  C   UNL     1      -0.468  10.966  21.890  0.00  0.00    +0.000 A 
ATOM     19  C   UNL     1      -1.093  10.946  23.138  0.00  0.00    +0.000 A 
ATOM     20  C   UNL     1      -2.295  11.651  23.331  0.00  0.00    +0.000 A 
BRANCH  15  22
ATOM     21  C   UNL     1      -5.004  12.735  21.356  0.00  0.00    +0.000 C 
ATOM     22  O   UNL     1      -4.047  13.070  22.354  0.00  0.00    +0.000 OA
ENDBRANCH  15  22
ENDBRANCH  13  18
ENDBRANCH   1  13
BRANCH   9  23
ATOM     23  O   UNL     1       4.376   6.935  16.960  0.00  0.00    +0.000 OA
ATOM     24  C   UNL     1       5.164   6.066  16.162  0.00  0.00    +0.000 C 
ENDBRANCH   9  23
TORSDOF 4
ENDMDL
