MODEL 1
REMARK VINA RESULT:      -7.7      0.000      0.000
REMARK  Name = 
REMARK  7 active torsions:
REMARK  status: ('A' for Active; 'I' for Inactive)
REMARK    1  A    between atoms: C_1  and  O_2
REMARK    2  A    between atoms: O_2  and  C_3
REMARK    3  A    between atoms: C_6  and  C_7
REMARK    4  A    between atoms: C_9  and  C_10
REMARK    5  A    between atoms: N_14  and  C_15
REMARK    6  A    between atoms: C_15  and  C_16
REMARK    7  A    between atoms: C_15  and  C_17
REMARK                            x       y       z     vdW  Elec       q    Type
REMARK                         _______ _______ _______ _____ _____    ______ ____
ROOT
ATOM      1  C   UNL     1       2.634   7.193  18.448  0.00  0.00    +0.000 A 
ATOM      2  N   UNL     1       3.635   7.333  17.538  0.00  0.00    +0.000 NA
ATOM      3  C   UNL     1       4.271   6.222  17.113  0.00  0.00    +0.000 A 
ATOM      4  C   UNL     1       5.339   6.380  16.077  0.00  0.00    +0.000 C 
ATOM      5  C   UNL     1       3.919   4.998  17.603  0.00  0.00    +0.000 A 
ATOM      6  C   UNL     1       2.876   4.950  18.502  0.00  0.00    +0.000 A 
ATOM      7  N   UNL     1       2.207   6.013  18.946  0.00  0.00    +0.000 NA
ATOM      8  N   UNL     1       2.640   3.615  18.849  0.00  0.00    +0.000 N 
ATOM      9  C   UNL     1       3.562   2.769  18.226  0.00  0.00    +0.000 C 
ATOM     10  O   UNL     1       3.660   1.558  18.337  0.00  0.00    +0.000 OA
ATOM     11  C   UNL     1       4.437   3.636  17.326  0.00  0.00    +0.000 C 
ENDROOT
BRANCH   1  15
ATOM     12  C   UNL     1       0.731  10.817  19.842  0.00  0.00    +0.000 A 
ATOM     13  C   UNL     1       0.819   9.701  20.670  0.00  0.00    +0.000 A 
ATOM     14  C   UNL     1       1.440   8.530  20.218  0.00  0.00    +0.000 A 
ATOM     15  C   UNL     1       1.977   8.432  18.919  0.00  0.00    +0.000 A 
ATOM     16  C   UNL     1       1.850   9.564  18.095  0.00  0.00    +0.000 A 
ATOM     17  C   UNL     1       1.235  10.742  18.546  0.00  0.00    +0.000 A 
BRANCH  12  19
ATOM     18  C   UNL     1      -0.482  11.697  21.670  0.00  0.00    +0.000 C 
ATOM     19  O   UNL     1       0.104  11.901  20.390  0.00  0.00    +0.000 OA
ENDBRANCH  12  19
ENDBRANCH   1  15
BRANCH   8  20
ATOM     20  C   UNL     1       1.506   3.186  19.658  0.00  0.00    +0.000 C 
ATOM     21  C   UNL     1       0.638   2.188  18.885  0.00  0.00    +0.000 C 
ATOM     22  C   UNL     1       1.940   2.591  20.997  0.00  0.00    +0.000 C 
ENDBRANCH   8  20
TORSDOF 3
ENDMDL
MODEL 2
REMARK VINA RESULT:      -7.6      0.543      1.203
REMARK  Name = 
REMARK  7 active torsions:
REMARK  status: ('A' for Active; 'I' for Inactive)
REMARK    1  A    between atoms: C_1  and  O_2
REMARK    2  A    between atoms: O_2  and  C_3
REMARK    3  A    between atoms: C_6  and  C_7
REMARK    4  A    between atoms: C_9  and  C_10
REMARK    5  A    between atoms: N_14  and  C_15
REMARK    6  A    between atoms: C_15  and  C_16
REMARK    7  A    between atoms: C_15  and  C_17
REMARK                            x       y       z     vdW  Elec       q    Type
REMARK                         _______ _______ _______ _____ _____    ______ ____
ROOT
ATOM      1  C   UNL     1       2.617   7.226  18.435  0.00  0.00    +0.000 A 
ATOM      2  N   UNL     1       3.634   7.361  17.542  0.00  0.00    +0.000 NA
ATOM      3  C   UNL     1       4.287   6.250  17.145  0.00  0.00    +0.000 A 
ATOM      4  C   UNL     1       5.372   6.403  16.126  0.00  0.00    +0.000 C 
ATOM      5  C   UNL     1       3.936   5.030  17.646  0.00  0.00    +0.000 A 
ATOM      6  C   UNL     1       2.877   4.986  18.527  0.00  0.00    +0.000 A 
ATOM      7  N   UNL     1       2.192   6.049  18.943  0.00  0.00    +0.000 NA
ATOM      8  N   UNL     1       2.647   3.654  18.888  0.00  0.00    +0.000 N 
ATOM      9  C   UNL     1       3.587   2.808  18.295  0.00  0.00    +0.000 C 
ATOM     10  O   UNL     1       3.693   1.598  18.425  0.00  0.00    +0.000 OA
ATOM     11  C   UNL     1       4.471   3.669  17.398  0.00  0.00    +0.000 C 
ENDROOT
BRANCH   1  15
ATOM     12  C   UNL     1       0.629  10.848  19.712  0.00  0.00    +0.000 A 
ATOM     13  C   UNL     1       1.187  10.758  18.439  0.00  0.00    +0.000 A 
ATOM     14  C   UNL     1       1.826   9.582  18.026  0.00  0.00    +0.000 A 
ATOM     15  C   UNL     1       1.942   8.466  18.877  0.00  0.00    +0.000 A 
ATOM     16  C   UNL     1       1.395   8.593  20.167  0.00  0.00    +0.000 A 
ATOM     17  C   UNL     1       0.747   9.767  20.582  0.00  0.00    +0.000 A 
BRANCH  12  19
ATOM     18  C   UNL     1      -0.649  12.674  18.926  0.00  0.00    +0.000 C 
ATOM     19  O   UNL     1       0.032  12.041  20.004  0.00  0.00    +0.000 OA
ENDBRANCH  12  19
ENDBRANCH   1  15
BRANCH   8  20
ATOM     20  C   UNL     1       1.501   3.227  19.684  0.00  0.00    +0.000 C 
ATOM     21  C   UNL     1       0.654   2.214  18.908  0.00  0.00    +0.000 C 
ATOM     22  C   UNL     1       1.917   2.650  21.036  0.00  0.00    +0.000 C 
ENDBRANCH   8  20
TORSDOF 3
ENDMDL
MODEL 3
REMARK VINA RESULT:      -7.6      0.792      1.157
REMARK  Name = 
REMARK  7 active torsions:
REMARK  status: ('A' for Active; 'I' for Inactive)
REMARK    1  A    between atoms: C_1  and  O_2
REMARK    2  A    between atoms: O_2  and  C_3
REMARK    3  A    between atoms: C_6  and  C_7
REMARK    4  A    between atoms: C_9  and  C_10
REMARK    5  A    between atoms: N_14  and  C_15
REMARK    6  A    between atoms: C_15  and  C_16
REMARK    7  A    between atoms: C_15  and  C_17
REMARK                            x       y       z     vdW  Elec       q    Type
REMARK                         _______ _______ _______ _____ _____    ______ ____
ROOT
ATOM      1  C   UNL     1       2.525   6.813  18.968  0.00  0.00    +0.000 A 
ATOM      2  N   UNL     1       3.413   7.139  17.991  0.00  0.00    +0.000 NA
ATOM      3  C   UNL     1       4.076   6.142  17.372  0.00  0.00    +0.000 A 
ATOM      4  C   UNL     1       5.015   6.507  16.265  0.00  0.00    +0.000 C 
ATOM      5  C   UNL     1       3.863   4.844  17.736  0.00  0.00    +0.000 A 
ATOM      6  C   UNL     1       2.926   4.606  18.718  0.00  0.00    +0.000 A 
ATOM      7  N   UNL     1       2.236   5.551  19.354  0.00  0.00    +0.000 NA
ATOM      8  N   UNL     1       2.822   3.224  18.916  0.00  0.00    +0.000 N 
ATOM      9  C   UNL     1       3.729   2.536  18.107  0.00  0.00    +0.000 C 
ATOM     10  O   UNL     1       3.922   1.332  18.056  0.00  0.00    +0.000 OA
ATOM     11  C   UNL     1       4.442   3.571  17.242  0.00  0.00    +0.000 C 
ENDROOT
BRANCH   1  15
ATOM     12  C   UNL     1       0.533  10.081  20.980  0.00  0.00    +0.000 A 
ATOM     13  C   UNL     1       0.828   8.904  21.664  0.00  0.00    +0.000 A 
ATOM     14  C   UNL     1       1.478   7.849  21.011  0.00  0.00    +0.000 A 
ATOM     15  C   UNL     1       1.837   7.930  19.652  0.00  0.00    +0.000 A 
ATOM     16  C   UNL     1       1.503   9.118  18.978  0.00  0.00    +0.000 A 
ATOM     17  C   UNL     1       0.858  10.181  19.630  0.00  0.00    +0.000 A 
BRANCH  12  19
ATOM     18  C   UNL     1      -0.761  10.583  22.894  0.00  0.00    +0.000 C 
ATOM     19  O   UNL     1      -0.102  11.040  21.718  0.00  0.00    +0.000 OA
ENDBRANCH  12  19
ENDBRANCH   1  15
BRANCH   8  20
ATOM     20  C   UNL     1       1.811   2.612  19.772  0.00  0.00    +0.000 C 
ATOM     21  C   UNL     1       1.836   3.240  21.169  0.00  0.00    +0.000 C 
ATOM     22  C   UNL     1       0.410   2.704  19.170  0.00  0.00    +0.000 C 
ENDBRANCH   8  20
TORSDOF 3
ENDMDL
MODEL 4
REMARK VINA RESULT:      -7.6      0.796      1.538
REMARK  Name = 
REMARK  7 active torsions:
REMARK  status: ('A' for Active; 'I' for Inactive)
REMARK    1  A    between atoms: C_1  and  O_2
REMARK    2  A    between atoms: O_2  and  C_3
REMARK    3  A    between atoms: C_6  and  C_7
REMARK    4  A    between atoms: C_9  and  C_10
REMARK    5  A    between atoms: N_14  and  C_15
REMARK    6  A    between atoms: C_15  and  C_16
REMARK    7  A    between atoms: C_15  and  C_17
REMARK                            x       y       z     vdW  Elec       q    Type
REMARK                         _______ _______ _______ _____ _____    ______ ____
ROOT
ATOM      1  C   UNL     1       2.511   6.804  19.062  0.00  0.00    +0.000 A 
ATOM      2  N   UNL     1       3.363   7.110  18.047  0.00  0.00    +0.000 NA
ATOM      3  C   UNL     1       4.019   6.101  17.437  0.00  0.00    +0.000 A 
ATOM      4  C   UNL     1       4.917   6.443  16.290  0.00  0.00    +0.000 C 
ATOM      5  C   UNL     1       3.833   4.814  17.848  0.00  0.00    +0.000 A 
ATOM      6  C   UNL     1       2.931   4.595  18.867  0.00  0.00    +0.000 A 
ATOM      7  N   UNL     1       2.250   5.552  19.495  0.00  0.00    +0.000 NA
ATOM      8  N   UNL     1       2.851   3.219  19.110  0.00  0.00    +0.000 N 
ATOM      9  C   UNL     1       3.740   2.517  18.293  0.00  0.00    +0.000 C 
ATOM     10  O   UNL     1       3.946   1.314  18.273  0.00  0.00    +0.000 OA
ATOM     11  C   UNL     1       4.412   3.532  17.375  0.00  0.00    +0.000 C 
ENDROOT
BRANCH   1  15
ATOM     12  C   UNL     1       0.510  10.105  21.011  0.00  0.00    +0.000 A 
ATOM     13  C   UNL     1       0.869  10.189  19.667  0.00  0.00    +0.000 A 
ATOM     14  C   UNL     1       1.512   9.116  19.037  0.00  0.00    +0.000 A 
ATOM     15  C   UNL     1       1.832   7.934  19.733  0.00  0.00    +0.000 A 
ATOM     16  C   UNL     1       1.484   7.887  21.095  0.00  0.00    +0.000 A 
ATOM     17  C   UNL     1       0.833   8.956  21.729  0.00  0.00    +0.000 A 
BRANCH  12  19
ATOM     18  C   UNL     1      -0.818  11.019  22.739  0.00  0.00    +0.000 C 
ATOM     19  O   UNL     1      -0.112  11.211  21.518  0.00  0.00    +0.000 OA
ENDBRANCH  12  19
ENDBRANCH   1  15
BRANCH   8  20
ATOM     20  C   UNL     1       1.876   2.623  20.016  0.00  0.00    +0.000 C 
ATOM     21  C   UNL     1       2.237   2.927  21.473  0.00  0.00    +0.000 C 
ATOM     22  C   UNL     1       0.449   3.078  19.714  0.00  0.00    +0.000 C 
ENDBRANCH   8  20
TORSDOF 3
ENDMDL
MODEL 5
REMARK VINA RESULT:      -7.3      1.493      3.537
REMARK  Name = 
REMARK  7 active torsions:
REMARK  status: ('A' for Active; 'I' for Inactive)
REMARK    1  A    between atoms: C_1  and  O_2
REMARK    2  A    between atoms: O_2  and  C_3
REMARK    3  A    between atoms: C_6  and  C_7
REMARK    4  A    between atoms: C_9  and  C_10
REMARK    5  A    between atoms: N_14  and  C_15
REMARK    6  A    between atoms: C_15  and  C_16
REMARK    7  A    between atoms: C_15  and  C_17
REMARK                            x       y       z     vdW  Elec       q    Type
REMARK                         _______ _______ _______ _____ _____    ______ ____
ROOT
ATOM      1  C   UNL     1       1.999   6.953  19.979  0.00  0.00    +0.000 A 
ATOM      2  N   UNL     1       1.504   5.812  20.530  0.00  0.00    +0.000 NA
ATOM      3  C   UNL     1       1.963   4.630  20.071  0.00  0.00    +0.000 A 
ATOM      4  C   UNL     1       1.449   3.382  20.717  0.00  0.00    +0.000 C 
ATOM      5  C   UNL     1       2.888   4.595  19.068  0.00  0.00    +0.000 A 
ATOM      6  C   UNL     1       3.350   5.800  18.588  0.00  0.00    +0.000 A 
ATOM      7  N   UNL     1       2.941   6.994  19.012  0.00  0.00    +0.000 NA
ATOM      8  N   UNL     1       4.315   5.553  17.604  0.00  0.00    +0.000 N 
ATOM      9  C   UNL     1       4.461   4.181  17.384  0.00  0.00    +0.000 C 
ATOM     10  O   UNL     1       5.189   3.626  16.576  0.00  0.00    +0.000 OA
ATOM     11  C   UNL     1       3.552   3.463  18.377  0.00  0.00    +0.000 C 
ENDROOT
BRANCH   1  15
ATOM     12  C   UNL     1       0.418  10.697  21.458  0.00  0.00    +0.000 A 
ATOM     13  C   UNL     1       0.577   9.609  22.313  0.00  0.00    +0.000 A 
ATOM     14  C   UNL     1       1.094   8.400  21.833  0.00  0.00    +0.000 A 
ATOM     15  C   UNL     1       1.452   8.233  20.480  0.00  0.00    +0.000 A 
ATOM     16  C   UNL     1       1.255   9.338  19.633  0.00  0.00    +0.000 A 
ATOM     17  C   UNL     1       0.744  10.555  20.111  0.00  0.00    +0.000 A 
BRANCH  12  19
ATOM     18  C   UNL     1      -1.189  11.622  22.923  0.00  0.00    +0.000 C 
ATOM     19  O   UNL     1      -0.094  11.824  22.036  0.00  0.00    +0.000 OA
ENDBRANCH  12  19
ENDBRANCH   1  15
BRANCH   8  20
ATOM     20  C   UNL     1       5.125   6.602  16.996  0.00  0.00    +0.000 C 
ATOM     21  C   UNL     1       6.567   6.537  17.511  0.00  0.00    +0.000 C 
ATOM     22  C   UNL     1       5.100   6.543  15.470  0.00  0.00    +0.000 C 
ENDBRANCH   8  20
TORSDOF 3
ENDMDL
MODEL 6
REMARK VINA RESULT:      -7.2      2.137      3.777
REMARK  Name = 
REMARK  7 active torsions:
REMARK  status: ('A' for Active; 'I' for Inactive)
REMARK    1  A    between atoms: C_1  and  O_2
REMARK    2  A    between atoms: O_2  and  C_3
REMARK    3  A    between atoms: C_6  and  C_7
REMARK    4  A    between atoms: C_9  and  C_10
REMARK    5  A    between atoms: N_14  and  C_15
REMARK    6  A    between atoms: C_15  and  C_16
REMARK    7  A    between atoms: C_15  and  C_17
REMARK                            x       y       z     vdW  Elec       q    Type
REMARK                         _______ _______ _______ _____ _____    ______ ____
ROOT
ATOM      1  C   UNL     1       2.847   6.523  18.748  0.00  0.00    +0.000 A 
ATOM      2  N   UNL     1       2.205   5.420  18.276  0.00  0.00    +0.000 NA
ATOM      3  C   UNL     1       2.932   4.485  17.631  0.00  0.00    +0.000 A 
ATOM      4  C   UNL     1       2.226   3.253  17.158  0.00  0.00    +0.000 C 
ATOM      5  C   UNL     1       4.273   4.661  17.452  0.00  0.00    +0.000 A 
ATOM      6  C   UNL     1       4.843   5.796  17.986  0.00  0.00    +0.000 A 
ATOM      7  N   UNL     1       4.175   6.744  18.640  0.00  0.00    +0.000 NA
ATOM      8  N   UNL     1       6.219   5.770  17.736  0.00  0.00    +0.000 N 
ATOM      9  C   UNL     1       6.568   4.644  16.985  0.00  0.00    +0.000 C 
ATOM     10  O   UNL     1       7.673   4.336  16.568  0.00  0.00    +0.000 OA
ATOM     11  C   UNL     1       5.301   3.818  16.791  0.00  0.00    +0.000 C 
ENDROOT
BRANCH   1  15
ATOM     12  C   UNL     1       0.438   9.518  20.729  0.00  0.00    +0.000 A 
ATOM     13  C   UNL     1       0.785   8.341  21.387  0.00  0.00    +0.000 A 
ATOM     14  C   UNL     1       1.570   7.375  20.745  0.00  0.00    +0.000 A 
ATOM     15  C   UNL     1       2.017   7.546  19.420  0.00  0.00    +0.000 A 
ATOM     16  C   UNL     1       1.628   8.731  18.770  0.00  0.00    +0.000 A 
ATOM     17  C   UNL     1       0.848   9.705  19.412  0.00  0.00    +0.000 A 
BRANCH  12  19
ATOM     18  C   UNL     1      -0.477  10.079  22.835  0.00  0.00    +0.000 C 
ATOM     19  O   UNL     1      -0.329  10.386  21.453  0.00  0.00    +0.000 OA
ENDBRANCH  12  19
ENDBRANCH   1  15
BRANCH   8  20
ATOM     20  C   UNL     1       7.153   6.739  18.299  0.00  0.00    +0.000 C 
ATOM     21  C   UNL     1       8.214   6.034  19.150  0.00  0.00    +0.000 C 
ATOM     22  C   UNL     1       7.817   7.597  17.222  0.00  0.00    +0.000 C 
ENDBRANCH   8  20
TORSDOF 3
ENDMDL
MODEL 7
REMARK VINA RESULT:      -7.1      1.476      3.681
REMARK  Name = 
REMARK  7 active torsions:
REMARK  status: ('A' for Active; 'I' for Inactive)
REMARK    1  A    between atoms: C_1  and  O_2
REMARK    2  A    between atoms: O_2  and  C_3
REMARK    3  A    between atoms: C_6  and  C_7
REMARK    4  A    between atoms: C_9  and  C_10
REMARK    5  A    between atoms: N_14  and  C_15
REMARK    6  A    between atoms: C_15  and  C_16
REMARK    7  A    between atoms: C_15  and  C_17
REMARK                            x       y       z     vdW  Elec       q    Type
REMARK                         _______ _______ _______ _____ _____    ______ ____
ROOT
ATOM      1  C   UNL     1       1.981   6.881  19.964  0.00  0.00    +0.000 A 
ATOM      2  N   UNL     1       1.460   5.728  20.464  0.00  0.00    +0.000 NA
ATOM      3  C   UNL     1       1.924   4.556  19.983  0.00  0.00    +0.000 A 
ATOM      4  C   UNL     1       1.380   3.293  20.573  0.00  0.00    +0.000 C 
ATOM      5  C   UNL     1       2.880   4.543  19.010  0.00  0.00    +0.000 A 
ATOM      6  C   UNL     1       3.368   5.759  18.582  0.00  0.00    +0.000 A 
ATOM      7  N   UNL     1       2.954   6.943  19.030  0.00  0.00    +0.000 NA
ATOM      8  N   UNL     1       4.362   5.533  17.623  0.00  0.00    +0.000 N 
ATOM      9  C   UNL     1       4.504   4.167  17.365  0.00  0.00    +0.000 C 
ATOM     10  O   UNL     1       5.253   3.631  16.564  0.00  0.00    +0.000 OA
ATOM     11  C   UNL     1       3.558   3.427  18.306  0.00  0.00    +0.000 C 
ENDROOT
BRANCH   1  15
ATOM     12  C   UNL     1       0.349  10.587  21.479  0.00  0.00    +0.000 A 
ATOM     13  C   UNL     1       0.709  10.468  20.139  0.00  0.00    +0.000 A 
ATOM     14  C   UNL     1       1.232   9.265  19.650  0.00  0.00    +0.000 A 
ATOM     15  C   UNL     1       1.428   8.150  20.487  0.00  0.00    +0.000 A 
ATOM     16  C   UNL     1       1.083   8.306  21.841  0.00  0.00    +0.000 A 
ATOM     17  C   UNL     1       0.551   9.507  22.335  0.00  0.00    +0.000 A 
BRANCH  12  19
ATOM     18  C   UNL     1      -1.179  11.787  22.827  0.00  0.00    +0.000 C 
ATOM     19  O   UNL     1      -0.150  11.806  21.843  0.00  0.00    +0.000 OA
ENDBRANCH  12  19
ENDBRANCH   1  15
BRANCH   8  20
ATOM     20  C   UNL     1       5.199   6.593  17.074  0.00  0.00    +0.000 C 
ATOM     21  C   UNL     1       6.628   6.488  17.617  0.00  0.00    +0.000 C 
ATOM     22  C   UNL     1       5.209   6.592  15.546  0.00  0.00    +0.000 C 
ENDBRANCH   8  20
TORSDOF 3
ENDMDL
MODEL 8
REMARK VINA RESULT:      -7.0      2.039      3.862
REMARK  Name = 
REMARK  7 active torsions:
REMARK  status: ('A' for Active; 'I' for Inactive)
REMARK    1  A    between atoms: C_1  and  O_2
REMARK    2  A    between atoms: O_2  and  C_3
REMARK    3  A    between atoms: C_6  and  C_7
REMARK    4  A    between atoms: C_9  and  C_10
REMARK    5  A    between atoms: N_14  and  C_15
REMARK    6  A    between atoms: C_15  and  C_16
REMARK    7  A    between atoms: C_15  and  C_17
REMARK                            x       y       z     vdW  Elec       q    Type
REMARK                         _______ _______ _______ _____ _____    ______ ____
ROOT
ATOM      1  C   UNL     1       2.864   6.698  18.485  0.00  0.00    +0.000 A 
ATOM      2  N   UNL     1       2.231   5.565  18.078  0.00  0.00    +0.000 NA
ATOM      3  C   UNL     1       2.976   4.571  17.552  0.00  0.00    +0.000 A 
ATOM      4  C   UNL     1       2.277   3.310  17.152  0.00  0.00    +0.000 C 
ATOM      5  C   UNL     1       4.326   4.719  17.425  0.00  0.00    +0.000 A 
ATOM      6  C   UNL     1       4.884   5.890  17.887  0.00  0.00    +0.000 A 
ATOM      7  N   UNL     1       4.198   6.898  18.424  0.00  0.00    +0.000 NA
ATOM      8  N   UNL     1       6.271   5.831  17.709  0.00  0.00    +0.000 N 
ATOM      9  C   UNL     1       6.640   4.642  17.074  0.00  0.00    +0.000 C 
ATOM     10  O   UNL     1       7.760   4.288  16.741  0.00  0.00    +0.000 OA
ATOM     11  C   UNL     1       5.373   3.813  16.889  0.00  0.00    +0.000 C 
ENDROOT
BRANCH   1  15
ATOM     12  C   UNL     1       0.370   9.864  20.053  0.00  0.00    +0.000 A 
ATOM     13  C   UNL     1       0.765   9.870  18.717  0.00  0.00    +0.000 A 
ATOM     14  C   UNL     1       1.568   8.841  18.211  0.00  0.00    +0.000 A 
ATOM     15  C   UNL     1       2.016   7.784  19.026  0.00  0.00    +0.000 A 
ATOM     16  C   UNL     1       1.627   7.817  20.377  0.00  0.00    +0.000 A 
ATOM     17  C   UNL     1       0.816   8.842  20.888  0.00  0.00    +0.000 A 
BRANCH  12  19
ATOM     18  C   UNL     1      -0.206  11.394  21.761  0.00  0.00    +0.000 C 
ATOM     19  O   UNL     1      -0.411  10.918  20.435  0.00  0.00    +0.000 OA
ENDBRANCH  12  19
ENDBRANCH   1  15
BRANCH   8  20
ATOM     20  C   UNL     1       7.189   6.836  18.231  0.00  0.00    +0.000 C 
ATOM     21  C   UNL     1       8.244   6.186  19.133  0.00  0.00    +0.000 C 
ATOM     22  C   UNL     1       7.861   7.642  17.120  0.00  0.00    +0.000 C 
ENDBRANCH   8  20
TORSDOF 3
ENDMDL
MODEL 9
REMARK VINA RESULT:      -6.9      2.149      7.128
REMARK  Name = 
REMARK  7 active torsions:
REMARK  status: ('A' for Active; 'I' for Inactive)
REMARK    1  A    between atoms: C_1  and  O_2
REMARK    2  A    between atoms: O_2  and  C_3
REMARK    3  A    between atoms: C_6  and  C_7
REMARK    4  A    between atoms: C_9  and  C_10
REMARK    5  A    between atoms: N_14  and  C_15
REMARK    6  A    between atoms: C_15  and  C_16
REMARK    7  A    between atoms: C_15  and  C_17
REMARK                            x       y       z     vdW  Elec       q    Type
REMARK                         _______ _______ _______ _____ _____    ______ ____
ROOT
ATOM      1  C   UNL     1       3.450   6.065  18.150  0.00  0.00    +0.000 A 
ATOM      2  N   UNL     1       3.273   5.200  19.185  0.00  0.00    +0.000 NA
ATOM      3  C   UNL     1       2.510   5.594  20.224  0.00  0.00    +0.000 A 
ATOM      4  C   UNL     1       2.282   4.619  21.335  0.00  0.00    +0.000 C 
ATOM      5  C   UNL     1       1.948   6.838  20.230  0.00  0.00    +0.000 A 
ATOM      6  C   UNL     1       2.160   7.637  19.128  0.00  0.00    +0.000 A 
ATOM      7  N   UNL     1       2.894   7.293  18.072  0.00  0.00    +0.000 NA
ATOM      8  N   UNL     1       1.471   8.842  19.306  0.00  0.00    +0.000 N 
ATOM      9  C   UNL     1       0.842   8.876  20.553  0.00  0.00    +0.000 C 
ATOM     10  O   UNL     1       0.189   9.788  21.036  0.00  0.00    +0.000 OA
ATOM     11  C   UNL     1       1.085   7.527  21.221  0.00  0.00    +0.000 C 
ENDROOT
BRANCH   1  15
ATOM     12  C   UNL     1       5.974   4.743  14.897  0.00  0.00    +0.000 A 
ATOM     13  C   UNL     1       5.372   3.818  15.747  0.00  0.00    +0.000 A 
ATOM     14  C   UNL     1       4.551   4.248  16.796  0.00  0.00    +0.000 A 
ATOM     15  C   UNL     1       4.319   5.616  17.040  0.00  0.00    +0.000 A 
ATOM     16  C   UNL     1       4.961   6.529  16.185  0.00  0.00    +0.000 A 
ATOM     17  C   UNL     1       5.779   6.103  15.127  0.00  0.00    +0.000 A 
BRANCH  12  19
ATOM     18  C   UNL     1       6.055   3.547  12.860  0.00  0.00    +0.000 C 
ATOM     19  O   UNL     1       6.753   4.208  13.910  0.00  0.00    +0.000 OA
ENDBRANCH  12  19
ENDBRANCH   1  15
BRANCH   8  20
ATOM     20  C   UNL     1       1.349   9.855  18.264  0.00  0.00    +0.000 C 
ATOM     21  C   UNL     1      -0.108   9.989  17.810  0.00  0.00    +0.000 C 
ATOM     22  C   UNL     1       1.897  11.211  18.706  0.00  0.00    +0.000 C 
ENDBRANCH   8  20
TORSDOF 3
ENDMDL
