MODEL 1
REMARK VINA RESULT:      -6.4      0.000      0.000
REMARK  Name = 
REMARK  19 active torsions:
REMARK  status: ('A' for Active; 'I' for Inactive)
REMARK    1  A    between atoms: C_1  and  C_2
REMARK    2  A    between atoms: C_2  and  O_3
REMARK    3  A    between atoms: O_3  and  C_4
REMARK    4  A    between atoms: C_4  and  C_6
REMARK    5  A    between atoms: C_6  and  C_18
REMARK    6  A    between atoms: C_7  and  C_8
REMARK    7  A    between atoms: C_11  and  O_12
REMARK    8  A    between atoms: O_12  and  C_13
REMARK    9  A    between atoms: C_14  and  O_15
REMARK   10  A    between atoms: O_15  and  C_16
REMARK   11  A    between atoms: C_18  and  C_30
REMARK   12  A    between atoms: C_19  and  C_20
REMARK   13  A    between atoms: C_23  and  O_24
REMARK   14  A    between atoms: O_24  and  C_25
REMARK   15  A    between atoms: C_26  and  O_27
REMARK   16  A    between atoms: O_27  and  C_28
REMARK   17  A    between atoms: C_30  and  O_32
REMARK   18  A    between atoms: O_32  and  C_33
REMARK   19  A    between atoms: C_33  and  C_34
REMARK                            x       y       z     vdW  Elec       q    Type
REMARK                         _______ _______ _______ _____ _____    ______ ____
ROOT
ATOM      1  C   UNL     1       2.578   7.325  18.803  0.00  0.00    +0.000 C 
ATOM      2  C   UNL     1       3.608   7.720  18.012  0.00  0.00    +0.000 C 
ENDROOT
BRANCH   2   3
ATOM      3  C   UNL     1       4.585   6.847  17.328  0.00  0.00    +0.000 A 
ATOM      4  C   UNL     1       4.561   6.662  15.943  0.00  0.00    +0.000 A 
ATOM      5  C   UNL     1       5.557   5.897  15.327  0.00  0.00    +0.000 A 
ATOM      6  C   UNL     1       6.591   5.317  16.076  0.00  0.00    +0.000 A 
ATOM      7  C   UNL     1       6.602   5.471  17.471  0.00  0.00    +0.000 A 
ATOM      8  C   UNL     1       5.589   6.225  18.085  0.00  0.00    +0.000 A 
BRANCH   6   9
ATOM      9  O   UNL     1       7.488   4.608  15.317  0.00  0.00    +0.000 OA
ATOM     10  C   UNL     1       7.344   4.711  13.901  0.00  0.00    +0.000 C 
ENDBRANCH   6   9
BRANCH   7  11
ATOM     11  O   UNL     1       7.575   4.822  18.189  0.00  0.00    +0.000 OA
ATOM     12  C   UNL     1       7.986   5.451  19.395  0.00  0.00    +0.000 C 
ENDBRANCH   7  11
ENDBRANCH   2   3
BRANCH   1  13
ATOM     13  C   UNL     1       2.426   5.853  19.125  0.00  0.00    +0.000 C 
ATOM     14  O   UNL     1       2.851   5.303  20.130  0.00  0.00    +0.000 OA
BRANCH  13  15
ATOM     15  O   UNL     1       1.749   5.188  18.155  0.00  0.00    +0.000 OA
BRANCH  15  17
ATOM     16  C   UNL     1       3.073   3.432  17.183  0.00  0.00    +0.000 C 
ATOM     17  C   UNL     1       1.950   3.766  18.139  0.00  0.00    +0.000 C 
ENDBRANCH  15  17
ENDBRANCH  13  15
ENDBRANCH   1  13
BRANCH   1  18
ATOM     18  C   UNL     1       1.620   8.328  19.341  0.00  0.00    +0.000 C 
ATOM     19  C   UNL     1       1.236   9.381  18.574  0.00  0.00    +0.000 C 
BRANCH  19  20
ATOM     20  C   UNL     1       0.385  10.523  18.964  0.00  0.00    +0.000 A 
ATOM     21  C   UNL     1      -1.009  10.456  18.932  0.00  0.00    +0.000 A 
ATOM     22  C   UNL     1      -1.771  11.557  19.332  0.00  0.00    +0.000 A 
ATOM     23  C   UNL     1      -1.162  12.740  19.782  0.00  0.00    +0.000 A 
ATOM     24  C   UNL     1       0.239  12.821  19.803  0.00  0.00    +0.000 A 
ATOM     25  C   UNL     1       0.998  11.713  19.385  0.00  0.00    +0.000 A 
BRANCH  23  26
ATOM     26  O   UNL     1      -2.053  13.728  20.121  0.00  0.00    +0.000 OA
ATOM     27  C   UNL     1      -3.271  13.304  20.725  0.00  0.00    +0.000 C 
ENDBRANCH  23  26
BRANCH  24  28
ATOM     28  O   UNL     1       0.816  14.012  20.155  0.00  0.00    +0.000 OA
ATOM     29  C   UNL     1       1.002  14.956  19.107  0.00  0.00    +0.000 C 
ENDBRANCH  24  28
ENDBRANCH  19  20
BRANCH  18  30
ATOM     30  C   UNL     1       1.062   8.198  20.741  0.00  0.00    +0.000 C 
ATOM     31  O   UNL     1       0.298   7.325  21.122  0.00  0.00    +0.000 OA
BRANCH  30  32
ATOM     32  O   UNL     1       1.521   9.190  21.551  0.00  0.00    +0.000 OA
BRANCH  32  33
ATOM     33  C   UNL     1       0.833   9.330  22.803  0.00  0.00    +0.000 C 
ATOM     34  C   UNL     1      -0.321  10.288  22.616  0.00  0.00    +0.000 C 
ENDBRANCH  32  33
ENDBRANCH  30  32
ENDBRANCH  18  30
ENDBRANCH   1  18
TORSDOF 13
ENDMDL
MODEL 2
REMARK VINA RESULT:      -6.2      0.756      1.681
REMARK  Name = 
REMARK  19 active torsions:
REMARK  status: ('A' for Active; 'I' for Inactive)
REMARK    1  A    between atoms: C_1  and  C_2
REMARK    2  A    between atoms: C_2  and  O_3
REMARK    3  A    between atoms: O_3  and  C_4
REMARK    4  A    between atoms: C_4  and  C_6
REMARK    5  A    between atoms: C_6  and  C_18
REMARK    6  A    between atoms: C_7  and  C_8
REMARK    7  A    between atoms: C_11  and  O_12
REMARK    8  A    between atoms: O_12  and  C_13
REMARK    9  A    between atoms: C_14  and  O_15
REMARK   10  A    between atoms: O_15  and  C_16
REMARK   11  A    between atoms: C_18  and  C_30
REMARK   12  A    between atoms: C_19  and  C_20
REMARK   13  A    between atoms: C_23  and  O_24
REMARK   14  A    between atoms: O_24  and  C_25
REMARK   15  A    between atoms: C_26  and  O_27
REMARK   16  A    between atoms: O_27  and  C_28
REMARK   17  A    between atoms: C_30  and  O_32
REMARK   18  A    between atoms: O_32  and  C_33
REMARK   19  A    between atoms: C_33  and  C_34
REMARK                            x       y       z     vdW  Elec       q    Type
REMARK                         _______ _______ _______ _____ _____    ______ ____
ROOT
ATOM      1  C   UNL     1       2.679   7.363  18.721  0.00  0.00    +0.000 C 
ATOM      2  C   UNL     1       3.670   7.761  17.882  0.00  0.00    +0.000 C 
ENDROOT
BRANCH   2   3
ATOM      3  C   UNL     1       4.648   6.893  17.195  0.00  0.00    +0.000 A 
ATOM      4  C   UNL     1       4.494   6.530  15.854  0.00  0.00    +0.000 A 
ATOM      5  C   UNL     1       5.489   5.780  15.218  0.00  0.00    +0.000 A 
ATOM      6  C   UNL     1       6.650   5.392  15.902  0.00  0.00    +0.000 A 
ATOM      7  C   UNL     1       6.797   5.725  17.257  0.00  0.00    +0.000 A 
ATOM      8  C   UNL     1       5.786   6.463  17.894  0.00  0.00    +0.000 A 
BRANCH   6   9
ATOM      9  O   UNL     1       7.526   4.670  15.130  0.00  0.00    +0.000 OA
ATOM     10  C   UNL     1       7.159   4.475  13.765  0.00  0.00    +0.000 C 
ENDBRANCH   6   9
BRANCH   7  11
ATOM     11  O   UNL     1       7.900   5.259  17.926  0.00  0.00    +0.000 OA
ATOM     12  C   UNL     1       7.980   5.586  19.307  0.00  0.00    +0.000 C 
ENDBRANCH   7  11
ENDBRANCH   2   3
BRANCH   1  13
ATOM     13  C   UNL     1       2.581   5.899  19.096  0.00  0.00    +0.000 C 
ATOM     14  O   UNL     1       3.127   5.380  20.058  0.00  0.00    +0.000 OA
BRANCH  13  15
ATOM     15  O   UNL     1       1.802   5.204  18.229  0.00  0.00    +0.000 OA
BRANCH  15  17
ATOM     16  C   UNL     1       1.614   2.808  18.291  0.00  0.00    +0.000 C 
ATOM     17  C   UNL     1       2.382   3.986  17.735  0.00  0.00    +0.000 C 
ENDBRANCH  15  17
ENDBRANCH  13  15
ENDBRANCH   1  13
BRANCH   1  18
ATOM     18  C   UNL     1       1.709   8.357  19.258  0.00  0.00    +0.000 C 
ATOM     19  C   UNL     1       1.331   9.417  18.498  0.00  0.00    +0.000 C 
BRANCH  19  20
ATOM     20  C   UNL     1       0.470  10.551  18.890  0.00  0.00    +0.000 A 
ATOM     21  C   UNL     1       0.987  11.709  19.474  0.00  0.00    +0.000 A 
ATOM     22  C   UNL     1       0.133  12.764  19.807  0.00  0.00    +0.000 A 
ATOM     23  C   UNL     1      -1.247  12.692  19.556  0.00  0.00    +0.000 A 
ATOM     24  C   UNL     1      -1.776  11.525  18.983  0.00  0.00    +0.000 A 
ATOM     25  C   UNL     1      -0.911  10.462  18.665  0.00  0.00    +0.000 A 
BRANCH  23  26
ATOM     26  O   UNL     1      -1.942  13.806  19.958  0.00  0.00    +0.000 OA
ATOM     27  C   UNL     1      -2.296  13.871  21.335  0.00  0.00    +0.000 C 
ENDBRANCH  23  26
BRANCH  24  28
ATOM     28  O   UNL     1      -3.134  11.434  18.831  0.00  0.00    +0.000 OA
ATOM     29  C   UNL     1      -3.595  10.635  17.747  0.00  0.00    +0.000 C 
ENDBRANCH  24  28
ENDBRANCH  19  20
BRANCH  18  30
ATOM     30  C   UNL     1       1.133   8.208  20.649  0.00  0.00    +0.000 C 
ATOM     31  O   UNL     1       0.359   7.334  21.006  0.00  0.00    +0.000 OA
BRANCH  30  32
ATOM     32  O   UNL     1       1.589   9.183  21.480  0.00  0.00    +0.000 OA
BRANCH  32  33
ATOM     33  C   UNL     1       0.901   9.292  22.736  0.00  0.00    +0.000 C 
ATOM     34  C   UNL     1      -0.247  10.262  22.576  0.00  0.00    +0.000 C 
ENDBRANCH  32  33
ENDBRANCH  30  32
ENDBRANCH  18  30
ENDBRANCH   1  18
TORSDOF 13
ENDMDL
MODEL 3
REMARK VINA RESULT:      -6.1      1.502      2.418
REMARK  Name = 
REMARK  19 active torsions:
REMARK  status: ('A' for Active; 'I' for Inactive)
REMARK    1  A    between atoms: C_1  and  C_2
REMARK    2  A    between atoms: C_2  and  O_3
REMARK    3  A    between atoms: O_3  and  C_4
REMARK    4  A    between atoms: C_4  and  C_6
REMARK    5  A    between atoms: C_6  and  C_18
REMARK    6  A    between atoms: C_7  and  C_8
REMARK    7  A    between atoms: C_11  and  O_12
REMARK    8  A    between atoms: O_12  and  C_13
REMARK    9  A    between atoms: C_14  and  O_15
REMARK   10  A    between atoms: O_15  and  C_16
REMARK   11  A    between atoms: C_18  and  C_30
REMARK   12  A    between atoms: C_19  and  C_20
REMARK   13  A    between atoms: C_23  and  O_24
REMARK   14  A    between atoms: O_24  and  C_25
REMARK   15  A    between atoms: C_26  and  O_27
REMARK   16  A    between atoms: O_27  and  C_28
REMARK   17  A    between atoms: C_30  and  O_32
REMARK   18  A    between atoms: O_32  and  C_33
REMARK   19  A    between atoms: C_33  and  C_34
REMARK                            x       y       z     vdW  Elec       q    Type
REMARK                         _______ _______ _______ _____ _____    ______ ____
ROOT
ATOM      1  C   UNL     1       2.638   7.507  18.752  0.00  0.00    +0.000 C 
ATOM      2  C   UNL     1       3.715   7.805  17.981  0.00  0.00    +0.000 C 
ENDROOT
BRANCH   2   3
ATOM      3  C   UNL     1       4.607   6.845  17.298  0.00  0.00    +0.000 A 
ATOM      4  C   UNL     1       4.550   6.642  15.917  0.00  0.00    +0.000 A 
ATOM      5  C   UNL     1       5.472   5.790  15.300  0.00  0.00    +0.000 A 
ATOM      6  C   UNL     1       6.466   5.139  16.045  0.00  0.00    +0.000 A 
ATOM      7  C   UNL     1       6.509   5.312  17.437  0.00  0.00    +0.000 A 
ATOM      8  C   UNL     1       5.569   6.155  18.052  0.00  0.00    +0.000 A 
BRANCH   6   9
ATOM      9  O   UNL     1       7.292   4.348  15.286  0.00  0.00    +0.000 OA
ATOM     10  C   UNL     1       6.978   4.251  13.897  0.00  0.00    +0.000 C 
ENDBRANCH   6   9
BRANCH   7  11
ATOM     11  O   UNL     1       7.435   4.597  18.153  0.00  0.00    +0.000 OA
ATOM     12  C   UNL     1       8.092   5.297  19.202  0.00  0.00    +0.000 C 
ENDBRANCH   7  11
ENDBRANCH   2   3
BRANCH   1  13
ATOM     13  C   UNL     1       2.331   6.054  19.050  0.00  0.00    +0.000 C 
ATOM     14  O   UNL     1       2.434   5.523  20.146  0.00  0.00    +0.000 OA
BRANCH  13  15
ATOM     15  O   UNL     1       1.917   5.385  17.945  0.00  0.00    +0.000 OA
BRANCH  15  17
ATOM     16  C   UNL     1       3.004   3.393  17.150  0.00  0.00    +0.000 C 
ATOM     17  C   UNL     1       1.934   3.954  18.060  0.00  0.00    +0.000 C 
ENDBRANCH  15  17
ENDBRANCH  13  15
ENDBRANCH   1  13
BRANCH   1  18
ATOM     18  C   UNL     1       1.779   8.596  19.290  0.00  0.00    +0.000 C 
ATOM     19  C   UNL     1       1.565   8.695  20.627  0.00  0.00    +0.000 C 
BRANCH  19  20
ATOM     20  C   UNL     1       0.670   9.634  21.334  0.00  0.00    +0.000 A 
ATOM     21  C   UNL     1      -0.147   9.228  22.391  0.00  0.00    +0.000 A 
ATOM     22  C   UNL     1      -0.960  10.159  23.043  0.00  0.00    +0.000 A 
ATOM     23  C   UNL     1      -0.967  11.511  22.664  0.00  0.00    +0.000 A 
ATOM     24  C   UNL     1      -0.160  11.925  21.594  0.00  0.00    +0.000 A 
ATOM     25  C   UNL     1       0.644  10.978  20.933  0.00  0.00    +0.000 A 
BRANCH  23  26
ATOM     26  O   UNL     1      -1.832  12.287  23.396  0.00  0.00    +0.000 OA
ATOM     27  C   UNL     1      -3.185  12.321  22.952  0.00  0.00    +0.000 C 
ENDBRANCH  23  26
BRANCH  24  28
ATOM     28  O   UNL     1      -0.249  13.226  21.177  0.00  0.00    +0.000 OA
ATOM     29  C   UNL     1       0.713  14.127  21.714  0.00  0.00    +0.000 C 
ENDBRANCH  24  28
ENDBRANCH  19  20
BRANCH  18  30
ATOM     30  C   UNL     1       1.130   9.604  18.367  0.00  0.00    +0.000 C 
ATOM     31  O   UNL     1       1.662  10.614  17.934  0.00  0.00    +0.000 OA
BRANCH  30  32
ATOM     32  O   UNL     1      -0.146   9.246  18.062  0.00  0.00    +0.000 OA
BRANCH  32  33
ATOM     33  C   UNL     1      -1.085  10.329  17.975  0.00  0.00    +0.000 C 
ATOM     34  C   UNL     1      -2.093  10.010  16.895  0.00  0.00    +0.000 C 
ENDBRANCH  32  33
ENDBRANCH  30  32
ENDBRANCH  18  30
ENDBRANCH   1  18
TORSDOF 13
ENDMDL
MODEL 4
REMARK VINA RESULT:      -6.1      0.821      9.050
REMARK  Name = 
REMARK  19 active torsions:
REMARK  status: ('A' for Active; 'I' for Inactive)
REMARK    1  A    between atoms: C_1  and  C_2
REMARK    2  A    between atoms: C_2  and  O_3
REMARK    3  A    between atoms: O_3  and  C_4
REMARK    4  A    between atoms: C_4  and  C_6
REMARK    5  A    between atoms: C_6  and  C_18
REMARK    6  A    between atoms: C_7  and  C_8
REMARK    7  A    between atoms: C_11  and  O_12
REMARK    8  A    between atoms: O_12  and  C_13
REMARK    9  A    between atoms: C_14  and  O_15
REMARK   10  A    between atoms: O_15  and  C_16
REMARK   11  A    between atoms: C_18  and  C_30
REMARK   12  A    between atoms: C_19  and  C_20
REMARK   13  A    between atoms: C_23  and  O_24
REMARK   14  A    between atoms: O_24  and  C_25
REMARK   15  A    between atoms: C_26  and  O_27
REMARK   16  A    between atoms: O_27  and  C_28
REMARK   17  A    between atoms: C_30  and  O_32
REMARK   18  A    between atoms: O_32  and  C_33
REMARK   19  A    between atoms: C_33  and  C_34
REMARK                            x       y       z     vdW  Elec       q    Type
REMARK                         _______ _______ _______ _____ _____    ______ ____
ROOT
ATOM      1  C   UNL     1       1.740   8.349  19.330  0.00  0.00    +0.000 C 
ATOM      2  C   UNL     1       1.367   9.419  18.581  0.00  0.00    +0.000 C 
ENDROOT
BRANCH   2   3
ATOM      3  C   UNL     1       0.492  10.532  19.003  0.00  0.00    +0.000 A 
ATOM      4  C   UNL     1       1.006  11.680  19.613  0.00  0.00    +0.000 A 
ATOM      5  C   UNL     1       0.155  12.747  19.916  0.00  0.00    +0.000 A 
ATOM      6  C   UNL     1      -1.212  12.692  19.608  0.00  0.00    +0.000 A 
ATOM      7  C   UNL     1      -1.742  11.529  19.026  0.00  0.00    +0.000 A 
ATOM      8  C   UNL     1      -0.883  10.454  18.740  0.00  0.00    +0.000 A 
BRANCH   6   9
ATOM      9  O   UNL     1      -1.902  13.824  19.964  0.00  0.00    +0.000 OA
ATOM     10  C   UNL     1      -1.258  14.694  20.894  0.00  0.00    +0.000 C 
ENDBRANCH   6   9
BRANCH   7  11
ATOM     11  O   UNL     1      -3.095  11.466  18.815  0.00  0.00    +0.000 OA
ATOM     12  C   UNL     1      -3.527  10.593  17.779  0.00  0.00    +0.000 C 
ENDBRANCH   7  11
ENDBRANCH   2   3
BRANCH   1  13
ATOM     13  C   UNL     1       1.153   8.186  20.716  0.00  0.00    +0.000 C 
ATOM     14  O   UNL     1       0.348   7.327  21.045  0.00  0.00    +0.000 OA
BRANCH  13  15
ATOM     15  O   UNL     1       1.627   9.119  21.581  0.00  0.00    +0.000 OA
BRANCH  15  17
ATOM     16  C   UNL     1      -0.300  10.150  22.582  0.00  0.00    +0.000 C 
ATOM     17  C   UNL     1       0.887   9.242  22.806  0.00  0.00    +0.000 C 
ENDBRANCH  15  17
ENDBRANCH  13  15
ENDBRANCH   1  13
BRANCH   1  18
ATOM     18  C   UNL     1       2.710   7.359  18.789  0.00  0.00    +0.000 C 
ATOM     19  C   UNL     1       3.678   7.757  17.924  0.00  0.00    +0.000 C 
BRANCH  19  20
ATOM     20  C   UNL     1       4.656   6.914  17.208  0.00  0.00    +0.000 A 
ATOM     21  C   UNL     1       4.478   6.540  15.874  0.00  0.00    +0.000 A 
ATOM     22  C   UNL     1       5.444   5.759  15.234  0.00  0.00    +0.000 A 
ATOM     23  C   UNL     1       6.608   5.345  15.903  0.00  0.00    +0.000 A 
ATOM     24  C   UNL     1       6.786   5.704  17.247  0.00  0.00    +0.000 A 
ATOM     25  C   UNL     1       5.802   6.478  17.889  0.00  0.00    +0.000 A 
BRANCH  23  26
ATOM     26  O   UNL     1       7.443   4.572  15.135  0.00  0.00    +0.000 OA
ATOM     27  C   UNL     1       7.025   4.321  13.797  0.00  0.00    +0.000 C 
ENDBRANCH  23  26
BRANCH  24  28
ATOM     28  O   UNL     1       7.879   5.214  17.912  0.00  0.00    +0.000 OA
ATOM     29  C   UNL     1       8.011   5.597  19.276  0.00  0.00    +0.000 C 
ENDBRANCH  24  28
ENDBRANCH  19  20
BRANCH  18  30
ATOM     30  C   UNL     1       2.636   5.901  19.186  0.00  0.00    +0.000 C 
ATOM     31  O   UNL     1       3.230   5.390  20.123  0.00  0.00    +0.000 OA
BRANCH  30  32
ATOM     32  O   UNL     1       1.809   5.205  18.361  0.00  0.00    +0.000 OA
BRANCH  32  33
ATOM     33  C   UNL     1       2.372   4.016  17.785  0.00  0.00    +0.000 C 
ATOM     34  C   UNL     1       1.594   2.820  18.285  0.00  0.00    +0.000 C 
ENDBRANCH  32  33
ENDBRANCH  30  32
ENDBRANCH  18  30
ENDBRANCH   1  18
TORSDOF 13
ENDMDL
MODEL 5
REMARK VINA RESULT:      -6.1      0.766      8.859
REMARK  Name = 
REMARK  19 active torsions:
REMARK  status: ('A' for Active; 'I' for Inactive)
REMARK    1  A    between atoms: C_1  and  C_2
REMARK    2  A    between atoms: C_2  and  O_3
REMARK    3  A    between atoms: O_3  and  C_4
REMARK    4  A    between atoms: C_4  and  C_6
REMARK    5  A    between atoms: C_6  and  C_18
REMARK    6  A    between atoms: C_7  and  C_8
REMARK    7  A    between atoms: C_11  and  O_12
REMARK    8  A    between atoms: O_12  and  C_13
REMARK    9  A    between atoms: C_14  and  O_15
REMARK   10  A    between atoms: O_15  and  C_16
REMARK   11  A    between atoms: C_18  and  C_30
REMARK   12  A    between atoms: C_19  and  C_20
REMARK   13  A    between atoms: C_23  and  O_24
REMARK   14  A    between atoms: O_24  and  C_25
REMARK   15  A    between atoms: C_26  and  O_27
REMARK   16  A    between atoms: O_27  and  C_28
REMARK   17  A    between atoms: C_30  and  O_32
REMARK   18  A    between atoms: O_32  and  C_33
REMARK   19  A    between atoms: C_33  and  C_34
REMARK                            x       y       z     vdW  Elec       q    Type
REMARK                         _______ _______ _______ _____ _____    ______ ____
ROOT
ATOM      1  C   UNL     1       1.651   8.298  19.139  0.00  0.00    +0.000 C 
ATOM      2  C   UNL     1       1.213   9.330  18.373  0.00  0.00    +0.000 C 
ENDROOT
BRANCH   2   3
ATOM      3  C   UNL     1       0.338  10.441  18.801  0.00  0.00    +0.000 A 
ATOM      4  C   UNL     1      -1.052  10.310  18.839  0.00  0.00    +0.000 A 
ATOM      5  C   UNL     1      -1.837  11.356  19.334  0.00  0.00    +0.000 A 
ATOM      6  C   UNL     1      -1.250  12.539  19.806  0.00  0.00    +0.000 A 
ATOM      7  C   UNL     1       0.144  12.692  19.740  0.00  0.00    +0.000 A 
ATOM      8  C   UNL     1       0.924  11.644  19.225  0.00  0.00    +0.000 A 
BRANCH   6   9
ATOM      9  O   UNL     1      -2.160  13.459  20.264  0.00  0.00    +0.000 OA
ATOM     10  C   UNL     1      -3.497  12.995  20.445  0.00  0.00    +0.000 C 
ENDBRANCH   6   9
BRANCH   7  11
ATOM     11  O   UNL     1       0.685  13.891  20.127  0.00  0.00    +0.000 OA
ATOM     12  C   UNL     1       2.011  13.843  20.638  0.00  0.00    +0.000 C 
ENDBRANCH   7  11
ENDBRANCH   2   3
BRANCH   1  13
ATOM     13  C   UNL     1       1.145   8.177  20.561  0.00  0.00    +0.000 C 
ATOM     14  O   UNL     1       0.391   7.307  20.970  0.00  0.00    +0.000 OA
BRANCH  13  15
ATOM     15  O   UNL     1       1.630   9.162  21.358  0.00  0.00    +0.000 OA
BRANCH  15  17
ATOM     16  C   UNL     1      -0.143  10.238  22.574  0.00  0.00    +0.000 C 
ATOM     17  C   UNL     1       1.008   9.261  22.649  0.00  0.00    +0.000 C 
ENDBRANCH  15  17
ENDBRANCH  13  15
ENDBRANCH   1  13
BRANCH   1  18
ATOM     18  C   UNL     1       2.611   7.307  18.582  0.00  0.00    +0.000 C 
ATOM     19  C   UNL     1       3.706   7.731  17.899  0.00  0.00    +0.000 C 
BRANCH  19  20
ATOM     20  C   UNL     1       4.707   6.908  17.191  0.00  0.00    +0.000 A 
ATOM     21  C   UNL     1       4.608   6.629  15.827  0.00  0.00    +0.000 A 
ATOM     22  C   UNL     1       5.594   5.863  15.198  0.00  0.00    +0.000 A 
ATOM     23  C   UNL     1       6.699   5.370  15.910  0.00  0.00    +0.000 A 
ATOM     24  C   UNL     1       6.798   5.633  17.285  0.00  0.00    +0.000 A 
ATOM     25  C   UNL     1       5.794   6.393  17.913  0.00  0.00    +0.000 A 
BRANCH  23  26
ATOM     26  O   UNL     1       7.563   4.625  15.146  0.00  0.00    +0.000 OA
ATOM     27  C   UNL     1       7.169   4.377  13.801  0.00  0.00    +0.000 C 
ENDBRANCH  23  26
BRANCH  24  28
ATOM     28  O   UNL     1       7.831   5.067  17.983  0.00  0.00    +0.000 OA
ATOM     29  C   UNL     1       7.998   5.504  19.326  0.00  0.00    +0.000 C 
ENDBRANCH  24  28
ENDBRANCH  19  20
BRANCH  18  30
ATOM     30  C   UNL     1       2.387   5.822  18.760  0.00  0.00    +0.000 C 
ATOM     31  O   UNL     1       1.756   5.104  18.000  0.00  0.00    +0.000 OA
BRANCH  30  32
ATOM     32  O   UNL     1       2.987   5.363  19.891  0.00  0.00    +0.000 OA
BRANCH  32  33
ATOM     33  C   UNL     1       2.185   4.490  20.702  0.00  0.00    +0.000 C 
ATOM     34  C   UNL     1       2.828   3.123  20.722  0.00  0.00    +0.000 C 
ENDBRANCH  32  33
ENDBRANCH  30  32
ENDBRANCH  18  30
ENDBRANCH   1  18
TORSDOF 13
ENDMDL
MODEL 6
REMARK VINA RESULT:      -6.0      0.653      8.972
REMARK  Name = 
REMARK  19 active torsions:
REMARK  status: ('A' for Active; 'I' for Inactive)
REMARK    1  A    between atoms: C_1  and  C_2
REMARK    2  A    between atoms: C_2  and  O_3
REMARK    3  A    between atoms: O_3  and  C_4
REMARK    4  A    between atoms: C_4  and  C_6
REMARK    5  A    between atoms: C_6  and  C_18
REMARK    6  A    between atoms: C_7  and  C_8
REMARK    7  A    between atoms: C_11  and  O_12
REMARK    8  A    between atoms: O_12  and  C_13
REMARK    9  A    between atoms: C_14  and  O_15
REMARK   10  A    between atoms: O_15  and  C_16
REMARK   11  A    between atoms: C_18  and  C_30
REMARK   12  A    between atoms: C_19  and  C_20
REMARK   13  A    between atoms: C_23  and  O_24
REMARK   14  A    between atoms: O_24  and  C_25
REMARK   15  A    between atoms: C_26  and  O_27
REMARK   16  A    between atoms: O_27  and  C_28
REMARK   17  A    between atoms: C_30  and  O_32
REMARK   18  A    between atoms: O_32  and  C_33
REMARK   19  A    between atoms: C_33  and  C_34
REMARK                            x       y       z     vdW  Elec       q    Type
REMARK                         _______ _______ _______ _____ _____    ______ ____
ROOT
ATOM      1  C   UNL     1       1.602   8.489  19.303  0.00  0.00    +0.000 C 
ATOM      2  C   UNL     1       1.051   9.380  18.439  0.00  0.00    +0.000 C 
ENDROOT
BRANCH   2   3
ATOM      3  C   UNL     1       0.177  10.521  18.783  0.00  0.00    +0.000 A 
ATOM      4  C   UNL     1      -1.213  10.441  18.668  0.00  0.00    +0.000 A 
ATOM      5  C   UNL     1      -2.007  11.514  19.087  0.00  0.00    +0.000 A 
ATOM      6  C   UNL     1      -1.432  12.670  19.632  0.00  0.00    +0.000 A 
ATOM      7  C   UNL     1      -0.035  12.770  19.719  0.00  0.00    +0.000 A 
ATOM      8  C   UNL     1       0.757  11.697  19.281  0.00  0.00    +0.000 A 
BRANCH   6   9
ATOM      9  O   UNL     1      -2.352  13.621  19.999  0.00  0.00    +0.000 OA
ATOM     10  C   UNL     1      -3.054  13.388  21.219  0.00  0.00    +0.000 C 
ENDBRANCH   6   9
BRANCH   7  11
ATOM     11  O   UNL     1       0.506  13.946  20.176  0.00  0.00    +0.000 OA
ATOM     12  C   UNL     1       0.758  14.017  21.573  0.00  0.00    +0.000 C 
ENDBRANCH   7  11
ENDBRANCH   2   3
BRANCH   1  13
ATOM     13  C   UNL     1       1.240   8.573  20.771  0.00  0.00    +0.000 C 
ATOM     14  O   UNL     1       2.041   8.656  21.691  0.00  0.00    +0.000 OA
BRANCH  13  15
ATOM     15  O   UNL     1      -0.102   8.546  20.965  0.00  0.00    +0.000 OA
BRANCH  15  17
ATOM     16  C   UNL     1      -0.668  10.332  22.472  0.00  0.00    +0.000 C 
ATOM     17  C   UNL     1      -0.528   8.835  22.306  0.00  0.00    +0.000 C 
ENDBRANCH  15  17
ENDBRANCH  13  15
ENDBRANCH   1  13
BRANCH   1  18
ATOM     18  C   UNL     1       2.545   7.449  18.806  0.00  0.00    +0.000 C 
ATOM     19  C   UNL     1       3.584   7.801  18.005  0.00  0.00    +0.000 C 
BRANCH  19  20
ATOM     20  C   UNL     1       4.553   6.910  17.336  0.00  0.00    +0.000 A 
ATOM     21  C   UNL     1       4.533   6.693  15.957  0.00  0.00    +0.000 A 
ATOM     22  C   UNL     1       5.487   5.858  15.368  0.00  0.00    +0.000 A 
ATOM     23  C   UNL     1       6.482   5.233  16.136  0.00  0.00    +0.000 A 
ATOM     24  C   UNL     1       6.499   5.434  17.525  0.00  0.00    +0.000 A 
ATOM     25  C   UNL     1       5.527   6.264  18.112  0.00  0.00    +0.000 A 
BRANCH  23  26
ATOM     26  O   UNL     1       7.327   4.435  15.405  0.00  0.00    +0.000 OA
ATOM     27  C   UNL     1       7.085   4.370  14.004  0.00  0.00    +0.000 C 
ENDBRANCH  23  26
BRANCH  24  28
ATOM     28  O   UNL     1       7.418   4.743  18.271  0.00  0.00    +0.000 OA
ATOM     29  C   UNL     1       8.050   5.467  19.319  0.00  0.00    +0.000 C 
ENDBRANCH  24  28
ENDBRANCH  19  20
BRANCH  18  30
ATOM     30  C   UNL     1       2.364   5.994  19.177  0.00  0.00    +0.000 C 
ATOM     31  O   UNL     1       2.699   5.485  20.236  0.00  0.00    +0.000 OA
BRANCH  30  32
ATOM     32  O   UNL     1       1.767   5.298  18.173  0.00  0.00    +0.000 OA
BRANCH  32  33
ATOM     33  C   UNL     1       2.286   3.978  17.946  0.00  0.00    +0.000 C 
ATOM     34  C   UNL     1       1.249   2.969  18.383  0.00  0.00    +0.000 C 
ENDBRANCH  32  33
ENDBRANCH  30  32
ENDBRANCH  18  30
ENDBRANCH   1  18
TORSDOF 13
ENDMDL
MODEL 7
REMARK VINA RESULT:      -6.0      1.041      1.967
REMARK  Name = 
REMARK  19 active torsions:
REMARK  status: ('A' for Active; 'I' for Inactive)
REMARK    1  A    between atoms: C_1  and  C_2
REMARK    2  A    between atoms: C_2  and  O_3
REMARK    3  A    between atoms: O_3  and  C_4
REMARK    4  A    between atoms: C_4  and  C_6
REMARK    5  A    between atoms: C_6  and  C_18
REMARK    6  A    between atoms: C_7  and  C_8
REMARK    7  A    between atoms: C_11  and  O_12
REMARK    8  A    between atoms: O_12  and  C_13
REMARK    9  A    between atoms: C_14  and  O_15
REMARK   10  A    between atoms: O_15  and  C_16
REMARK   11  A    between atoms: C_18  and  C_30
REMARK   12  A    between atoms: C_19  and  C_20
REMARK   13  A    between atoms: C_23  and  O_24
REMARK   14  A    between atoms: O_24  and  C_25
REMARK   15  A    between atoms: C_26  and  O_27
REMARK   16  A    between atoms: O_27  and  C_28
REMARK   17  A    between atoms: C_30  and  O_32
REMARK   18  A    between atoms: O_32  and  C_33
REMARK   19  A    between atoms: C_33  and  C_34
REMARK                            x       y       z     vdW  Elec       q    Type
REMARK                         _______ _______ _______ _____ _____    ______ ____
ROOT
ATOM      1  C   UNL     1       2.593   7.428  18.730  0.00  0.00    +0.000 C 
ATOM      2  C   UNL     1       3.688   7.805  18.021  0.00  0.00    +0.000 C 
ENDROOT
BRANCH   2   3
ATOM      3  C   UNL     1       4.638   6.917  17.319  0.00  0.00    +0.000 A 
ATOM      4  C   UNL     1       4.514   6.640  15.955  0.00  0.00    +0.000 A 
ATOM      5  C   UNL     1       5.484   5.865  15.312  0.00  0.00    +0.000 A 
ATOM      6  C   UNL     1       6.592   5.367  16.012  0.00  0.00    +0.000 A 
ATOM      7  C   UNL     1       6.707   5.614  17.389  0.00  0.00    +0.000 A 
ATOM      8  C   UNL     1       5.719   6.378  18.032  0.00  0.00    +0.000 A 
BRANCH   6   9
ATOM      9  O   UNL     1       7.452   4.635  15.232  0.00  0.00    +0.000 OA
ATOM     10  C   UNL     1       7.264   4.728  13.820  0.00  0.00    +0.000 C 
ENDBRANCH   6   9
BRANCH   7  11
ATOM     11  O   UNL     1       7.753   5.043  18.068  0.00  0.00    +0.000 OA
ATOM     12  C   UNL     1       8.045   5.594  19.346  0.00  0.00    +0.000 C 
ENDBRANCH   7  11
ENDBRANCH   2   3
BRANCH   1  13
ATOM     13  C   UNL     1       2.325   5.951  18.930  0.00  0.00    +0.000 C 
ATOM     14  O   UNL     1       1.750   5.224  18.133  0.00  0.00    +0.000 OA
BRANCH  13  15
ATOM     15  O   UNL     1       2.804   5.505  20.119  0.00  0.00    +0.000 OA
BRANCH  15  17
ATOM     16  C   UNL     1       1.942   3.617  21.333  0.00  0.00    +0.000 C 
ATOM     17  C   UNL     1       2.884   4.076  20.243  0.00  0.00    +0.000 C 
ENDBRANCH  15  17
ENDBRANCH  13  15
ENDBRANCH   1  13
BRANCH   1  18
ATOM     18  C   UNL     1       1.678   8.455  19.297  0.00  0.00    +0.000 C 
ATOM     19  C   UNL     1       1.169   9.428  18.498  0.00  0.00    +0.000 C 
BRANCH  19  20
ATOM     20  C   UNL     1       0.337  10.582  18.894  0.00  0.00    +0.000 A 
ATOM     21  C   UNL     1       0.881  11.720  19.492  0.00  0.00    +0.000 A 
ATOM     22  C   UNL     1       0.054  12.795  19.828  0.00  0.00    +0.000 A 
ATOM     23  C   UNL     1      -1.325  12.764  19.566  0.00  0.00    +0.000 A 
ATOM     24  C   UNL     1      -1.882  11.618  18.979  0.00  0.00    +0.000 A 
ATOM     25  C   UNL     1      -1.045  10.534  18.657  0.00  0.00    +0.000 A 
BRANCH  23  26
ATOM     26  O   UNL     1      -1.992  13.893  19.973  0.00  0.00    +0.000 OA
ATOM     27  C   UNL     1      -2.441  13.913  21.324  0.00  0.00    +0.000 C 
ENDBRANCH  23  26
BRANCH  24  28
ATOM     28  O   UNL     1      -3.241  11.566  18.816  0.00  0.00    +0.000 OA
ATOM     29  C   UNL     1      -3.717  11.589  17.476  0.00  0.00    +0.000 C 
ENDBRANCH  24  28
ENDBRANCH  19  20
BRANCH  18  30
ATOM     30  C   UNL     1       1.302   8.438  20.763  0.00  0.00    +0.000 C 
ATOM     31  O   UNL     1       2.084   8.530  21.696  0.00  0.00    +0.000 OA
BRANCH  30  32
ATOM     32  O   UNL     1      -0.041   8.307  20.928  0.00  0.00    +0.000 OA
BRANCH  32  33
ATOM     33  C   UNL     1      -0.530   8.593  22.247  0.00  0.00    +0.000 C 
ATOM     34  C   UNL     1      -0.587  10.092  22.428  0.00  0.00    +0.000 C 
ENDBRANCH  32  33
ENDBRANCH  30  32
ENDBRANCH  18  30
ENDBRANCH   1  18
TORSDOF 13
ENDMDL
MODEL 8
REMARK VINA RESULT:      -5.9      0.900      1.273
REMARK  Name = 
REMARK  19 active torsions:
REMARK  status: ('A' for Active; 'I' for Inactive)
REMARK    1  A    between atoms: C_1  and  C_2
REMARK    2  A    between atoms: C_2  and  O_3
REMARK    3  A    between atoms: O_3  and  C_4
REMARK    4  A    between atoms: C_4  and  C_6
REMARK    5  A    between atoms: C_6  and  C_18
REMARK    6  A    between atoms: C_7  and  C_8
REMARK    7  A    between atoms: C_11  and  O_12
REMARK    8  A    between atoms: O_12  and  C_13
REMARK    9  A    between atoms: C_14  and  O_15
REMARK   10  A    between atoms: O_15  and  C_16
REMARK   11  A    between atoms: C_18  and  C_30
REMARK   12  A    between atoms: C_19  and  C_20
REMARK   13  A    between atoms: C_23  and  O_24
REMARK   14  A    between atoms: O_24  and  C_25
REMARK   15  A    between atoms: C_26  and  O_27
REMARK   16  A    between atoms: O_27  and  C_28
REMARK   17  A    between atoms: C_30  and  O_32
REMARK   18  A    between atoms: O_32  and  C_33
REMARK   19  A    between atoms: C_33  and  C_34
REMARK                            x       y       z     vdW  Elec       q    Type
REMARK                         _______ _______ _______ _____ _____    ______ ____
ROOT
ATOM      1  C   UNL     1       2.586   7.386  18.604  0.00  0.00    +0.000 C 
ATOM      2  C   UNL     1       3.701   7.768  17.929  0.00  0.00    +0.000 C 
ENDROOT
BRANCH   2   3
ATOM      3  C   UNL     1       4.653   6.886  17.222  0.00  0.00    +0.000 A 
ATOM      4  C   UNL     1       4.497   6.572  15.869  0.00  0.00    +0.000 A 
ATOM      5  C   UNL     1       5.469   5.806  15.217  0.00  0.00    +0.000 A 
ATOM      6  C   UNL     1       6.608   5.353  15.897  0.00  0.00    +0.000 A 
ATOM      7  C   UNL     1       6.755   5.636  17.264  0.00  0.00    +0.000 A 
ATOM      8  C   UNL     1       5.766   6.392  17.916  0.00  0.00    +0.000 A 
BRANCH   6   9
ATOM      9  O   UNL     1       7.464   4.623  15.109  0.00  0.00    +0.000 OA
ATOM     10  C   UNL     1       7.033   4.363  13.774  0.00  0.00    +0.000 C 
ENDBRANCH   6   9
BRANCH   7  11
ATOM     11  O   UNL     1       7.834   5.109  17.925  0.00  0.00    +0.000 OA
ATOM     12  C   UNL     1       8.021   5.545  19.265  0.00  0.00    +0.000 C 
ENDBRANCH   7  11
ENDBRANCH   2   3
BRANCH   1  13
ATOM     13  C   UNL     1       2.293   5.909  18.756  0.00  0.00    +0.000 C 
ATOM     14  O   UNL     1       1.806   5.194  17.893  0.00  0.00    +0.000 OA
BRANCH  13  15
ATOM     15  O   UNL     1       2.638   5.447  19.984  0.00  0.00    +0.000 OA
BRANCH  15  17
ATOM     16  C   UNL     1       2.181   3.518  21.345  0.00  0.00    +0.000 C 
ATOM     17  C   UNL     1       1.597   4.746  20.683  0.00  0.00    +0.000 C 
ENDBRANCH  15  17
ENDBRANCH  13  15
ENDBRANCH   1  13
BRANCH   1  18
ATOM     18  C   UNL     1       1.674   8.411  19.181  0.00  0.00    +0.000 C 
ATOM     19  C   UNL     1       1.138   9.371  18.385  0.00  0.00    +0.000 C 
BRANCH  19  20
ATOM     20  C   UNL     1       0.304  10.521  18.788  0.00  0.00    +0.000 A 
ATOM     21  C   UNL     1      -1.087  10.507  18.670  0.00  0.00    +0.000 A 
ATOM     22  C   UNL     1      -1.834  11.612  19.086  0.00  0.00    +0.000 A 
ATOM     23  C   UNL     1      -1.214  12.746  19.637  0.00  0.00    +0.000 A 
ATOM     24  C   UNL     1       0.185  12.773  19.745  0.00  0.00    +0.000 A 
ATOM     25  C   UNL     1       0.930  11.662  19.310  0.00  0.00    +0.000 A 
BRANCH  23  26
ATOM     26  O   UNL     1      -2.090  13.746  19.978  0.00  0.00    +0.000 OA
ATOM     27  C   UNL     1      -2.574  13.737  21.317  0.00  0.00    +0.000 C 
ENDBRANCH  23  26
BRANCH  24  28
ATOM     28  O   UNL     1       0.780  13.922  20.197  0.00  0.00    +0.000 OA
ATOM     29  C   UNL     1       1.995  13.759  20.919  0.00  0.00    +0.000 C 
ENDBRANCH  24  28
ENDBRANCH  19  20
BRANCH  18  30
ATOM     30  C   UNL     1       1.330   8.404  20.655  0.00  0.00    +0.000 C 
ATOM     31  O   UNL     1       2.137   8.426  21.571  0.00  0.00    +0.000 OA
BRANCH  30  32
ATOM     32  O   UNL     1      -0.016   8.372  20.849  0.00  0.00    +0.000 OA
BRANCH  32  33
ATOM     33  C   UNL     1      -0.451   8.648  22.189  0.00  0.00    +0.000 C 
ATOM     34  C   UNL     1      -0.528  10.146  22.375  0.00  0.00    +0.000 C 
ENDBRANCH  32  33
ENDBRANCH  30  32
ENDBRANCH  18  30
ENDBRANCH   1  18
TORSDOF 13
ENDMDL
MODEL 9
REMARK VINA RESULT:      -5.9      1.565      2.491
REMARK  Name = 
REMARK  19 active torsions:
REMARK  status: ('A' for Active; 'I' for Inactive)
REMARK    1  A    between atoms: C_1  and  C_2
REMARK    2  A    between atoms: C_2  and  O_3
REMARK    3  A    between atoms: O_3  and  C_4
REMARK    4  A    between atoms: C_4  and  C_6
REMARK    5  A    between atoms: C_6  and  C_18
REMARK    6  A    between atoms: C_7  and  C_8
REMARK    7  A    between atoms: C_11  and  O_12
REMARK    8  A    between atoms: O_12  and  C_13
REMARK    9  A    between atoms: C_14  and  O_15
REMARK   10  A    between atoms: O_15  and  C_16
REMARK   11  A    between atoms: C_18  and  C_30
REMARK   12  A    between atoms: C_19  and  C_20
REMARK   13  A    between atoms: C_23  and  O_24
REMARK   14  A    between atoms: O_24  and  C_25
REMARK   15  A    between atoms: C_26  and  O_27
REMARK   16  A    between atoms: O_27  and  C_28
REMARK   17  A    between atoms: C_30  and  O_32
REMARK   18  A    between atoms: O_32  and  C_33
REMARK   19  A    between atoms: C_33  and  C_34
REMARK                            x       y       z     vdW  Elec       q    Type
REMARK                         _______ _______ _______ _____ _____    ______ ____
ROOT
ATOM      1  C   UNL     1       2.745   7.423  18.519  0.00  0.00    +0.000 C 
ATOM      2  C   UNL     1       3.874   7.753  17.840  0.00  0.00    +0.000 C 
ENDROOT
BRANCH   2   3
ATOM      3  C   UNL     1       4.773   6.830  17.117  0.00  0.00    +0.000 A 
ATOM      4  C   UNL     1       4.588   6.533  15.764  0.00  0.00    +0.000 A 
ATOM      5  C   UNL     1       5.513   5.724  15.096  0.00  0.00    +0.000 A 
ATOM      6  C   UNL     1       6.636   5.211  15.760  0.00  0.00    +0.000 A 
ATOM      7  C   UNL     1       6.812   5.478  17.127  0.00  0.00    +0.000 A 
ATOM      8  C   UNL     1       5.869   6.277  17.795  0.00  0.00    +0.000 A 
BRANCH   6   9
ATOM      9  O   UNL     1       7.446   4.446  14.959  0.00  0.00    +0.000 OA
ATOM     10  C   UNL     1       7.139   4.440  13.565  0.00  0.00    +0.000 C 
ENDBRANCH   6   9
BRANCH   7  11
ATOM     11  O   UNL     1       7.871   4.893  17.773  0.00  0.00    +0.000 OA
ATOM     12  C   UNL     1       8.136   5.360  19.090  0.00  0.00    +0.000 C 
ENDBRANCH   7  11
ENDBRANCH   2   3
BRANCH   1  13
ATOM     13  C   UNL     1       2.376   5.961  18.658  0.00  0.00    +0.000 C 
ATOM     14  O   UNL     1       1.768   5.305  17.826  0.00  0.00    +0.000 OA
BRANCH  13  15
ATOM     15  O   UNL     1       2.804   5.439  19.835  0.00  0.00    +0.000 OA
BRANCH  15  17
ATOM     16  C   UNL     1       2.731   3.128  20.497  0.00  0.00    +0.000 C 
ATOM     17  C   UNL     1       3.494   4.184  19.728  0.00  0.00    +0.000 C 
ENDBRANCH  15  17
ENDBRANCH  13  15
ENDBRANCH   1  13
BRANCH   1  18
ATOM     18  C   UNL     1       1.892   8.487  19.114  0.00  0.00    +0.000 C 
ATOM     19  C   UNL     1       1.656   8.501  20.452  0.00  0.00    +0.000 C 
BRANCH  19  20
ATOM     20  C   UNL     1       0.763   9.404  21.204  0.00  0.00    +0.000 A 
ATOM     21  C   UNL     1      -0.199   8.924  22.096  0.00  0.00    +0.000 A 
ATOM     22  C   UNL     1      -1.006   9.820  22.801  0.00  0.00    +0.000 A 
ATOM     23  C   UNL     1      -0.865  11.209  22.642  0.00  0.00    +0.000 A 
ATOM     24  C   UNL     1       0.089  11.699  21.737  0.00  0.00    +0.000 A 
ATOM     25  C   UNL     1       0.887  10.789  21.020  0.00  0.00    +0.000 A 
BRANCH  23  26
ATOM     26  O   UNL     1      -1.746  11.945  23.396  0.00  0.00    +0.000 OA
ATOM     27  C   UNL     1      -2.986  12.276  22.780  0.00  0.00    +0.000 C 
ENDBRANCH  23  26
BRANCH  24  28
ATOM     28  O   UNL     1       0.149  13.051  21.525  0.00  0.00    +0.000 OA
ATOM     29  C   UNL     1       1.302  13.530  20.842  0.00  0.00    +0.000 C 
ENDBRANCH  24  28
ENDBRANCH  19  20
BRANCH  18  30
ATOM     30  C   UNL     1       1.272   9.562  18.249  0.00  0.00    +0.000 C 
ATOM     31  O   UNL     1       1.821  10.595  17.899  0.00  0.00    +0.000 OA
BRANCH  30  32
ATOM     32  O   UNL     1       0.001   9.237  17.891  0.00  0.00    +0.000 OA
BRANCH  32  33
ATOM     33  C   UNL     1      -0.871  10.350  17.641  0.00  0.00    +0.000 C 
ATOM     34  C   UNL     1      -1.940  10.378  18.709  0.00  0.00    +0.000 C 
ENDBRANCH  32  33
ENDBRANCH  30  32
ENDBRANCH  18  30
ENDBRANCH   1  18
TORSDOF 13
ENDMDL
