MODEL 1
REMARK VINA RESULT:      -9.5      0.000      0.000
REMARK  Name = 
REMARK  9 active torsions:
REMARK  status: ('A' for Active; 'I' for Inactive)
REMARK    1  A    between atoms: C_1  and  C_2
REMARK    2  A    between atoms: C_4  and  N_5
REMARK    3  A    between atoms: N_8  and  C_9
REMARK    4  A    between atoms: C_15  and  C_16
REMARK    5  A    between atoms: C_17  and  N_18
REMARK    6  A    between atoms: N_18  and  C_19
REMARK    7  A    between atoms: C_19  and  C_20
REMARK    8  A    between atoms: C_20  and  O_21
REMARK    9  A    between atoms: C_20  and  C_22
REMARK                            x       y       z     vdW  Elec       q    Type
REMARK                         _______ _______ _______ _____ _____    ______ ____
ROOT
ATOM      1  C   UNL     1       2.817   4.599  19.389  0.00  0.00    +0.000 A 
ATOM      2  C   UNL     1       3.881   4.088  18.713  0.00  0.00    +0.000 A 
ATOM      3  C   UNL     1       4.034   2.651  18.637  0.00  0.00    +0.000 A 
ATOM      4  C   UNL     1       3.153   1.806  19.196  0.00  0.00    +0.000 A 
ATOM      5  N   UNL     1       2.056   2.301  19.837  0.00  0.00    +0.000 N 
ATOM      6  C   UNL     1       1.797   3.645  19.980  0.00  0.00    +0.000 A 
ATOM      7  O   UNL     1       0.801   4.020  20.589  0.00  0.00    +0.000 OA
ATOM      8  H   UNL     1       1.378   1.675  20.253  0.00  0.00    +0.000 HD
ENDROOT
BRANCH   1  16
ATOM      9  C   UNL     1       2.002   9.779  17.429  0.00  0.00    +0.000 C 
ATOM     10  C   UNL     1       1.673   9.342  18.823  0.00  0.00    +0.000 A 
ATOM     11  C   UNL     1       1.000  10.223  19.703  0.00  0.00    +0.000 A 
ATOM     12  C   UNL     1       0.626   9.883  21.016  0.00  0.00    +0.000 A 
ATOM     13  C   UNL     1       0.956   8.597  21.479  0.00  0.00    +0.000 A 
ATOM     14  C   UNL     1       1.627   7.723  20.607  0.00  0.00    +0.000 A 
ATOM     15  N   UNL     1       2.063   6.427  20.746  0.00  0.00    +0.000 N 
ATOM     16  C   UNL     1       2.560   5.990  19.539  0.00  0.00    +0.000 A 
ATOM     17  N   UNL     1       2.596   6.991  18.675  0.00  0.00    +0.000 NA
ATOM     18  C   UNL     1       1.979   8.057  19.307  0.00  0.00    +0.000 A 
ATOM     19  H   UNL     1       1.962   5.857  21.573  0.00  0.00    +0.000 HD
BRANCH  12  20
ATOM     20  N   UNL     1      -0.111  10.794  21.761  0.00  0.00    +0.000 N 
ATOM     21  C   UNL     1      -0.680  10.442  23.069  0.00  0.00    +0.000 C 
ATOM     22  C   UNL     1      -1.974  11.267  23.290  0.00  0.00    +0.000 C 
ATOM     23  N   UNL     1      -1.722  12.727  23.233  0.00  0.00    +0.000 NA
ATOM     24  C   UNL     1      -2.963  13.470  23.439  0.00  0.00    +0.000 C 
ATOM     25  C   UNL     1      -1.111  13.060  21.923  0.00  0.00    +0.000 C 
ATOM     26  C   UNL     1       0.173  12.238  21.626  0.00  0.00    +0.000 C 
ENDBRANCH  12  20
ENDBRANCH   1  16
BRANCH   2  27
ATOM     27  N   UNL     1       4.932   4.793  18.103  0.00  0.00    +0.000 N 
ATOM     28  H   UNL     1       4.914   5.786  18.340  0.00  0.00    +0.000 HD
BRANCH  27  29
ATOM     29  C   UNL     1       5.154   4.619  16.650  0.00  0.00    +0.000 C 
BRANCH  29  30
ATOM     30  C   UNL     1       6.591   4.993  16.214  0.00  0.00    +0.000 C 
BRANCH  30  31
ATOM     31  C   UNL     1       6.784   4.735  14.730  0.00  0.00    +0.000 A 
ATOM     32  C   UNL     1       7.760   5.453  14.020  0.00  0.00    +0.000 A 
ATOM     33  C   UNL     1       7.937   5.257  12.647  0.00  0.00    +0.000 A 
ATOM     34  C   UNL     1       7.135   4.347  11.962  0.00  0.00    +0.000 A 
ATOM     35  C   UNL     1       6.143   3.653  12.648  0.00  0.00    +0.000 A 
ATOM     36 CL   UNL     1       5.108   2.574  11.793  0.00  0.00    +0.000 Cl
ATOM     37  C   UNL     1       5.965   3.839  14.020  0.00  0.00    +0.000 A 
ENDBRANCH  30  31
BRANCH  30  38
ATOM     38  O   UNL     1       7.575   4.273  16.966  0.00  0.00    +0.000 OA
ATOM     39  H   UNL     1       7.389   3.326  16.857  0.00  0.00    +0.000 HD
ENDBRANCH  30  38
ENDBRANCH  29  30
ENDBRANCH  27  29
ENDBRANCH   2  27
TORSDOF 7
ENDMDL
MODEL 2
REMARK VINA RESULT:      -9.3      1.065      1.438
REMARK  Name = 
REMARK  9 active torsions:
REMARK  status: ('A' for Active; 'I' for Inactive)
REMARK    1  A    between atoms: C_1  and  C_2
REMARK    2  A    between atoms: C_4  and  N_5
REMARK    3  A    between atoms: N_8  and  C_9
REMARK    4  A    between atoms: C_15  and  C_16
REMARK    5  A    between atoms: C_17  and  N_18
REMARK    6  A    between atoms: N_18  and  C_19
REMARK    7  A    between atoms: C_19  and  C_20
REMARK    8  A    between atoms: C_20  and  O_21
REMARK    9  A    between atoms: C_20  and  C_22
REMARK                            x       y       z     vdW  Elec       q    Type
REMARK                         _______ _______ _______ _____ _____    ______ ____
ROOT
ATOM      1  C   UNL     1       2.736   4.909  19.858  0.00  0.00    +0.000 A 
ATOM      2  C   UNL     1       3.983   4.423  19.614  0.00  0.00    +0.000 A 
ATOM      3  C   UNL     1       4.176   2.989  19.569  0.00  0.00    +0.000 A 
ATOM      4  C   UNL     1       3.165   2.124  19.743  0.00  0.00    +0.000 A 
ATOM      5  N   UNL     1       1.900   2.596  19.943  0.00  0.00    +0.000 N 
ATOM      6  C   UNL     1       1.585   3.933  20.009  0.00  0.00    +0.000 A 
ATOM      7  O   UNL     1       0.429   4.286  20.214  0.00  0.00    +0.000 OA
ATOM      8  H   UNL     1       1.126   1.954  20.065  0.00  0.00    +0.000 HD
ENDROOT
BRANCH   1  16
ATOM      9  C   UNL     1       1.726   9.940  17.621  0.00  0.00    +0.000 C 
ATOM     10  C   UNL     1       1.401   9.564  19.033  0.00  0.00    +0.000 A 
ATOM     11  C   UNL     1       0.682  10.460  19.859  0.00  0.00    +0.000 A 
ATOM     12  C   UNL     1       0.310  10.174  21.185  0.00  0.00    +0.000 A 
ATOM     13  C   UNL     1       0.688   8.929  21.718  0.00  0.00    +0.000 A 
ATOM     14  C   UNL     1       1.404   8.039  20.900  0.00  0.00    +0.000 A 
ATOM     15  N   UNL     1       1.892   6.773  21.111  0.00  0.00    +0.000 N 
ATOM     16  C   UNL     1       2.420   6.294  19.933  0.00  0.00    +0.000 A 
ATOM     17  N   UNL     1       2.423   7.249  19.018  0.00  0.00    +0.000 NA
ATOM     18  C   UNL     1       1.756   8.319  19.587  0.00  0.00    +0.000 A 
ATOM     19  H   UNL     1       1.806   6.243  21.966  0.00  0.00    +0.000 HD
BRANCH  12  20
ATOM     20  N   UNL     1      -0.473  11.091  21.875  0.00  0.00    +0.000 N 
ATOM     21  C   UNL     1      -1.109  10.755  23.157  0.00  0.00    +0.000 C 
ATOM     22  C   UNL     1      -2.418  11.573  23.295  0.00  0.00    +0.000 C 
ATOM     23  N   UNL     1      -2.174  13.034  23.227  0.00  0.00    +0.000 NA
ATOM     24  C   UNL     1      -3.430  13.770  23.354  0.00  0.00    +0.000 C 
ATOM     25  C   UNL     1      -1.497  13.351  21.946  0.00  0.00    +0.000 C 
ATOM     26  C   UNL     1      -0.193  12.534  21.731  0.00  0.00    +0.000 C 
ENDBRANCH  12  20
ENDBRANCH   1  16
BRANCH   2  27
ATOM     27  N   UNL     1       5.174   5.150  19.452  0.00  0.00    +0.000 N 
ATOM     28  H   UNL     1       5.297   5.850  20.187  0.00  0.00    +0.000 HD
BRANCH  27  29
ATOM     29  C   UNL     1       5.469   5.744  18.129  0.00  0.00    +0.000 C 
BRANCH  29  30
ATOM     30  C   UNL     1       6.802   5.236  17.528  0.00  0.00    +0.000 C 
BRANCH  30  31
ATOM     31  C   UNL     1       6.609   4.814  16.082  0.00  0.00    +0.000 A 
ATOM     32  C   UNL     1       5.661   3.826  15.766  0.00  0.00    +0.000 A 
ATOM     33  C   UNL     1       5.485   3.398  14.446  0.00  0.00    +0.000 A 
ATOM     34  C   UNL     1       6.261   3.943  13.425  0.00  0.00    +0.000 A 
ATOM     35  C   UNL     1       7.225   4.899  13.730  0.00  0.00    +0.000 A 
ATOM     36 CL   UNL     1       8.229   5.529  12.480  0.00  0.00    +0.000 Cl
ATOM     37  C   UNL     1       7.401   5.336  15.045  0.00  0.00    +0.000 A 
ENDBRANCH  30  31
BRANCH  30  38
ATOM     38  O   UNL     1       7.341   4.145  18.285  0.00  0.00    +0.000 OA
ATOM     39  H   UNL     1       7.344   4.413  19.219  0.00  0.00    +0.000 HD
ENDBRANCH  30  38
ENDBRANCH  29  30
ENDBRANCH  27  29
ENDBRANCH   2  27
TORSDOF 7
ENDMDL
MODEL 3
REMARK VINA RESULT:      -9.3      2.258      2.968
REMARK  Name = 
REMARK  9 active torsions:
REMARK  status: ('A' for Active; 'I' for Inactive)
REMARK    1  A    between atoms: C_1  and  C_2
REMARK    2  A    between atoms: C_4  and  N_5
REMARK    3  A    between atoms: N_8  and  C_9
REMARK    4  A    between atoms: C_15  and  C_16
REMARK    5  A    between atoms: C_17  and  N_18
REMARK    6  A    between atoms: N_18  and  C_19
REMARK    7  A    between atoms: C_19  and  C_20
REMARK    8  A    between atoms: C_20  and  O_21
REMARK    9  A    between atoms: C_20  and  C_22
REMARK                            x       y       z     vdW  Elec       q    Type
REMARK                         _______ _______ _______ _____ _____    ______ ____
ROOT
ATOM      1  C   UNL     1       2.887   4.780  19.401  0.00  0.00    +0.000 A 
ATOM      2  C   UNL     1       3.446   4.252  18.279  0.00  0.00    +0.000 A 
ATOM      3  C   UNL     1       3.743   2.836  18.248  0.00  0.00    +0.000 A 
ATOM      4  C   UNL     1       3.470   2.023  19.281  0.00  0.00    +0.000 A 
ATOM      5  N   UNL     1       2.867   2.528  20.395  0.00  0.00    +0.000 N 
ATOM      6  C   UNL     1       2.536   3.855  20.550  0.00  0.00    +0.000 A 
ATOM      7  O   UNL     1       2.015   4.243  21.590  0.00  0.00    +0.000 OA
ATOM      8  H   UNL     1       2.645   1.924  21.177  0.00  0.00    +0.000 HD
ENDROOT
BRANCH   1  16
ATOM      9  C   UNL     1       2.093   9.984  17.497  0.00  0.00    +0.000 C 
ATOM     10  C   UNL     1       1.617   9.490  18.829  0.00  0.00    +0.000 A 
ATOM     11  C   UNL     1       0.806  10.315  19.643  0.00  0.00    +0.000 A 
ATOM     12  C   UNL     1       0.292   9.919  20.891  0.00  0.00    +0.000 A 
ATOM     13  C   UNL     1       0.618   8.632  21.356  0.00  0.00    +0.000 A 
ATOM     14  C   UNL     1       1.426   7.814  20.550  0.00  0.00    +0.000 A 
ATOM     15  N   UNL     1       1.897   6.533  20.706  0.00  0.00    +0.000 N 
ATOM     16  C   UNL     1       2.555   6.154  19.557  0.00  0.00    +0.000 A 
ATOM     17  N   UNL     1       2.652   7.183  18.731  0.00  0.00    +0.000 NA
ATOM     18  C   UNL     1       1.918   8.203  19.311  0.00  0.00    +0.000 A 
ATOM     19  H   UNL     1       1.721   5.933  21.498  0.00  0.00    +0.000 HD
BRANCH  12  20
ATOM     20  N   UNL     1      -0.568  10.776  21.565  0.00  0.00    +0.000 N 
ATOM     21  C   UNL     1      -0.702  10.744  23.028  0.00  0.00    +0.000 C 
ATOM     22  C   UNL     1      -2.138  11.185  23.409  0.00  0.00    +0.000 C 
ATOM     23  N   UNL     1      -2.456  12.544  22.910  0.00  0.00    +0.000 NA
ATOM     24  C   UNL     1      -3.817  12.921  23.282  0.00  0.00    +0.000 C 
ATOM     25  C   UNL     1      -2.279  12.570  21.437  0.00  0.00    +0.000 C 
ATOM     26  C   UNL     1      -0.867  12.103  20.989  0.00  0.00    +0.000 C 
ENDBRANCH  12  20
ENDBRANCH   1  16
BRANCH   2  27
ATOM     27  N   UNL     1       3.849   4.931  17.117  0.00  0.00    +0.000 N 
ATOM     28  H   UNL     1       3.051   5.266  16.574  0.00  0.00    +0.000 HD
BRANCH  27  29
ATOM     29  C   UNL     1       4.839   4.286  16.225  0.00  0.00    +0.000 C 
BRANCH  29  30
ATOM     30  C   UNL     1       5.901   5.278  15.692  0.00  0.00    +0.000 C 
BRANCH  30  31
ATOM     31  C   UNL     1       6.764   5.798  16.827  0.00  0.00    +0.000 A 
ATOM     32  C   UNL     1       7.189   4.918  17.837  0.00  0.00    +0.000 A 
ATOM     33  C   UNL     1       7.959   5.376  18.910  0.00  0.00    +0.000 A 
ATOM     34  C   UNL     1       8.307   6.722  18.996  0.00  0.00    +0.000 A 
ATOM     35  C   UNL     1       7.866   7.610  18.019  0.00  0.00    +0.000 A 
ATOM     36 CL   UNL     1       8.240   9.286  18.154  0.00  0.00    +0.000 Cl
ATOM     37  C   UNL     1       7.102   7.157  16.941  0.00  0.00    +0.000 A 
ENDBRANCH  30  31
BRANCH  30  38
ATOM     38  O   UNL     1       5.296   6.376  14.998  0.00  0.00    +0.000 OA
ATOM     39  H   UNL     1       5.485   6.262  14.052  0.00  0.00    +0.000 HD
ENDBRANCH  30  38
ENDBRANCH  29  30
ENDBRANCH  27  29
ENDBRANCH   2  27
TORSDOF 7
ENDMDL
MODEL 4
REMARK VINA RESULT:      -9.1      1.225      1.638
REMARK  Name = 
REMARK  9 active torsions:
REMARK  status: ('A' for Active; 'I' for Inactive)
REMARK    1  A    between atoms: C_1  and  C_2
REMARK    2  A    between atoms: C_4  and  N_5
REMARK    3  A    between atoms: N_8  and  C_9
REMARK    4  A    between atoms: C_15  and  C_16
REMARK    5  A    between atoms: C_17  and  N_18
REMARK    6  A    between atoms: N_18  and  C_19
REMARK    7  A    between atoms: C_19  and  C_20
REMARK    8  A    between atoms: C_20  and  O_21
REMARK    9  A    between atoms: C_20  and  C_22
REMARK                            x       y       z     vdW  Elec       q    Type
REMARK                         _______ _______ _______ _____ _____    ______ ____
ROOT
ATOM      1  C   UNL     1       2.859   4.911  19.832  0.00  0.00    +0.000 A 
ATOM      2  C   UNL     1       4.099   4.471  19.491  0.00  0.00    +0.000 A 
ATOM      3  C   UNL     1       4.353   3.046  19.469  0.00  0.00    +0.000 A 
ATOM      4  C   UNL     1       3.400   2.144  19.757  0.00  0.00    +0.000 A 
ATOM      5  N   UNL     1       2.139   2.568  20.055  0.00  0.00    +0.000 N 
ATOM      6  C   UNL     1       1.770   3.892  20.111  0.00  0.00    +0.000 A 
ATOM      7  O   UNL     1       0.622   4.202  20.408  0.00  0.00    +0.000 OA
ATOM      8  H   UNL     1       1.408   1.898  20.263  0.00  0.00    +0.000 HD
ENDROOT
BRANCH   1  16
ATOM      9  C   UNL     1       2.001   9.973  17.601  0.00  0.00    +0.000 C 
ATOM     10  C   UNL     1       1.494   9.545  18.944  0.00  0.00    +0.000 A 
ATOM     11  C   UNL     1       0.637  10.395  19.683  0.00  0.00    +0.000 A 
ATOM     12  C   UNL     1       0.092  10.058  20.935  0.00  0.00    +0.000 A 
ATOM     13  C   UNL     1       0.434   8.810  21.485  0.00  0.00    +0.000 A 
ATOM     14  C   UNL     1       1.288   7.967  20.753  0.00  0.00    +0.000 A 
ATOM     15  N   UNL     1       1.784   6.710  20.999  0.00  0.00    +0.000 N 
ATOM     16  C   UNL     1       2.488   6.282  19.896  0.00  0.00    +0.000 A 
ATOM     17  N   UNL     1       2.587   7.264  19.014  0.00  0.00    +0.000 NA
ATOM     18  C   UNL     1       1.810   8.296  19.510  0.00  0.00    +0.000 A 
ATOM     19  H   UNL     1       1.598   6.153  21.820  0.00  0.00    +0.000 HD
BRANCH  12  20
ATOM     20  N   UNL     1      -0.810  10.930  21.530  0.00  0.00    +0.000 N 
ATOM     21  C   UNL     1      -0.896  11.075  22.990  0.00  0.00    +0.000 C 
ATOM     22  C   UNL     1      -2.350  11.457  23.370  0.00  0.00    +0.000 C 
ATOM     23  N   UNL     1      -2.786  12.714  22.717  0.00  0.00    +0.000 NA
ATOM     24  C   UNL     1      -4.161  13.037  23.094  0.00  0.00    +0.000 C 
ATOM     25  C   UNL     1      -2.656  12.565  21.247  0.00  0.00    +0.000 C 
ATOM     26  C   UNL     1      -1.227  12.148  20.805  0.00  0.00    +0.000 C 
ENDBRANCH  12  20
ENDBRANCH   1  16
BRANCH   2  27
ATOM     27  N   UNL     1       5.238   5.242  19.204  0.00  0.00    +0.000 N 
ATOM     28  H   UNL     1       5.146   5.743  18.318  0.00  0.00    +0.000 HD
BRANCH  27  29
ATOM     29  C   UNL     1       6.570   4.602  19.292  0.00  0.00    +0.000 C 
BRANCH  29  30
ATOM     30  C   UNL     1       7.516   5.029  18.143  0.00  0.00    +0.000 C 
BRANCH  30  31
ATOM     31  C   UNL     1       6.727   5.302  16.875  0.00  0.00    +0.000 A 
ATOM     32  C   UNL     1       5.889   6.428  16.807  0.00  0.00    +0.000 A 
ATOM     33  C   UNL     1       5.128   6.686  15.663  0.00  0.00    +0.000 A 
ATOM     34  C   UNL     1       5.185   5.819  14.574  0.00  0.00    +0.000 A 
ATOM     35  C   UNL     1       5.987   4.683  14.642  0.00  0.00    +0.000 A 
ATOM     36 CL   UNL     1       6.013   3.575  13.324  0.00  0.00    +0.000 Cl
ATOM     37  C   UNL     1       6.755   4.423  15.779  0.00  0.00    +0.000 A 
ENDBRANCH  30  31
BRANCH  30  38
ATOM     38  O   UNL     1       8.519   4.037  17.889  0.00  0.00    +0.000 OA
ATOM     39  H   UNL     1       8.290   3.599  17.052  0.00  0.00    +0.000 HD
ENDBRANCH  30  38
ENDBRANCH  29  30
ENDBRANCH  27  29
ENDBRANCH   2  27
TORSDOF 7
ENDMDL
MODEL 5
REMARK VINA RESULT:      -9.1      1.171      1.448
REMARK  Name = 
REMARK  9 active torsions:
REMARK  status: ('A' for Active; 'I' for Inactive)
REMARK    1  A    between atoms: C_1  and  C_2
REMARK    2  A    between atoms: C_4  and  N_5
REMARK    3  A    between atoms: N_8  and  C_9
REMARK    4  A    between atoms: C_15  and  C_16
REMARK    5  A    between atoms: C_17  and  N_18
REMARK    6  A    between atoms: N_18  and  C_19
REMARK    7  A    between atoms: C_19  and  C_20
REMARK    8  A    between atoms: C_20  and  O_21
REMARK    9  A    between atoms: C_20  and  C_22
REMARK                            x       y       z     vdW  Elec       q    Type
REMARK                         _______ _______ _______ _____ _____    ______ ____
ROOT
ATOM      1  C   UNL     1       2.847   4.643  19.559  0.00  0.00    +0.000 A 
ATOM      2  C   UNL     1       4.042   4.136  19.155  0.00  0.00    +0.000 A 
ATOM      3  C   UNL     1       4.203   2.699  19.086  0.00  0.00    +0.000 A 
ATOM      4  C   UNL     1       3.208   1.852  19.392  0.00  0.00    +0.000 A 
ATOM      5  N   UNL     1       1.989   2.345  19.755  0.00  0.00    +0.000 N 
ATOM      6  C   UNL     1       1.708   3.688  19.859  0.00  0.00    +0.000 A 
ATOM      7  O   UNL     1       0.595   4.060  20.213  0.00  0.00    +0.000 OA
ATOM      8  H   UNL     1       1.226   1.717  19.977  0.00  0.00    +0.000 HD
ENDROOT
BRANCH   1  16
ATOM      9  C   UNL     1       1.906   9.748  17.463  0.00  0.00    +0.000 C 
ATOM     10  C   UNL     1       1.608   9.347  18.875  0.00  0.00    +0.000 A 
ATOM     11  C   UNL     1       0.933  10.241  19.739  0.00  0.00    +0.000 A 
ATOM     12  C   UNL     1       0.587   9.933  21.068  0.00  0.00    +0.000 A 
ATOM     13  C   UNL     1       0.947   8.667  21.562  0.00  0.00    +0.000 A 
ATOM     14  C   UNL     1       1.620   7.780  20.706  0.00  0.00    +0.000 A 
ATOM     15  N   UNL     1       2.081   6.497  20.875  0.00  0.00    +0.000 N 
ATOM     16  C   UNL     1       2.567   6.033  19.673  0.00  0.00    +0.000 A 
ATOM     17  N   UNL     1       2.571   7.009  18.780  0.00  0.00    +0.000 NA
ATOM     18  C   UNL     1       1.946   8.082  19.390  0.00  0.00    +0.000 A 
ATOM     19  H   UNL     1       2.004   5.950  21.720  0.00  0.00    +0.000 HD
BRANCH  12  20
ATOM     20  N   UNL     1      -0.154  10.853  21.798  0.00  0.00    +0.000 N 
ATOM     21  C   UNL     1      -0.796  10.493  23.070  0.00  0.00    +0.000 C 
ATOM     22  C   UNL     1      -2.071  11.356  23.250  0.00  0.00    +0.000 C 
ATOM     23  N   UNL     1      -1.770  12.807  23.237  0.00  0.00    +0.000 NA
ATOM     24  C   UNL     1      -2.994  13.586  23.402  0.00  0.00    +0.000 C 
ATOM     25  C   UNL     1      -1.088  13.147  21.964  0.00  0.00    +0.000 C 
ATOM     26  C   UNL     1       0.181  12.289  21.708  0.00  0.00    +0.000 C 
ENDBRANCH  12  20
ENDBRANCH   1  16
BRANCH   2  27
ATOM     27  N   UNL     1       5.214   4.843  18.838  0.00  0.00    +0.000 N 
ATOM     28  H   UNL     1       5.113   5.846  19.005  0.00  0.00    +0.000 HD
BRANCH  27  29
ATOM     29  C   UNL     1       5.852   4.607  17.523  0.00  0.00    +0.000 C 
BRANCH  29  30
ATOM     30  C   UNL     1       4.996   5.123  16.341  0.00  0.00    +0.000 C 
BRANCH  30  31
ATOM     31  C   UNL     1       5.670   4.809  15.017  0.00  0.00    +0.000 A 
ATOM     32  C   UNL     1       5.149   3.795  14.196  0.00  0.00    +0.000 A 
ATOM     33  C   UNL     1       5.768   3.465  12.986  0.00  0.00    +0.000 A 
ATOM     34  C   UNL     1       6.921   4.135  12.584  0.00  0.00    +0.000 A 
ATOM     35  C   UNL     1       7.465   5.119  13.405  0.00  0.00    +0.000 A 
ATOM     36 CL   UNL     1       8.925   5.907  12.942  0.00  0.00    +0.000 Cl
ATOM     37  C   UNL     1       6.848   5.459  14.611  0.00  0.00    +0.000 A 
ENDBRANCH  30  31
BRANCH  30  38
ATOM     38  O   UNL     1       4.752   6.532  16.441  0.00  0.00    +0.000 OA
ATOM     39  H   UNL     1       4.108   6.765  15.752  0.00  0.00    +0.000 HD
ENDBRANCH  30  38
ENDBRANCH  29  30
ENDBRANCH  27  29
ENDBRANCH   2  27
TORSDOF 7
ENDMDL
MODEL 6
REMARK VINA RESULT:      -8.6      2.144      2.792
REMARK  Name = 
REMARK  9 active torsions:
REMARK  status: ('A' for Active; 'I' for Inactive)
REMARK    1  A    between atoms: C_1  and  C_2
REMARK    2  A    between atoms: C_4  and  N_5
REMARK    3  A    between atoms: N_8  and  C_9
REMARK    4  A    between atoms: C_15  and  C_16
REMARK    5  A    between atoms: C_17  and  N_18
REMARK    6  A    between atoms: N_18  and  C_19
REMARK    7  A    between atoms: C_19  and  C_20
REMARK    8  A    between atoms: C_20  and  O_21
REMARK    9  A    between atoms: C_20  and  C_22
REMARK                            x       y       z     vdW  Elec       q    Type
REMARK                         _______ _______ _______ _____ _____    ______ ____
ROOT
ATOM      1  C   UNL     1       2.930   4.842  19.308  0.00  0.00    +0.000 A 
ATOM      2  C   UNL     1       3.644   4.351  18.261  0.00  0.00    +0.000 A 
ATOM      3  C   UNL     1       3.887   2.926  18.189  0.00  0.00    +0.000 A 
ATOM      4  C   UNL     1       3.418   2.072  19.113  0.00  0.00    +0.000 A 
ATOM      5  N   UNL     1       2.661   2.544  20.145  0.00  0.00    +0.000 N 
ATOM      6  C   UNL     1       2.360   3.874  20.326  0.00  0.00    +0.000 A 
ATOM      7  O   UNL     1       1.692   4.230  21.291  0.00  0.00    +0.000 OA
ATOM      8  H   UNL     1       2.291   1.909  20.843  0.00  0.00    +0.000 HD
ENDROOT
BRANCH   1  16
ATOM      9  C   UNL     1       2.043  10.060  17.484  0.00  0.00    +0.000 C 
ATOM     10  C   UNL     1       1.677   9.570  18.851  0.00  0.00    +0.000 A 
ATOM     11  C   UNL     1       0.950  10.404  19.733  0.00  0.00    +0.000 A 
ATOM     12  C   UNL     1       0.540  10.011  21.020  0.00  0.00    +0.000 A 
ATOM     13  C   UNL     1       0.888   8.720  21.454  0.00  0.00    +0.000 A 
ATOM     14  C   UNL     1       1.613   7.893  20.581  0.00  0.00    +0.000 A 
ATOM     15  N   UNL     1       2.079   6.605  20.695  0.00  0.00    +0.000 N 
ATOM     16  C   UNL     1       2.630   6.220  19.493  0.00  0.00    +0.000 A 
ATOM     17  N   UNL     1       2.669   7.249  18.663  0.00  0.00    +0.000 NA
ATOM     18  C   UNL     1       2.002   8.278  19.305  0.00  0.00    +0.000 A 
ATOM     19  H   UNL     1       1.964   6.006  21.499  0.00  0.00    +0.000 HD
BRANCH  12  20
ATOM     20  N   UNL     1      -0.248  10.878  21.767  0.00  0.00    +0.000 N 
ATOM     21  C   UNL     1      -0.753  10.513  23.097  0.00  0.00    +0.000 C 
ATOM     22  C   UNL     1      -2.102  11.238  23.337  0.00  0.00    +0.000 C 
ATOM     23  N   UNL     1      -1.968  12.712  23.243  0.00  0.00    +0.000 NA
ATOM     24  C   UNL     1      -3.259  13.358  23.468  0.00  0.00    +0.000 C 
ATOM     25  C   UNL     1      -1.421  13.061  21.909  0.00  0.00    +0.000 C 
ATOM     26  C   UNL     1      -0.084  12.337  21.594  0.00  0.00    +0.000 C 
ENDBRANCH  12  20
ENDBRANCH   1  16
BRANCH   2  27
ATOM     27  N   UNL     1       4.258   5.072  17.223  0.00  0.00    +0.000 N 
ATOM     28  H   UNL     1       3.701   5.880  16.938  0.00  0.00    +0.000 HD
BRANCH  27  29
ATOM     29  C   UNL     1       4.733   4.335  16.030  0.00  0.00    +0.000 C 
BRANCH  29  30
ATOM     30  C   UNL     1       6.266   4.431  15.838  0.00  0.00    +0.000 C 
BRANCH  30  31
ATOM     31  C   UNL     1       6.873   5.377  16.859  0.00  0.00    +0.000 A 
ATOM     32  C   UNL     1       7.066   6.728  16.527  0.00  0.00    +0.000 A 
ATOM     33  C   UNL     1       7.651   7.613  17.437  0.00  0.00    +0.000 A 
ATOM     34  C   UNL     1       8.063   7.159  18.688  0.00  0.00    +0.000 A 
ATOM     35  C   UNL     1       7.908   5.816  19.017  0.00  0.00    +0.000 A 
ATOM     36 CL   UNL     1       8.472   5.236  20.537  0.00  0.00    +0.000 Cl
ATOM     37  C   UNL     1       7.317   4.928  18.115  0.00  0.00    +0.000 A 
ENDBRANCH  30  31
BRANCH  30  38
ATOM     38  O   UNL     1       6.606   4.861  14.513  0.00  0.00    +0.000 OA
ATOM     39  H   UNL     1       7.465   5.312  14.565  0.00  0.00    +0.000 HD
ENDBRANCH  30  38
ENDBRANCH  29  30
ENDBRANCH  27  29
ENDBRANCH   2  27
TORSDOF 7
ENDMDL
MODEL 7
REMARK VINA RESULT:      -8.4      2.737      3.128
REMARK  Name = 
REMARK  9 active torsions:
REMARK  status: ('A' for Active; 'I' for Inactive)
REMARK    1  A    between atoms: C_1  and  C_2
REMARK    2  A    between atoms: C_4  and  N_5
REMARK    3  A    between atoms: N_8  and  C_9
REMARK    4  A    between atoms: C_15  and  C_16
REMARK    5  A    between atoms: C_17  and  N_18
REMARK    6  A    between atoms: N_18  and  C_19
REMARK    7  A    between atoms: C_19  and  C_20
REMARK    8  A    between atoms: C_20  and  O_21
REMARK    9  A    between atoms: C_20  and  C_22
REMARK                            x       y       z     vdW  Elec       q    Type
REMARK                         _______ _______ _______ _____ _____    ______ ____
ROOT
ATOM      1  C   UNL     1       2.674   4.459  19.717  0.00  0.00    +0.000 A 
ATOM      2  C   UNL     1       3.888   3.898  19.474  0.00  0.00    +0.000 A 
ATOM      3  C   UNL     1       3.992   2.455  19.416  0.00  0.00    +0.000 A 
ATOM      4  C   UNL     1       2.927   1.654  19.577  0.00  0.00    +0.000 A 
ATOM      5  N   UNL     1       1.694   2.202  19.776  0.00  0.00    +0.000 N 
ATOM      6  C   UNL     1       1.463   3.556  19.853  0.00  0.00    +0.000 A 
ATOM      7  O   UNL     1       0.330   3.978  20.056  0.00  0.00    +0.000 OA
ATOM      8  H   UNL     1       0.880   1.609  19.888  0.00  0.00    +0.000 HD
ENDROOT
BRANCH   1  16
ATOM      9  C   UNL     1       2.002   9.566  17.524  0.00  0.00    +0.000 C 
ATOM     10  C   UNL     1       1.642   9.197  18.931  0.00  0.00    +0.000 A 
ATOM     11  C   UNL     1       0.973  10.128  19.760  0.00  0.00    +0.000 A 
ATOM     12  C   UNL     1       0.571   9.852  21.080  0.00  0.00    +0.000 A 
ATOM     13  C   UNL     1       0.865   8.581  21.603  0.00  0.00    +0.000 A 
ATOM     14  C   UNL     1       1.532   7.656  20.781  0.00  0.00    +0.000 A 
ATOM     15  N   UNL     1       1.937   6.359  20.982  0.00  0.00    +0.000 N 
ATOM     16  C   UNL     1       2.445   5.860  19.804  0.00  0.00    +0.000 A 
ATOM     17  N   UNL     1       2.516   6.822  18.899  0.00  0.00    +0.000 NA
ATOM     18  C   UNL     1       1.913   7.927  19.474  0.00  0.00    +0.000 A 
ATOM     19  H   UNL     1       1.811   5.828  21.831  0.00  0.00    +0.000 HD
BRANCH  12  20
ATOM     20  N   UNL     1      -0.158  10.810  21.772  0.00  0.00    +0.000 N 
ATOM     21  C   UNL     1      -0.722  10.539  23.102  0.00  0.00    +0.000 C 
ATOM     22  C   UNL     1      -2.011  11.382  23.279  0.00  0.00    +0.000 C 
ATOM     23  N   UNL     1      -1.753  12.835  23.134  0.00  0.00    +0.000 NA
ATOM     24  C   UNL     1      -2.990  13.594  23.301  0.00  0.00    +0.000 C 
ATOM     25  C   UNL     1      -1.148  13.086  21.803  0.00  0.00    +0.000 C 
ATOM     26  C   UNL     1       0.131  12.242  21.550  0.00  0.00    +0.000 C 
ENDBRANCH  12  20
ENDBRANCH   1  16
BRANCH   2  27
ATOM     27  N   UNL     1       5.124   4.551  19.325  0.00  0.00    +0.000 N 
ATOM     28  H   UNL     1       5.027   5.567  19.373  0.00  0.00    +0.000 HD
BRANCH  27  29
ATOM     29  C   UNL     1       5.992   4.175  18.186  0.00  0.00    +0.000 C 
BRANCH  29  30
ATOM     30  C   UNL     1       7.417   4.769  18.298  0.00  0.00    +0.000 C 
BRANCH  30  31
ATOM     31  C   UNL     1       7.392   6.267  18.052  0.00  0.00    +0.000 A 
ATOM     32  C   UNL     1       6.495   6.802  17.112  0.00  0.00    +0.000 A 
ATOM     33  C   UNL     1       6.472   8.174  16.844  0.00  0.00    +0.000 A 
ATOM     34  C   UNL     1       7.352   9.030  17.503  0.00  0.00    +0.000 A 
ATOM     35  C   UNL     1       8.267   8.508  18.413  0.00  0.00    +0.000 A 
ATOM     36 CL   UNL     1       9.398   9.553  19.183  0.00  0.00    +0.000 Cl
ATOM     37  C   UNL     1       8.290   7.139  18.690  0.00  0.00    +0.000 A 
ENDBRANCH  30  31
BRANCH  30  38
ATOM     38  O   UNL     1       8.324   4.140  17.384  0.00  0.00    +0.000 OA
ATOM     39  H   UNL     1       7.830   3.944  16.571  0.00  0.00    +0.000 HD
ENDBRANCH  30  38
ENDBRANCH  29  30
ENDBRANCH  27  29
ENDBRANCH   2  27
TORSDOF 7
ENDMDL
MODEL 8
REMARK VINA RESULT:      -8.3      3.218      5.424
REMARK  Name = 
REMARK  9 active torsions:
REMARK  status: ('A' for Active; 'I' for Inactive)
REMARK    1  A    between atoms: C_1  and  C_2
REMARK    2  A    between atoms: C_4  and  N_5
REMARK    3  A    between atoms: N_8  and  C_9
REMARK    4  A    between atoms: C_15  and  C_16
REMARK    5  A    between atoms: C_17  and  N_18
REMARK    6  A    between atoms: N_18  and  C_19
REMARK    7  A    between atoms: C_19  and  C_20
REMARK    8  A    between atoms: C_20  and  O_21
REMARK    9  A    between atoms: C_20  and  C_22
REMARK                            x       y       z     vdW  Elec       q    Type
REMARK                         _______ _______ _______ _____ _____    ______ ____
ROOT
ATOM      1  C   UNL     1       4.993   5.830  17.107  0.00  0.00    +0.000 A 
ATOM      2  C   UNL     1       5.706   4.860  17.739  0.00  0.00    +0.000 A 
ATOM      3  C   UNL     1       6.797   4.223  17.032  0.00  0.00    +0.000 A 
ATOM      4  C   UNL     1       7.138   4.569  15.781  0.00  0.00    +0.000 A 
ATOM      5  N   UNL     1       6.462   5.572  15.150  0.00  0.00    +0.000 N 
ATOM      6  C   UNL     1       5.408   6.253  15.711  0.00  0.00    +0.000 A 
ATOM      7  O   UNL     1       4.831   7.130  15.077  0.00  0.00    +0.000 OA
ATOM      8  H   UNL     1       6.717   5.850  14.210  0.00  0.00    +0.000 HD
ENDROOT
BRANCH   1  16
ATOM      9  C   UNL     1       1.290   6.805  21.191  0.00  0.00    +0.000 C 
ATOM     10  C   UNL     1       1.579   7.754  20.069  0.00  0.00    +0.000 A 
ATOM     11  C   UNL     1       0.995   9.042  20.061  0.00  0.00    +0.000 A 
ATOM     12  C   UNL     1       1.236  10.004  19.063  0.00  0.00    +0.000 A 
ATOM     13  C   UNL     1       2.098   9.654  18.009  0.00  0.00    +0.000 A 
ATOM     14  C   UNL     1       2.676   8.373  18.015  0.00  0.00    +0.000 A 
ATOM     15  N   UNL     1       3.552   7.747  17.161  0.00  0.00    +0.000 N 
ATOM     16  C   UNL     1       3.898   6.525  17.692  0.00  0.00    +0.000 A 
ATOM     17  N   UNL     1       3.175   6.279  18.771  0.00  0.00    +0.000 NA
ATOM     18  C   UNL     1       2.448   7.432  19.009  0.00  0.00    +0.000 A 
ATOM     19  H   UNL     1       3.944   8.147  16.322  0.00  0.00    +0.000 HD
BRANCH  12  20
ATOM     20  N   UNL     1       0.681  11.269  19.203  0.00  0.00    +0.000 N 
ATOM     21  C   UNL     1      -0.619  11.613  18.608  0.00  0.00    +0.000 C 
ATOM     22  C   UNL     1      -0.628  13.125  18.266  0.00  0.00    +0.000 C 
ATOM     23  N   UNL     1      -0.388  13.969  19.460  0.00  0.00    +0.000 NA
ATOM     24  C   UNL     1      -0.398  15.384  19.098  0.00  0.00    +0.000 C 
ATOM     25  C   UNL     1       0.907  13.584  20.071  0.00  0.00    +0.000 C 
ATOM     26  C   UNL     1       0.992  12.070  20.405  0.00  0.00    +0.000 C 
ENDBRANCH  12  20
ENDBRANCH   1  16
BRANCH   2  27
ATOM     27  N   UNL     1       5.485   4.324  19.019  0.00  0.00    +0.000 N 
ATOM     28  H   UNL     1       6.163   4.669  19.701  0.00  0.00    +0.000 HD
BRANCH  27  29
ATOM     29  C   UNL     1       5.325   2.858  19.156  0.00  0.00    +0.000 C 
BRANCH  29  30
ATOM     30  C   UNL     1       4.178   2.297  18.281  0.00  0.00    +0.000 C 
BRANCH  30  31
ATOM     31  C   UNL     1       2.828   2.636  18.888  0.00  0.00    +0.000 A 
ATOM     32  C   UNL     1       1.833   3.221  18.087  0.00  0.00    +0.000 A 
ATOM     33  C   UNL     1       0.592   3.572  18.627  0.00  0.00    +0.000 A 
ATOM     34  C   UNL     1       0.331   3.353  19.978  0.00  0.00    +0.000 A 
ATOM     35  C   UNL     1       1.320   2.804  20.789  0.00  0.00    +0.000 A 
ATOM     36 CL   UNL     1       1.024   2.591  22.472  0.00  0.00    +0.000 Cl
ATOM     37  C   UNL     1       2.559   2.445  20.254  0.00  0.00    +0.000 A 
ENDBRANCH  30  31
BRANCH  30  38
ATOM     38  O   UNL     1       4.291   0.879  18.108  0.00  0.00    +0.000 OA
ATOM     39  H   UNL     1       3.503   0.473  18.505  0.00  0.00    +0.000 HD
ENDBRANCH  30  38
ENDBRANCH  29  30
ENDBRANCH  27  29
ENDBRANCH   2  27
TORSDOF 7
ENDMDL
MODEL 9
REMARK VINA RESULT:      -8.2      1.292      1.859
REMARK  Name = 
REMARK  9 active torsions:
REMARK  status: ('A' for Active; 'I' for Inactive)
REMARK    1  A    between atoms: C_1  and  C_2
REMARK    2  A    between atoms: C_4  and  N_5
REMARK    3  A    between atoms: N_8  and  C_9
REMARK    4  A    between atoms: C_15  and  C_16
REMARK    5  A    between atoms: C_17  and  N_18
REMARK    6  A    between atoms: N_18  and  C_19
REMARK    7  A    between atoms: C_19  and  C_20
REMARK    8  A    between atoms: C_20  and  O_21
REMARK    9  A    between atoms: C_20  and  C_22
REMARK                            x       y       z     vdW  Elec       q    Type
REMARK                         _______ _______ _______ _____ _____    ______ ____
ROOT
ATOM      1  C   UNL     1       2.481   5.209  19.944  0.00  0.00    +0.000 A 
ATOM      2  C   UNL     1       3.696   4.691  19.620  0.00  0.00    +0.000 A 
ATOM      3  C   UNL     1       3.865   3.253  19.625  0.00  0.00    +0.000 A 
ATOM      4  C   UNL     1       2.859   2.414  19.921  0.00  0.00    +0.000 A 
ATOM      5  N   UNL     1       1.623   2.917  20.203  0.00  0.00    +0.000 N 
ATOM      6  C   UNL     1       1.333   4.261  20.233  0.00  0.00    +0.000 A 
ATOM      7  O   UNL     1       0.203   4.643  20.517  0.00  0.00    +0.000 OA
ATOM      8  H   UNL     1       0.852   2.295  20.417  0.00  0.00    +0.000 HD
ENDROOT
BRANCH   1  16
ATOM      9  C   UNL     1       2.009  10.287  17.635  0.00  0.00    +0.000 C 
ATOM     10  C   UNL     1       1.430   9.906  18.963  0.00  0.00    +0.000 A 
ATOM     11  C   UNL     1       0.600  10.814  19.662  0.00  0.00    +0.000 A 
ATOM     12  C   UNL     1      -0.008  10.525  20.897  0.00  0.00    +0.000 A 
ATOM     13  C   UNL     1       0.238   9.265  21.471  0.00  0.00    +0.000 A 
ATOM     14  C   UNL     1       1.065   8.364  20.779  0.00  0.00    +0.000 A 
ATOM     15  N   UNL     1       1.476   7.083  21.055  0.00  0.00    +0.000 N 
ATOM     16  C   UNL     1       2.192   6.601  19.981  0.00  0.00    +0.000 A 
ATOM     17  N   UNL     1       2.380   7.564  19.095  0.00  0.00    +0.000 NA
ATOM     18  C   UNL     1       1.650   8.647  19.553  0.00  0.00    +0.000 A 
ATOM     19  H   UNL     1       1.228   6.548  21.873  0.00  0.00    +0.000 HD
BRANCH  12  20
ATOM     20  N   UNL     1      -0.876  11.456  21.451  0.00  0.00    +0.000 N 
ATOM     21  C   UNL     1      -1.917  12.116  20.650  0.00  0.00    +0.000 C 
ATOM     22  C   UNL     1      -2.183  13.525  21.238  0.00  0.00    +0.000 C 
ATOM     23  N   UNL     1      -2.609  13.467  22.656  0.00  0.00    +0.000 NA
ATOM     24  C   UNL     1      -2.844  14.812  23.176  0.00  0.00    +0.000 C 
ATOM     25  C   UNL     1      -1.567  12.765  23.444  0.00  0.00    +0.000 C 
ATOM     26  C   UNL     1      -1.229  11.357  22.883  0.00  0.00    +0.000 C 
ENDBRANCH  12  20
ENDBRANCH   1  16
BRANCH   2  27
ATOM     27  N   UNL     1       4.880   5.389  19.328  0.00  0.00    +0.000 N 
ATOM     28  H   UNL     1       4.718   6.158  18.675  0.00  0.00    +0.000 HD
BRANCH  27  29
ATOM     29  C   UNL     1       6.076   4.618  18.921  0.00  0.00    +0.000 C 
BRANCH  29  30
ATOM     30  C   UNL     1       6.947   5.367  17.883  0.00  0.00    +0.000 C 
BRANCH  30  31
ATOM     31  C   UNL     1       6.596   4.925  16.473  0.00  0.00    +0.000 A 
ATOM     32  C   UNL     1       5.528   4.037  16.269  0.00  0.00    +0.000 A 
ATOM     33  C   UNL     1       5.203   3.590  14.984  0.00  0.00    +0.000 A 
ATOM     34  C   UNL     1       5.948   4.016  13.887  0.00  0.00    +0.000 A 
ATOM     35  C   UNL     1       7.029   4.871  14.080  0.00  0.00    +0.000 A 
ATOM     36 CL   UNL     1       7.991   5.351  12.734  0.00  0.00    +0.000 Cl
ATOM     37  C   UNL     1       7.354   5.326  15.360  0.00  0.00    +0.000 A 
ENDBRANCH  30  31
BRANCH  30  38
ATOM     38  O   UNL     1       8.345   5.166  18.123  0.00  0.00    +0.000 OA
ATOM     39  H   UNL     1       8.550   5.551  18.991  0.00  0.00    +0.000 HD
ENDBRANCH  30  38
ENDBRANCH  29  30
ENDBRANCH  27  29
ENDBRANCH   2  27
TORSDOF 7
ENDMDL
