MODEL 1
REMARK VINA RESULT:      -8.5      0.000      0.000
REMARK  Name = 
REMARK  10 active torsions:
REMARK  status: ('A' for Active; 'I' for Inactive)
REMARK    1  A    between atoms: C_2  and  CA_14
REMARK    2  A    between atoms: N_3  and  CA_4
REMARK    3  A    between atoms: CA_4  and  C_5
REMARK    4  A    between atoms: CA_4  and  CB_7
REMARK    5  A    between atoms: C_5  and  O_6
REMARK    6  A    between atoms: CB_7  and  CG_8
REMARK    7  A    between atoms: CA_14  and  N_23
REMARK    8  A    between atoms: CB_15  and  CG_16
REMARK    9  A    between atoms: CZ_19  and  OH_20
REMARK   10  A    between atoms: C_24  and  C_26
REMARK                            x       y       z     vdW  Elec       q    Type
REMARK                         _______ _______ _______ _____ _____    ______ ____
ROOT
ATOM      1  CA  TYR A   1       4.244   4.194  17.292  0.00  0.00    +0.000 C 
ATOM      2  CB  TYR A   1       3.711   3.056  17.779  0.00  0.00    +0.000 C 
ENDROOT
BRANCH   2   3
ATOM      3  CG  TYR A   1       2.939   2.783  18.999  0.00  0.00    +0.000 A 
ATOM      4  CD1 TYR A   1       3.620   2.521  20.196  0.00  0.00    +0.000 A 
ATOM      5  CE1 TYR A   1       2.927   2.453  21.406  0.00  0.00    +0.000 A 
ATOM      6  CZ  TYR A   1       1.553   2.667  21.419  0.00  0.00    +0.000 A 
ATOM      7  CE2 TYR A   1       0.859   2.899  20.236  0.00  0.00    +0.000 A 
ATOM      8  CD2 TYR A   1       1.551   2.952  19.022  0.00  0.00    +0.000 A 
BRANCH   6   9
ATOM      9  OH  TYR A   1       0.846   2.674  22.584  0.00  0.00    +0.000 OA
ATOM     10  HH  TYR A   1       1.360   3.157  23.253  0.00  0.00    +0.000 HD
ENDBRANCH   6   9
ENDBRANCH   2   3
BRANCH   1  12
ATOM     11  O   TYR A   1       4.939   5.826  18.939  0.00  0.00    +0.000 OA
ATOM     12  C   TYR A   1       4.133   5.493  18.065  0.00  0.00    +0.000 C 
ATOM     13  N   TYR A   1       3.032   6.291  17.784  0.00  0.00    +0.000 N 
ATOM     14  H   TYR A   1       2.463   6.116  16.968  0.00  0.00    +0.000 HD
BRANCH  13  15
ATOM     15  CA  TYR A   1       2.813   7.537  18.541  0.00  0.00    +0.000 C 
BRANCH  15  16
ATOM     16  C   TYR A   1       1.895   7.292  19.763  0.00  0.00    +0.000 C 
BRANCH  16  17
ATOM     17  O   TYR A   1       2.364   6.243  20.607  0.00  0.00    +0.000 OA
ATOM     18  H   TYR A   1       3.158   5.849  20.184  0.00  0.00    +0.000 HD
ENDBRANCH  16  17
ENDBRANCH  15  16
BRANCH  15  19
ATOM     19  CB  TYR A   1       2.236   8.680  17.682  0.00  0.00    +0.000 C 
BRANCH  19  20
ATOM     20  CG  TYR A   1       1.163   9.497  18.365  0.00  0.00    +0.000 A 
ATOM     21  CD1 TYR A   1       1.471  10.291  19.479  0.00  0.00    +0.000 A 
ATOM     22  CE1 TYR A   1       0.488  11.082  20.078  0.00  0.00    +0.000 A 
ATOM     23  CZ  TYR A   1      -0.810  11.091  19.571  0.00  0.00    +0.000 A 
ATOM     24  CE2 TYR A   1      -1.129  10.299  18.470  0.00  0.00    +0.000 A 
ATOM     25  CD2 TYR A   1      -0.150   9.509  17.870  0.00  0.00    +0.000 A 
ENDBRANCH  19  20
ENDBRANCH  15  19
ENDBRANCH  13  15
ENDBRANCH   1  12
BRANCH   1  26
ATOM     26  N   TYR A   1       4.865   4.264  16.042  0.00  0.00    +0.000 N 
ATOM     27  C   UNK A   0       6.228   4.300  15.767  0.00  0.00    +0.000 C 
ATOM     28  O   UNK A   0       7.133   4.266  16.593  0.00  0.00    +0.000 OA
ATOM     29  H   TYR A   1       4.234   4.229  15.258  0.00  0.00    +0.000 HD
BRANCH  27  30
ATOM     30  C   UNK A   0       6.617   4.442  14.336  0.00  0.00    +0.000 A 
ATOM     31  C   UNK A   0       5.968   3.611  13.409  0.00  0.00    +0.000 A 
ATOM     32  C   UNK A   0       6.314   3.647  12.060  0.00  0.00    +0.000 A 
ATOM     33  C   UNK A   0       7.308   4.521  11.624  0.00  0.00    +0.000 A 
ATOM     34  C   UNK A   0       7.938   5.371  12.534  0.00  0.00    +0.000 A 
ATOM     35  C   UNK A   0       7.591   5.342  13.888  0.00  0.00    +0.000 A 
ENDBRANCH  27  30
ENDBRANCH   1  26
TORSDOF 10
ENDMDL
MODEL 2
REMARK VINA RESULT:      -8.4      0.630      1.568
REMARK  Name = 
REMARK  10 active torsions:
REMARK  status: ('A' for Active; 'I' for Inactive)
REMARK    1  A    between atoms: C_2  and  CA_14
REMARK    2  A    between atoms: N_3  and  CA_4
REMARK    3  A    between atoms: CA_4  and  C_5
REMARK    4  A    between atoms: CA_4  and  CB_7
REMARK    5  A    between atoms: C_5  and  O_6
REMARK    6  A    between atoms: CB_7  and  CG_8
REMARK    7  A    between atoms: CA_14  and  N_23
REMARK    8  A    between atoms: CB_15  and  CG_16
REMARK    9  A    between atoms: CZ_19  and  OH_20
REMARK   10  A    between atoms: C_24  and  C_26
REMARK                            x       y       z     vdW  Elec       q    Type
REMARK                         _______ _______ _______ _____ _____    ______ ____
ROOT
ATOM      1  CA  TYR A   1       4.199   4.482  17.232  0.00  0.00    +0.000 C 
ATOM      2  CB  TYR A   1       3.699   3.415  17.884  0.00  0.00    +0.000 C 
ENDROOT
BRANCH   2   3
ATOM      3  CG  TYR A   1       2.944   3.303  19.140  0.00  0.00    +0.000 A 
ATOM      4  CD1 TYR A   1       1.546   3.398  19.109  0.00  0.00    +0.000 A 
ATOM      5  CE1 TYR A   1       0.790   3.102  20.245  0.00  0.00    +0.000 A 
ATOM      6  CZ  TYR A   1       1.435   2.691  21.407  0.00  0.00    +0.000 A 
ATOM      7  CE2 TYR A   1       2.823   2.620  21.461  0.00  0.00    +0.000 A 
ATOM      8  CD2 TYR A   1       3.581   2.931  20.328  0.00  0.00    +0.000 A 
BRANCH   6   9
ATOM      9  OH  TYR A   1       0.734   2.331  22.519  0.00  0.00    +0.000 OA
ATOM     10  HH  TYR A   1       1.259   1.681  23.016  0.00  0.00    +0.000 HD
ENDBRANCH   6   9
ENDBRANCH   2   3
BRANCH   1  12
ATOM     11  O   TYR A   1       5.016   6.504  18.283  0.00  0.00    +0.000 OA
ATOM     12  C   TYR A   1       4.063   5.876  17.810  0.00  0.00    +0.000 C 
ATOM     13  N   TYR A   1       2.784   6.416  17.838  0.00  0.00    +0.000 N 
ATOM     14  H   TYR A   1       2.033   5.991  17.313  0.00  0.00    +0.000 HD
BRANCH  13  15
ATOM     15  CA  TYR A   1       2.555   7.739  18.448  0.00  0.00    +0.000 C 
BRANCH  15  16
ATOM     16  C   TYR A   1       1.946   7.600  19.864  0.00  0.00    +0.000 C 
BRANCH  16  17
ATOM     17  O   TYR A   1       2.486   6.501  20.594  0.00  0.00    +0.000 OA
ATOM     18  H   TYR A   1       1.938   6.376  21.399  0.00  0.00    +0.000 HD
ENDBRANCH  16  17
ENDBRANCH  15  16
BRANCH  15  19
ATOM     19  CB  TYR A   1       1.665   8.661  17.590  0.00  0.00    +0.000 C 
BRANCH  19  20
ATOM     20  CG  TYR A   1       1.220   9.927  18.287  0.00  0.00    +0.000 A 
ATOM     21  CD1 TYR A   1      -0.037   9.997  18.904  0.00  0.00    +0.000 A 
ATOM     22  CE1 TYR A   1      -0.425  11.152  19.588  0.00  0.00    +0.000 A 
ATOM     23  CZ  TYR A   1       0.436  12.244  19.665  0.00  0.00    +0.000 A 
ATOM     24  CE2 TYR A   1       1.683  12.189  19.047  0.00  0.00    +0.000 A 
ATOM     25  CD2 TYR A   1       2.074  11.037  18.364  0.00  0.00    +0.000 A 
ENDBRANCH  19  20
ENDBRANCH  15  19
ENDBRANCH  13  15
ENDBRANCH   1  12
BRANCH   1  26
ATOM     26  N   TYR A   1       4.807   4.385  15.977  0.00  0.00    +0.000 N 
ATOM     27  C   UNK A   0       6.165   4.287  15.692  0.00  0.00    +0.000 C 
ATOM     28  O   UNK A   0       7.075   4.260  16.512  0.00  0.00    +0.000 OA
ATOM     29  H   TYR A   1       4.165   4.327  15.204  0.00  0.00    +0.000 HD
BRANCH  27  30
ATOM     30  C   UNK A   0       6.545   4.263  14.252  0.00  0.00    +0.000 A 
ATOM     31  C   UNK A   0       7.525   5.178  13.833  0.00  0.00    +0.000 A 
ATOM     32  C   UNK A   0       7.898   5.253  12.492  0.00  0.00    +0.000 A 
ATOM     33  C   UNK A   0       7.298   4.409  11.559  0.00  0.00    +0.000 A 
ATOM     34  C   UNK A   0       6.345   3.478  11.972  0.00  0.00    +0.000 A 
ATOM     35  C   UNK A   0       5.970   3.396  13.316  0.00  0.00    +0.000 A 
ENDBRANCH  27  30
ENDBRANCH   1  26
TORSDOF 10
ENDMDL
MODEL 3
REMARK VINA RESULT:      -8.2      0.517      1.010
REMARK  Name = 
REMARK  10 active torsions:
REMARK  status: ('A' for Active; 'I' for Inactive)
REMARK    1  A    between atoms: C_2  and  CA_14
REMARK    2  A    between atoms: N_3  and  CA_4
REMARK    3  A    between atoms: CA_4  and  C_5
REMARK    4  A    between atoms: CA_4  and  CB_7
REMARK    5  A    between atoms: C_5  and  O_6
REMARK    6  A    between atoms: CB_7  and  CG_8
REMARK    7  A    between atoms: CA_14  and  N_23
REMARK    8  A    between atoms: CB_15  and  CG_16
REMARK    9  A    between atoms: CZ_19  and  OH_20
REMARK   10  A    between atoms: C_24  and  C_26
REMARK                            x       y       z     vdW  Elec       q    Type
REMARK                         _______ _______ _______ _____ _____    ______ ____
ROOT
ATOM      1  CA  TYR A   1       4.185   4.552  17.311  0.00  0.00    +0.000 C 
ATOM      2  CB  TYR A   1       3.680   3.472  17.938  0.00  0.00    +0.000 C 
ENDROOT
BRANCH   2   3
ATOM      3  CG  TYR A   1       2.927   3.334  19.193  0.00  0.00    +0.000 A 
ATOM      4  CD1 TYR A   1       1.529   3.428  19.166  0.00  0.00    +0.000 A 
ATOM      5  CE1 TYR A   1       0.774   3.108  20.297  0.00  0.00    +0.000 A 
ATOM      6  CZ  TYR A   1       1.422   2.675  21.449  0.00  0.00    +0.000 A 
ATOM      7  CE2 TYR A   1       2.810   2.604  21.500  0.00  0.00    +0.000 A 
ATOM      8  CD2 TYR A   1       3.566   2.939  20.373  0.00  0.00    +0.000 A 
BRANCH   6   9
ATOM      9  OH  TYR A   1       0.723   2.291  22.555  0.00  0.00    +0.000 OA
ATOM     10  HH  TYR A   1       0.993   1.388  22.791  0.00  0.00    +0.000 HD
ENDBRANCH   6   9
ENDBRANCH   2   3
BRANCH   1  12
ATOM     11  O   TYR A   1       5.025   6.568  18.355  0.00  0.00    +0.000 OA
ATOM     12  C   TYR A   1       4.058   5.932  17.923  0.00  0.00    +0.000 C 
ATOM     13  N   TYR A   1       2.773   6.448  18.033  0.00  0.00    +0.000 N 
ATOM     14  H   TYR A   1       2.002   6.020  17.541  0.00  0.00    +0.000 HD
BRANCH  13  15
ATOM     15  CA  TYR A   1       2.556   7.755  18.680  0.00  0.00    +0.000 C 
BRANCH  15  16
ATOM     16  C   TYR A   1       1.542   7.637  19.844  0.00  0.00    +0.000 C 
BRANCH  16  17
ATOM     17  O   TYR A   1       2.130   7.893  21.118  0.00  0.00    +0.000 OA
ATOM     18  H   TYR A   1       1.772   7.234  21.751  0.00  0.00    +0.000 HD
ENDBRANCH  16  17
ENDBRANCH  15  16
BRANCH  15  19
ATOM     19  CB  TYR A   1       2.095   8.852  17.700  0.00  0.00    +0.000 C 
BRANCH  19  20
ATOM     20  CG  TYR A   1       1.024   9.770  18.247  0.00  0.00    +0.000 A 
ATOM     21  CD1 TYR A   1       1.361  10.833  19.096  0.00  0.00    +0.000 A 
ATOM     22  CE1 TYR A   1       0.376  11.708  19.560  0.00  0.00    +0.000 A 
ATOM     23  CZ  TYR A   1      -0.953  11.532  19.179  0.00  0.00    +0.000 A 
ATOM     24  CE2 TYR A   1      -1.301  10.474  18.344  0.00  0.00    +0.000 A 
ATOM     25  CD2 TYR A   1      -0.319   9.599  17.878  0.00  0.00    +0.000 A 
ENDBRANCH  19  20
ENDBRANCH  15  19
ENDBRANCH  13  15
ENDBRANCH   1  12
BRANCH   1  26
ATOM     26  N   TYR A   1       4.791   4.482  16.053  0.00  0.00    +0.000 N 
ATOM     27  C   UNK A   0       6.148   4.410  15.763  0.00  0.00    +0.000 C 
ATOM     28  O   UNK A   0       7.062   4.386  16.580  0.00  0.00    +0.000 OA
ATOM     29  H   TYR A   1       4.147   4.424  15.282  0.00  0.00    +0.000 HD
BRANCH  27  30
ATOM     30  C   UNK A   0       6.525   4.411  14.322  0.00  0.00    +0.000 A 
ATOM     31  C   UNK A   0       5.851   3.509  13.482  0.00  0.00    +0.000 A 
ATOM     32  C   UNK A   0       6.182   3.413  12.132  0.00  0.00    +0.000 A 
ATOM     33  C   UNK A   0       7.187   4.225  11.607  0.00  0.00    +0.000 A 
ATOM     34  C   UNK A   0       7.841   5.144  12.428  0.00  0.00    +0.000 A 
ATOM     35  C   UNK A   0       7.509   5.247  13.782  0.00  0.00    +0.000 A 
ENDBRANCH  27  30
ENDBRANCH   1  26
TORSDOF 10
ENDMDL
MODEL 4
REMARK VINA RESULT:      -7.8      1.356      2.155
REMARK  Name = 
REMARK  10 active torsions:
REMARK  status: ('A' for Active; 'I' for Inactive)
REMARK    1  A    between atoms: C_2  and  CA_14
REMARK    2  A    between atoms: N_3  and  CA_4
REMARK    3  A    between atoms: CA_4  and  C_5
REMARK    4  A    between atoms: CA_4  and  CB_7
REMARK    5  A    between atoms: C_5  and  O_6
REMARK    6  A    between atoms: CB_7  and  CG_8
REMARK    7  A    between atoms: CA_14  and  N_23
REMARK    8  A    between atoms: CB_15  and  CG_16
REMARK    9  A    between atoms: CZ_19  and  OH_20
REMARK   10  A    between atoms: C_24  and  C_26
REMARK                            x       y       z     vdW  Elec       q    Type
REMARK                         _______ _______ _______ _____ _____    ______ ____
ROOT
ATOM      1  CA  TYR A   1       4.030   4.494  17.293  0.00  0.00    +0.000 C 
ATOM      2  CB  TYR A   1       3.639   3.413  17.995  0.00  0.00    +0.000 C 
ENDROOT
BRANCH   2   3
ATOM      3  CG  TYR A   1       2.880   3.283  19.248  0.00  0.00    +0.000 A 
ATOM      4  CD1 TYR A   1       1.480   3.311  19.205  0.00  0.00    +0.000 A 
ATOM      5  CE1 TYR A   1       0.729   2.996  20.340  0.00  0.00    +0.000 A 
ATOM      6  CZ  TYR A   1       1.384   2.632  21.512  0.00  0.00    +0.000 A 
ATOM      7  CE2 TYR A   1       2.774   2.628  21.577  0.00  0.00    +0.000 A 
ATOM      8  CD2 TYR A   1       3.525   2.959  20.445  0.00  0.00    +0.000 A 
BRANCH   6   9
ATOM      9  OH  TYR A   1       0.693   2.254  22.624  0.00  0.00    +0.000 OA
ATOM     10  HH  TYR A   1      -0.235   2.523  22.516  0.00  0.00    +0.000 HD
ENDBRANCH   6   9
ENDBRANCH   2   3
BRANCH   1  12
ATOM     11  O   TYR A   1       4.618   6.689  18.126  0.00  0.00    +0.000 OA
ATOM     12  C   TYR A   1       3.734   5.892  17.796  0.00  0.00    +0.000 C 
ATOM     13  N   TYR A   1       2.395   6.236  17.926  0.00  0.00    +0.000 N 
ATOM     14  H   TYR A   1       1.673   5.665  17.510  0.00  0.00    +0.000 HD
BRANCH  13  15
ATOM     15  CA  TYR A   1       2.021   7.552  18.475  0.00  0.00    +0.000 C 
BRANCH  15  16
ATOM     16  C   TYR A   1       2.847   8.684  17.816  0.00  0.00    +0.000 C 
BRANCH  16  17
ATOM     17  O   TYR A   1       2.030   9.699  17.237  0.00  0.00    +0.000 OA
ATOM     18  H   TYR A   1       2.045  10.475  17.837  0.00  0.00    +0.000 HD
ENDBRANCH  16  17
ENDBRANCH  15  16
BRANCH  15  19
ATOM     19  CB  TYR A   1       2.160   7.636  20.008  0.00  0.00    +0.000 C 
BRANCH  19  20
ATOM     20  CG  TYR A   1       1.240   8.640  20.667  0.00  0.00    +0.000 A 
ATOM     21  CD1 TYR A   1       0.376   9.429  19.894  0.00  0.00    +0.000 A 
ATOM     22  CE1 TYR A   1      -0.506  10.321  20.508  0.00  0.00    +0.000 A 
ATOM     23  CZ  TYR A   1      -0.537  10.432  21.897  0.00  0.00    +0.000 A 
ATOM     24  CE2 TYR A   1       0.323   9.659  22.673  0.00  0.00    +0.000 A 
ATOM     25  CD2 TYR A   1       1.205   8.767  22.063  0.00  0.00    +0.000 A 
ENDBRANCH  19  20
ENDBRANCH  15  19
ENDBRANCH  13  15
ENDBRANCH   1  12
BRANCH   1  26
ATOM     26  N   TYR A   1       4.666   4.401  16.052  0.00  0.00    +0.000 N 
ATOM     27  C   UNK A   0       6.032   4.367  15.793  0.00  0.00    +0.000 C 
ATOM     28  O   UNK A   0       6.927   4.406  16.629  0.00  0.00    +0.000 OA
ATOM     29  H   TYR A   1       4.042   4.291  15.269  0.00  0.00    +0.000 HD
BRANCH  27  30
ATOM     30  C   UNK A   0       6.440   4.330  14.361  0.00  0.00    +0.000 A 
ATOM     31  C   UNK A   0       7.495   5.172  13.973  0.00  0.00    +0.000 A 
ATOM     32  C   UNK A   0       7.901   5.234  12.641  0.00  0.00    +0.000 A 
ATOM     33  C   UNK A   0       7.258   4.449  11.685  0.00  0.00    +0.000 A 
ATOM     34  C   UNK A   0       6.228   3.589  12.067  0.00  0.00    +0.000 A 
ATOM     35  C   UNK A   0       5.820   3.520  13.403  0.00  0.00    +0.000 A 
ENDBRANCH  27  30
ENDBRANCH   1  26
TORSDOF 10
ENDMDL
MODEL 5
REMARK VINA RESULT:      -7.7      1.293      1.766
REMARK  Name = 
REMARK  10 active torsions:
REMARK  status: ('A' for Active; 'I' for Inactive)
REMARK    1  A    between atoms: C_2  and  CA_14
REMARK    2  A    between atoms: N_3  and  CA_4
REMARK    3  A    between atoms: CA_4  and  C_5
REMARK    4  A    between atoms: CA_4  and  CB_7
REMARK    5  A    between atoms: C_5  and  O_6
REMARK    6  A    between atoms: CB_7  and  CG_8
REMARK    7  A    between atoms: CA_14  and  N_23
REMARK    8  A    between atoms: CB_15  and  CG_16
REMARK    9  A    between atoms: CZ_19  and  OH_20
REMARK   10  A    between atoms: C_24  and  C_26
REMARK                            x       y       z     vdW  Elec       q    Type
REMARK                         _______ _______ _______ _____ _____    ______ ____
ROOT
ATOM      1  CA  TYR A   1       4.133   4.151  17.305  0.00  0.00    +0.000 C 
ATOM      2  CB  TYR A   1       3.739   2.997  17.877  0.00  0.00    +0.000 C 
ENDROOT
BRANCH   2   3
ATOM      3  CG  TYR A   1       2.959   2.726  19.094  0.00  0.00    +0.000 A 
ATOM      4  CD1 TYR A   1       3.632   2.542  20.309  0.00  0.00    +0.000 A 
ATOM      5  CE1 TYR A   1       2.922   2.480  21.510  0.00  0.00    +0.000 A 
ATOM      6  CZ  TYR A   1       1.538   2.623  21.493  0.00  0.00    +0.000 A 
ATOM      7  CE2 TYR A   1       0.855   2.777  20.292  0.00  0.00    +0.000 A 
ATOM      8  CD2 TYR A   1       1.564   2.824  19.088  0.00  0.00    +0.000 A 
BRANCH   6   9
ATOM      9  OH  TYR A   1       0.811   2.633  22.646  0.00  0.00    +0.000 OA
ATOM     10  HH  TYR A   1      -0.132   2.680  22.415  0.00  0.00    +0.000 HD
ENDBRANCH   6   9
ENDBRANCH   2   3
BRANCH   1  12
ATOM     11  O   TYR A   1       4.580   6.044  18.745  0.00  0.00    +0.000 OA
ATOM     12  C   TYR A   1       3.817   5.484  17.952  0.00  0.00    +0.000 C 
ATOM     13  N   TYR A   1       2.580   6.041  17.655  0.00  0.00    +0.000 N 
ATOM     14  H   TYR A   1       2.023   5.684  16.892  0.00  0.00    +0.000 HD
BRANCH  13  15
ATOM     15  CA  TYR A   1       2.166   7.302  18.298  0.00  0.00    +0.000 C 
BRANCH  15  16
ATOM     16  C   TYR A   1       2.986   8.498  17.756  0.00  0.00    +0.000 C 
BRANCH  16  17
ATOM     17  O   TYR A   1       2.164   9.552  17.258  0.00  0.00    +0.000 OA
ATOM     18  H   TYR A   1       2.747  10.199  16.807  0.00  0.00    +0.000 HD
ENDBRANCH  16  17
ENDBRANCH  15  16
BRANCH  15  19
ATOM     19  CB  TYR A   1       2.263   7.263  19.836  0.00  0.00    +0.000 C 
BRANCH  19  20
ATOM     20  CG  TYR A   1       1.400   8.283  20.544  0.00  0.00    +0.000 A 
ATOM     21  CD1 TYR A   1       0.432   9.012  19.838  0.00  0.00    +0.000 A 
ATOM     22  CE1 TYR A   1      -0.396   9.918  20.504  0.00  0.00    +0.000 A 
ATOM     23  CZ  TYR A   1      -0.269  10.104  21.879  0.00  0.00    +0.000 A 
ATOM     24  CE2 TYR A   1       0.695   9.392  22.589  0.00  0.00    +0.000 A 
ATOM     25  CD2 TYR A   1       1.523   8.486  21.927  0.00  0.00    +0.000 A 
ENDBRANCH  19  20
ENDBRANCH  15  19
ENDBRANCH  13  15
ENDBRANCH   1  12
BRANCH   1  26
ATOM     26  N   TYR A   1       4.791   4.198  16.072  0.00  0.00    +0.000 N 
ATOM     27  C   UNK A   0       6.128   4.493  15.830  0.00  0.00    +0.000 C 
ATOM     28  O   UNK A   0       6.975   4.759  16.675  0.00  0.00    +0.000 OA
ATOM     29  H   TYR A   1       4.224   3.930  15.285  0.00  0.00    +0.000 HD
BRANCH  27  30
ATOM     30  C   UNK A   0       6.554   4.537  14.403  0.00  0.00    +0.000 A 
ATOM     31  C   UNK A   0       5.903   3.669  13.512  0.00  0.00    +0.000 A 
ATOM     32  C   UNK A   0       6.280   3.613  12.171  0.00  0.00    +0.000 A 
ATOM     33  C   UNK A   0       7.309   4.431  11.708  0.00  0.00    +0.000 A 
ATOM     34  C   UNK A   0       7.942   5.318  12.580  0.00  0.00    +0.000 A 
ATOM     35  C   UNK A   0       7.564   5.381  13.925  0.00  0.00    +0.000 A 
ENDBRANCH  27  30
ENDBRANCH   1  26
TORSDOF 10
ENDMDL
MODEL 6
REMARK VINA RESULT:      -7.5      0.745      1.144
REMARK  Name = 
REMARK  10 active torsions:
REMARK  status: ('A' for Active; 'I' for Inactive)
REMARK    1  A    between atoms: C_2  and  CA_14
REMARK    2  A    between atoms: N_3  and  CA_4
REMARK    3  A    between atoms: CA_4  and  C_5
REMARK    4  A    between atoms: CA_4  and  CB_7
REMARK    5  A    between atoms: C_5  and  O_6
REMARK    6  A    between atoms: CB_7  and  CG_8
REMARK    7  A    between atoms: CA_14  and  N_23
REMARK    8  A    between atoms: CB_15  and  CG_16
REMARK    9  A    between atoms: CZ_19  and  OH_20
REMARK   10  A    between atoms: C_24  and  C_26
REMARK                            x       y       z     vdW  Elec       q    Type
REMARK                         _______ _______ _______ _____ _____    ______ ____
ROOT
ATOM      1  CA  TYR A   1       4.426   3.871  17.471  0.00  0.00    +0.000 C 
ATOM      2  CB  TYR A   1       3.866   2.767  18.002  0.00  0.00    +0.000 C 
ENDROOT
BRANCH   2   3
ATOM      3  CG  TYR A   1       3.029   2.574  19.196  0.00  0.00    +0.000 A 
ATOM      4  CD1 TYR A   1       3.646   2.348  20.434  0.00  0.00    +0.000 A 
ATOM      5  CE1 TYR A   1       2.895   2.357  21.612  0.00  0.00    +0.000 A 
ATOM      6  CZ  TYR A   1       1.529   2.613  21.549  0.00  0.00    +0.000 A 
ATOM      7  CE2 TYR A   1       0.900   2.810  20.324  0.00  0.00    +0.000 A 
ATOM      8  CD2 TYR A   1       1.648   2.786  19.144  0.00  0.00    +0.000 A 
BRANCH   6   9
ATOM      9  OH  TYR A   1       0.769   2.695  22.677  0.00  0.00    +0.000 OA
ATOM     10  HH  TYR A   1      -0.101   3.053  22.437  0.00  0.00    +0.000 HD
ENDBRANCH   6   9
ENDBRANCH   2   3
BRANCH   1  12
ATOM     11  O   TYR A   1       5.048   5.620  19.024  0.00  0.00    +0.000 OA
ATOM     12  C   TYR A   1       4.276   5.218  18.148  0.00  0.00    +0.000 C 
ATOM     13  N   TYR A   1       3.178   5.983  17.776  0.00  0.00    +0.000 N 
ATOM     14  H   TYR A   1       2.639   5.746  16.956  0.00  0.00    +0.000 HD
BRANCH  13  15
ATOM     15  CA  TYR A   1       2.921   7.275  18.439  0.00  0.00    +0.000 C 
BRANCH  15  16
ATOM     16  C   TYR A   1       1.799   7.144  19.497  0.00  0.00    +0.000 C 
BRANCH  16  17
ATOM     17  O   TYR A   1       2.250   7.427  20.820  0.00  0.00    +0.000 OA
ATOM     18  H   TYR A   1       1.554   7.130  21.444  0.00  0.00    +0.000 HD
ENDBRANCH  16  17
ENDBRANCH  15  16
BRANCH  15  19
ATOM     19  CB  TYR A   1       2.572   8.407  17.452  0.00  0.00    +0.000 C 
BRANCH  19  20
ATOM     20  CG  TYR A   1       1.611   9.439  17.998  0.00  0.00    +0.000 A 
ATOM     21  CD1 TYR A   1       2.090  10.595  18.632  0.00  0.00    +0.000 A 
ATOM     22  CE1 TYR A   1       1.201  11.569  19.092  0.00  0.00    +0.000 A 
ATOM     23  CZ  TYR A   1      -0.172  11.402  18.922  0.00  0.00    +0.000 A 
ATOM     24  CE2 TYR A   1      -0.659  10.254  18.302  0.00  0.00    +0.000 A 
ATOM     25  CD2 TYR A   1       0.226   9.279  17.841  0.00  0.00    +0.000 A 
ENDBRANCH  19  20
ENDBRANCH  15  19
ENDBRANCH  13  15
ENDBRANCH   1  12
BRANCH   1  26
ATOM     26  N   TYR A   1       5.113   3.860  16.253  0.00  0.00    +0.000 N 
ATOM     27  C   UNK A   0       5.475   4.949  15.468  0.00  0.00    +0.000 C 
ATOM     28  O   UNK A   0       5.255   6.128  15.721  0.00  0.00    +0.000 OA
ATOM     29  H   TYR A   1       5.420   2.949  15.955  0.00  0.00    +0.000 HD
BRANCH  27  30
ATOM     30  C   UNK A   0       6.150   4.645  14.175  0.00  0.00    +0.000 A 
ATOM     31  C   UNK A   0       7.301   5.385  13.863  0.00  0.00    +0.000 A 
ATOM     32  C   UNK A   0       7.959   5.197  12.649  0.00  0.00    +0.000 A 
ATOM     33  C   UNK A   0       7.473   4.260  11.738  0.00  0.00    +0.000 A 
ATOM     34  C   UNK A   0       6.347   3.500  12.052  0.00  0.00    +0.000 A 
ATOM     35  C   UNK A   0       5.686   3.682  13.271  0.00  0.00    +0.000 A 
ENDBRANCH  27  30
ENDBRANCH   1  26
TORSDOF 10
ENDMDL
MODEL 7
REMARK VINA RESULT:      -7.5      1.396      1.910
REMARK  Name = 
REMARK  10 active torsions:
REMARK  status: ('A' for Active; 'I' for Inactive)
REMARK    1  A    between atoms: C_2  and  CA_14
REMARK    2  A    between atoms: N_3  and  CA_4
REMARK    3  A    between atoms: CA_4  and  C_5
REMARK    4  A    between atoms: CA_4  and  CB_7
REMARK    5  A    between atoms: C_5  and  O_6
REMARK    6  A    between atoms: CB_7  and  CG_8
REMARK    7  A    between atoms: CA_14  and  N_23
REMARK    8  A    between atoms: CB_15  and  CG_16
REMARK    9  A    between atoms: CZ_19  and  OH_20
REMARK   10  A    between atoms: C_24  and  C_26
REMARK                            x       y       z     vdW  Elec       q    Type
REMARK                         _______ _______ _______ _____ _____    ______ ____
ROOT
ATOM      1  CA  TYR A   1       4.141   4.051  17.184  0.00  0.00    +0.000 C 
ATOM      2  CB  TYR A   1       3.742   2.907  17.773  0.00  0.00    +0.000 C 
ENDROOT
BRANCH   2   3
ATOM      3  CG  TYR A   1       2.973   2.657  19.001  0.00  0.00    +0.000 A 
ATOM      4  CD1 TYR A   1       3.649   2.573  20.226  0.00  0.00    +0.000 A 
ATOM      5  CE1 TYR A   1       2.938   2.534  21.427  0.00  0.00    +0.000 A 
ATOM      6  CZ  TYR A   1       1.548   2.600  21.400  0.00  0.00    +0.000 A 
ATOM      7  CE2 TYR A   1       0.864   2.655  20.190  0.00  0.00    +0.000 A 
ATOM      8  CD2 TYR A   1       1.575   2.678  18.987  0.00  0.00    +0.000 A 
BRANCH   6   9
ATOM      9  OH  TYR A   1       0.816   2.630  22.549  0.00  0.00    +0.000 OA
ATOM     10  HH  TYR A   1       1.399   2.396  23.291  0.00  0.00    +0.000 HD
ENDBRANCH   6   9
ENDBRANCH   2   3
BRANCH   1  12
ATOM     11  O   TYR A   1       4.709   6.090  18.358  0.00  0.00    +0.000 OA
ATOM     12  C   TYR A   1       3.843   5.394  17.819  0.00  0.00    +0.000 C 
ATOM     13  N   TYR A   1       2.515   5.800  17.820  0.00  0.00    +0.000 N 
ATOM     14  H   TYR A   1       1.831   5.329  17.245  0.00  0.00    +0.000 HD
BRANCH  13  15
ATOM     15  CA  TYR A   1       2.130   7.062  18.479  0.00  0.00    +0.000 C 
BRANCH  15  16
ATOM     16  C   TYR A   1       2.886   8.264  17.864  0.00  0.00    +0.000 C 
BRANCH  16  17
ATOM     17  O   TYR A   1       2.009   9.270  17.361  0.00  0.00    +0.000 OA
ATOM     18  H   TYR A   1       1.390   8.842  16.732  0.00  0.00    +0.000 HD
ENDBRANCH  16  17
ENDBRANCH  15  16
BRANCH  15  19
ATOM     19  CB  TYR A   1       2.345   7.042  20.006  0.00  0.00    +0.000 C 
BRANCH  19  20
ATOM     20  CG  TYR A   1       1.434   7.968  20.779  0.00  0.00    +0.000 A 
ATOM     21  CD1 TYR A   1       1.856   9.260  21.125  0.00  0.00    +0.000 A 
ATOM     22  CE1 TYR A   1       0.994  10.130  21.797  0.00  0.00    +0.000 A 
ATOM     23  CZ  TYR A   1      -0.296   9.722  22.126  0.00  0.00    +0.000 A 
ATOM     24  CE2 TYR A   1      -0.724   8.438  21.795  0.00  0.00    +0.000 A 
ATOM     25  CD2 TYR A   1       0.134   7.567  21.124  0.00  0.00    +0.000 A 
ENDBRANCH  19  20
ENDBRANCH  15  19
ENDBRANCH  13  15
ENDBRANCH   1  12
BRANCH   1  26
ATOM     26  N   TYR A   1       4.787   4.078  15.944  0.00  0.00    +0.000 N 
ATOM     27  C   UNK A   0       6.147   4.225  15.694  0.00  0.00    +0.000 C 
ATOM     28  O   UNK A   0       7.028   4.350  16.537  0.00  0.00    +0.000 OA
ATOM     29  H   TYR A   1       4.184   3.916  15.155  0.00  0.00    +0.000 HD
BRANCH  27  30
ATOM     30  C   UNK A   0       6.560   4.286  14.264  0.00  0.00    +0.000 A 
ATOM     31  C   UNK A   0       7.522   5.248  13.915  0.00  0.00    +0.000 A 
ATOM     32  C   UNK A   0       7.923   5.403  12.589  0.00  0.00    +0.000 A 
ATOM     33  C   UNK A   0       7.368   4.592  11.600  0.00  0.00    +0.000 A 
ATOM     34  C   UNK A   0       6.433   3.615  11.942  0.00  0.00    +0.000 A 
ATOM     35  C   UNK A   0       6.031   3.452  13.272  0.00  0.00    +0.000 A 
ENDBRANCH  27  30
ENDBRANCH   1  26
TORSDOF 10
ENDMDL
MODEL 8
REMARK VINA RESULT:      -7.4      3.967      8.020
REMARK  Name = 
REMARK  10 active torsions:
REMARK  status: ('A' for Active; 'I' for Inactive)
REMARK    1  A    between atoms: C_2  and  CA_14
REMARK    2  A    between atoms: N_3  and  CA_4
REMARK    3  A    between atoms: CA_4  and  C_5
REMARK    4  A    between atoms: CA_4  and  CB_7
REMARK    5  A    between atoms: C_5  and  O_6
REMARK    6  A    between atoms: CB_7  and  CG_8
REMARK    7  A    between atoms: CA_14  and  N_23
REMARK    8  A    between atoms: CB_15  and  CG_16
REMARK    9  A    between atoms: CZ_19  and  OH_20
REMARK   10  A    between atoms: C_24  and  C_26
REMARK                            x       y       z     vdW  Elec       q    Type
REMARK                         _______ _______ _______ _____ _____    ______ ____
ROOT
ATOM      1  CA  TYR A   1       1.101  10.233  18.440  0.00  0.00    +0.000 C 
ATOM      2  CB  TYR A   1       1.766  11.354  18.783  0.00  0.00    +0.000 C 
ENDROOT
BRANCH   2   3
ATOM      3  CG  TYR A   1       1.296  12.651  19.290  0.00  0.00    +0.000 A 
ATOM      4  CD1 TYR A   1       0.721  13.566  18.397  0.00  0.00    +0.000 A 
ATOM      5  CE1 TYR A   1       0.089  14.718  18.871  0.00  0.00    +0.000 A 
ATOM      6  CZ  TYR A   1       0.017  14.942  20.243  0.00  0.00    +0.000 A 
ATOM      7  CE2 TYR A   1       0.609  14.057  21.138  0.00  0.00    +0.000 A 
ATOM      8  CD2 TYR A   1       1.254  12.912  20.663  0.00  0.00    +0.000 A 
BRANCH   6   9
ATOM      9  OH  TYR A   1      -0.645  16.018  20.753  0.00  0.00    +0.000 OA
ATOM     10  HH  TYR A   1      -0.439  16.794  20.205  0.00  0.00    +0.000 HD
ENDBRANCH   6   9
ENDBRANCH   2   3
BRANCH   1  12
ATOM     11  O   TYR A   1      -1.031   9.867  19.525  0.00  0.00    +0.000 OA
ATOM     12  C   TYR A   1      -0.412  10.180  18.503  0.00  0.00    +0.000 C 
ATOM     13  N   TYR A   1      -1.094  10.450  17.324  0.00  0.00    +0.000 N 
ATOM     14  H   TYR A   1      -0.617  10.862  16.535  0.00  0.00    +0.000 HD
BRANCH  13  15
ATOM     15  CA  TYR A   1      -2.564  10.350  17.284  0.00  0.00    +0.000 C 
BRANCH  15  16
ATOM     16  C   TYR A   1      -3.045   9.760  15.936  0.00  0.00    +0.000 C 
BRANCH  16  17
ATOM     17  O   TYR A   1      -2.580  10.502  14.810  0.00  0.00    +0.000 OA
ATOM     18  H   TYR A   1      -2.270   9.860  14.135  0.00  0.00    +0.000 HD
ENDBRANCH  16  17
ENDBRANCH  15  16
BRANCH  15  19
ATOM     19  CB  TYR A   1      -3.274  11.694  17.543  0.00  0.00    +0.000 C 
BRANCH  19  20
ATOM     20  CG  TYR A   1      -4.485  11.599  18.444  0.00  0.00    +0.000 A 
ATOM     21  CD1 TYR A   1      -4.540  12.325  19.643  0.00  0.00    +0.000 A 
ATOM     22  CE1 TYR A   1      -5.679  12.273  20.449  0.00  0.00    +0.000 A 
ATOM     23  CZ  TYR A   1      -6.774  11.501  20.067  0.00  0.00    +0.000 A 
ATOM     24  CE2 TYR A   1      -6.727  10.769  18.883  0.00  0.00    +0.000 A 
ATOM     25  CD2 TYR A   1      -5.591  10.819  18.075  0.00  0.00    +0.000 A 
ENDBRANCH  19  20
ENDBRANCH  15  19
ENDBRANCH  13  15
ENDBRANCH   1  12
BRANCH   1  26
ATOM     26  N   TYR A   1       1.751   9.051  18.071  0.00  0.00    +0.000 N 
ATOM     27  C   UNK A   0       2.060   7.961  18.877  0.00  0.00    +0.000 C 
ATOM     28  O   UNK A   0       1.803   7.847  20.070  0.00  0.00    +0.000 OA
ATOM     29  H   TYR A   1       1.962   8.978  17.090  0.00  0.00    +0.000 HD
BRANCH  27  30
ATOM     30  C   UNK A   0       2.821   6.852  18.237  0.00  0.00    +0.000 A 
ATOM     31  C   UNK A   0       3.998   7.193  17.551  0.00  0.00    +0.000 A 
ATOM     32  C   UNK A   0       4.737   6.220  16.881  0.00  0.00    +0.000 A 
ATOM     33  C   UNK A   0       4.309   4.894  16.897  0.00  0.00    +0.000 A 
ATOM     34  C   UNK A   0       3.157   4.541  17.601  0.00  0.00    +0.000 A 
ATOM     35  C   UNK A   0       2.414   5.513  18.278  0.00  0.00    +0.000 A 
ENDBRANCH  27  30
ENDBRANCH   1  26
TORSDOF 10
ENDMDL
MODEL 9
REMARK VINA RESULT:      -7.2      4.268      8.237
REMARK  Name = 
REMARK  10 active torsions:
REMARK  status: ('A' for Active; 'I' for Inactive)
REMARK    1  A    between atoms: C_2  and  CA_14
REMARK    2  A    between atoms: N_3  and  CA_4
REMARK    3  A    between atoms: CA_4  and  C_5
REMARK    4  A    between atoms: CA_4  and  CB_7
REMARK    5  A    between atoms: C_5  and  O_6
REMARK    6  A    between atoms: CB_7  and  CG_8
REMARK    7  A    between atoms: CA_14  and  N_23
REMARK    8  A    between atoms: CB_15  and  CG_16
REMARK    9  A    between atoms: CZ_19  and  OH_20
REMARK   10  A    between atoms: C_24  and  C_26
REMARK                            x       y       z     vdW  Elec       q    Type
REMARK                         _______ _______ _______ _____ _____    ______ ____
ROOT
ATOM      1  CA  TYR A   1       0.180  10.308  19.996  0.00  0.00    +0.000 C 
ATOM      2  CB  TYR A   1       0.171  10.905  21.204  0.00  0.00    +0.000 C 
ENDROOT
BRANCH   2   3
ATOM      3  CG  TYR A   1      -0.695  11.949  21.771  0.00  0.00    +0.000 A 
ATOM      4  CD1 TYR A   1      -1.733  11.581  22.637  0.00  0.00    +0.000 A 
ATOM      5  CE1 TYR A   1      -2.446  12.552  23.344  0.00  0.00    +0.000 A 
ATOM      6  CZ  TYR A   1      -2.103  13.892  23.197  0.00  0.00    +0.000 A 
ATOM      7  CE2 TYR A   1      -1.095  14.275  22.318  0.00  0.00    +0.000 A 
ATOM      8  CD2 TYR A   1      -0.392  13.304  21.599  0.00  0.00    +0.000 A 
BRANCH   6   9
ATOM      9  OH  TYR A   1      -2.727  14.868  23.915  0.00  0.00    +0.000 OA
ATOM     10  HH  TYR A   1      -3.047  15.547  23.298  0.00  0.00    +0.000 HD
ENDBRANCH   6   9
ENDBRANCH   2   3
BRANCH   1  12
ATOM     11  O   TYR A   1      -0.693  11.769  18.275  0.00  0.00    +0.000 OA
ATOM     12  C   TYR A   1      -0.804  10.721  18.920  0.00  0.00    +0.000 C 
ATOM     13  N   TYR A   1      -1.893   9.884  18.718  0.00  0.00    +0.000 N 
ATOM     14  H   TYR A   1      -1.910   8.955  19.114  0.00  0.00    +0.000 HD
BRANCH  13  15
ATOM     15  CA  TYR A   1      -2.932  10.250  17.738  0.00  0.00    +0.000 C 
BRANCH  15  16
ATOM     16  C   TYR A   1      -2.418  10.074  16.289  0.00  0.00    +0.000 C 
BRANCH  16  17
ATOM     17  O   TYR A   1      -2.256  11.314  15.604  0.00  0.00    +0.000 OA
ATOM     18  H   TYR A   1      -2.660  12.017  16.157  0.00  0.00    +0.000 HD
ENDBRANCH  16  17
ENDBRANCH  15  16
BRANCH  15  19
ATOM     19  CB  TYR A   1      -3.471  11.682  17.926  0.00  0.00    +0.000 C 
BRANCH  19  20
ATOM     20  CG  TYR A   1      -4.546  11.814  18.981  0.00  0.00    +0.000 A 
ATOM     21  CD1 TYR A   1      -4.337  12.612  20.116  0.00  0.00    +0.000 A 
ATOM     22  CE1 TYR A   1      -5.350  12.770  21.065  0.00  0.00    +0.000 A 
ATOM     23  CZ  TYR A   1      -6.579  12.139  20.890  0.00  0.00    +0.000 A 
ATOM     24  CE2 TYR A   1      -6.794  11.337  19.772  0.00  0.00    +0.000 A 
ATOM     25  CD2 TYR A   1      -5.785  11.177  18.822  0.00  0.00    +0.000 A 
ENDBRANCH  19  20
ENDBRANCH  15  19
ENDBRANCH  13  15
ENDBRANCH   1  12
BRANCH   1  26
ATOM     26  N   TYR A   1       1.035   9.247  19.683  0.00  0.00    +0.000 N 
ATOM     27  C   UNK A   0       1.805   9.083  18.538  0.00  0.00    +0.000 C 
ATOM     28  O   UNK A   0       1.872   9.861  17.592  0.00  0.00    +0.000 OA
ATOM     29  H   TYR A   1       1.132   8.559  20.411  0.00  0.00    +0.000 HD
BRANCH  27  30
ATOM     30  C   UNK A   0       2.583   7.816  18.432  0.00  0.00    +0.000 A 
ATOM     31  C   UNK A   0       2.382   6.855  19.435  0.00  0.00    +0.000 A 
ATOM     32  C   UNK A   0       3.109   5.666  19.436  0.00  0.00    +0.000 A 
ATOM     33  C   UNK A   0       4.042   5.426  18.428  0.00  0.00    +0.000 A 
ATOM     34  C   UNK A   0       4.227   6.363  17.411  0.00  0.00    +0.000 A 
ATOM     35  C   UNK A   0       3.496   7.555  17.403  0.00  0.00    +0.000 A 
ENDBRANCH  27  30
ENDBRANCH   1  26
TORSDOF 10
ENDMDL
