MODEL 1
REMARK VINA RESULT:      -8.4      0.000      0.000
REMARK  Name = 
REMARK  3 active torsions:
REMARK  status: ('A' for Active; 'I' for Inactive)
REMARK    1  A    between atoms: C_2  and  C_5
REMARK    2  A    between atoms: C_9  and  O_10
REMARK    3  A    between atoms: O_10  and  C_11
REMARK                            x       y       z     vdW  Elec       q    Type
REMARK                         _______ _______ _______ _____ _____    ______ ____
ROOT
ATOM      1  C   UNL     1       6.407   4.034  13.662  0.00  0.00    +0.000 A 
ATOM      2  N   UNL     1       5.769   3.401  14.634  0.00  0.00    +0.000 NA
ATOM      3  C   UNL     1       6.049   4.099  15.784  0.00  0.00    +0.000 A 
ATOM      4  C   UNL     1       5.624   3.866  17.098  0.00  0.00    +0.000 A 
ATOM      5  C   UNL     1       6.053   4.742  18.104  0.00  0.00    +0.000 A 
ATOM      6  C   UNL     1       6.949   5.779  17.814  0.00  0.00    +0.000 A 
ATOM      7  C   UNL     1       7.352   6.046  16.500  0.00  0.00    +0.000 A 
ATOM      8  C   UNL     1       6.875   5.181  15.515  0.00  0.00    +0.000 A 
ATOM      9  N   UNL     1       7.066   5.136  14.159  0.00  0.00    +0.000 N 
ATOM     10  H   UNL     1       7.616   5.787  13.615  0.00  0.00    +0.000 HD
ENDROOT
BRANCH   1  12
ATOM     11  F   UNL     1       7.000   2.481  11.950  0.00  0.00    +0.000 F 
ATOM     12  C   UNL     1       6.486   3.707  12.210  0.00  0.00    +0.000 C 
ATOM     13  F   UNL     1       7.254   4.612  11.545  0.00  0.00    +0.000 F 
ATOM     14  F   UNL     1       5.258   3.760  11.627  0.00  0.00    +0.000 F 
ENDBRANCH   1  12
BRANCH   5  15
ATOM     15  O   UNL     1       5.581   4.460  19.369  0.00  0.00    +0.000 OA
BRANCH  15  16
ATOM     16  C   UNL     1       4.262   4.704  19.692  0.00  0.00    +0.000 A 
ATOM     17  C   UNL     1       3.629   5.924  19.407  0.00  0.00    +0.000 A 
ATOM     18  C   UNL     1       2.304   6.140  19.788  0.00  0.00    +0.000 A 
ATOM     19  C   UNL     1       1.586   5.118  20.405  0.00  0.00    +0.000 A 
ATOM     20  C   UNL     1       2.183   3.873  20.625  0.00  0.00    +0.000 A 
ATOM     21 CL   UNL     1       1.200   2.642  21.342  0.00  0.00    +0.000 Cl
ATOM     22  C   UNL     1       3.522   3.658  20.270  0.00  0.00    +0.000 A 
ATOM     23 CL   UNL     1       4.278   2.116  20.526  0.00  0.00    +0.000 Cl
ENDBRANCH  15  16
ENDBRANCH   5  15
TORSDOF 3
ENDMDL
MODEL 2
REMARK VINA RESULT:      -7.9      0.767      1.114
REMARK  Name = 
REMARK  3 active torsions:
REMARK  status: ('A' for Active; 'I' for Inactive)
REMARK    1  A    between atoms: C_2  and  C_5
REMARK    2  A    between atoms: C_9  and  O_10
REMARK    3  A    between atoms: O_10  and  C_11
REMARK                            x       y       z     vdW  Elec       q    Type
REMARK                         _______ _______ _______ _____ _____    ______ ____
ROOT
ATOM      1  C   UNL     1       6.628   4.285  13.651  0.00  0.00    +0.000 A 
ATOM      2  N   UNL     1       5.896   3.558  14.481  0.00  0.00    +0.000 NA
ATOM      3  C   UNL     1       6.082   4.107  15.726  0.00  0.00    +0.000 A 
ATOM      4  C   UNL     1       5.538   3.731  16.960  0.00  0.00    +0.000 A 
ATOM      5  C   UNL     1       5.888   4.469  18.099  0.00  0.00    +0.000 A 
ATOM      6  C   UNL     1       6.823   5.510  18.015  0.00  0.00    +0.000 A 
ATOM      7  C   UNL     1       7.347   5.919  16.783  0.00  0.00    +0.000 A 
ATOM      8  C   UNL     1       6.947   5.191  15.663  0.00  0.00    +0.000 A 
ATOM      9  N   UNL     1       7.258   5.302  14.333  0.00  0.00    +0.000 N 
ATOM     10  H   UNL     1       7.864   5.998  13.922  0.00  0.00    +0.000 HD
ENDROOT
BRANCH   1  12
ATOM     11  F   UNL     1       7.622   5.086  11.634  0.00  0.00    +0.000 F 
ATOM     12  C   UNL     1       6.832   4.131  12.183  0.00  0.00    +0.000 C 
ATOM     13  F   UNL     1       5.646   4.162  11.518  0.00  0.00    +0.000 F 
ATOM     14  F   UNL     1       7.394   2.927  11.888  0.00  0.00    +0.000 F 
ENDBRANCH   1  12
BRANCH   5  15
ATOM     15  O   UNL     1       5.300   4.052  19.274  0.00  0.00    +0.000 OA
BRANCH  15  16
ATOM     16  C   UNL     1       3.973   4.332  19.528  0.00  0.00    +0.000 A 
ATOM     17  C   UNL     1       3.521   5.623  19.844  0.00  0.00    +0.000 A 
ATOM     18  C   UNL     1       2.175   5.851  20.132  0.00  0.00    +0.000 A 
ATOM     19  C   UNL     1       1.262   4.802  20.051  0.00  0.00    +0.000 A 
ATOM     20  C   UNL     1       1.688   3.527  19.663  0.00  0.00    +0.000 A 
ATOM     21 CL   UNL     1       0.478   2.298  19.531  0.00  0.00    +0.000 Cl
ATOM     22  C   UNL     1       3.044   3.285  19.399  0.00  0.00    +0.000 A 
ATOM     23 CL   UNL     1       3.591   1.713  18.907  0.00  0.00    +0.000 Cl
ENDBRANCH  15  16
ENDBRANCH   5  15
TORSDOF 3
ENDMDL
MODEL 3
REMARK VINA RESULT:      -7.8      4.552      5.535
REMARK  Name = 
REMARK  3 active torsions:
REMARK  status: ('A' for Active; 'I' for Inactive)
REMARK    1  A    between atoms: C_2  and  C_5
REMARK    2  A    between atoms: C_9  and  O_10
REMARK    3  A    between atoms: O_10  and  C_11
REMARK                            x       y       z     vdW  Elec       q    Type
REMARK                         _______ _______ _______ _____ _____    ______ ____
ROOT
ATOM      1  C   UNL     1       8.330   9.076  18.140  0.00  0.00    +0.000 A 
ATOM      2  N   UNL     1       7.256   8.885  17.389  0.00  0.00    +0.000 NA
ATOM      3  C   UNL     1       6.906   7.568  17.561  0.00  0.00    +0.000 A 
ATOM      4  C   UNL     1       5.845   6.844  17.005  0.00  0.00    +0.000 A 
ATOM      5  C   UNL     1       5.702   5.493  17.353  0.00  0.00    +0.000 A 
ATOM      6  C   UNL     1       6.645   4.864  18.176  0.00  0.00    +0.000 A 
ATOM      7  C   UNL     1       7.689   5.584  18.768  0.00  0.00    +0.000 A 
ATOM      8  C   UNL     1       7.780   6.936  18.435  0.00  0.00    +0.000 A 
ATOM      9  N   UNL     1       8.658   7.919  18.810  0.00  0.00    +0.000 N 
ATOM     10  H   UNL     1       9.430   7.811  19.454  0.00  0.00    +0.000 HD
ENDROOT
BRANCH   1  12
ATOM     11  F   UNL     1       8.443  11.456  18.269  0.00  0.00    +0.000 F 
ATOM     12  C   UNL     1       9.155  10.304  18.320  0.00  0.00    +0.000 C 
ATOM     13  F   UNL     1      10.121  10.388  17.366  0.00  0.00    +0.000 F 
ATOM     14  F   UNL     1       9.807  10.288  19.513  0.00  0.00    +0.000 F 
ENDBRANCH   1  12
BRANCH   5  15
ATOM     15  O   UNL     1       4.624   4.850  16.780  0.00  0.00    +0.000 OA
BRANCH  15  16
ATOM     16  C   UNL     1       3.867   3.964  17.519  0.00  0.00    +0.000 A 
ATOM     17  C   UNL     1       4.100   2.580  17.507  0.00  0.00    +0.000 A 
ATOM     18  C   UNL     1       3.283   1.719  18.240  0.00  0.00    +0.000 A 
ATOM     19  C   UNL     1       2.263   2.241  19.034  0.00  0.00    +0.000 A 
ATOM     20  C   UNL     1       2.071   3.623  19.113  0.00  0.00    +0.000 A 
ATOM     21 CL   UNL     1       0.822   4.187  20.169  0.00  0.00    +0.000 Cl
ATOM     22  C   UNL     1       2.870   4.493  18.358  0.00  0.00    +0.000 A 
ATOM     23 CL   UNL     1       2.654   6.212  18.450  0.00  0.00    +0.000 Cl
ENDBRANCH  15  16
ENDBRANCH   5  15
TORSDOF 3
ENDMDL
MODEL 4
REMARK VINA RESULT:      -7.5      6.635      7.966
REMARK  Name = 
REMARK  3 active torsions:
REMARK  status: ('A' for Active; 'I' for Inactive)
REMARK    1  A    between atoms: C_2  and  C_5
REMARK    2  A    between atoms: C_9  and  O_10
REMARK    3  A    between atoms: O_10  and  C_11
REMARK                            x       y       z     vdW  Elec       q    Type
REMARK                         _______ _______ _______ _____ _____    ______ ____
ROOT
ATOM      1  C   UNL     1       0.036  10.939  19.246  0.00  0.00    +0.000 A 
ATOM      2  N   UNL     1       0.253  10.075  20.226  0.00  0.00    +0.000 NA
ATOM      3  C   UNL     1       1.091   9.119  19.706  0.00  0.00    +0.000 A 
ATOM      4  C   UNL     1       1.638   7.983  20.313  0.00  0.00    +0.000 A 
ATOM      5  C   UNL     1       2.481   7.159  19.554  0.00  0.00    +0.000 A 
ATOM      6  C   UNL     1       2.707   7.426  18.197  0.00  0.00    +0.000 A 
ATOM      7  C   UNL     1       2.197   8.578  17.588  0.00  0.00    +0.000 A 
ATOM      8  C   UNL     1       1.395   9.399  18.380  0.00  0.00    +0.000 A 
ATOM      9  N   UNL     1       0.737  10.573  18.120  0.00  0.00    +0.000 N 
ATOM     10  H   UNL     1       0.746  11.075  17.243  0.00  0.00    +0.000 HD
ENDROOT
BRANCH   1  12
ATOM     11  F   UNL     1      -1.940  12.056  19.983  0.00  0.00    +0.000 F 
ATOM     12  C   UNL     1      -0.817  12.161  19.231  0.00  0.00    +0.000 C 
ATOM     13  F   UNL     1      -1.211  12.468  17.966  0.00  0.00    +0.000 F 
ATOM     14  F   UNL     1      -0.131  13.246  19.683  0.00  0.00    +0.000 F 
ENDBRANCH   1  12
BRANCH   5  15
ATOM     15  O   UNL     1       2.996   6.069  20.224  0.00  0.00    +0.000 OA
BRANCH  15  16
ATOM     16  C   UNL     1       2.488   4.806  19.996  0.00  0.00    +0.000 A 
ATOM     17  C   UNL     1       1.206   4.422  20.420  0.00  0.00    +0.000 A 
ATOM     18  C   UNL     1       0.750   3.121  20.202  0.00  0.00    +0.000 A 
ATOM     19  C   UNL     1       1.549   2.214  19.510  0.00  0.00    +0.000 A 
ATOM     20  C   UNL     1       2.797   2.608  19.018  0.00  0.00    +0.000 A 
ATOM     21 CL   UNL     1       3.697   1.435  18.119  0.00  0.00    +0.000 Cl
ATOM     22  C   UNL     1       3.274   3.905  19.256  0.00  0.00    +0.000 A 
ATOM     23 CL   UNL     1       4.815   4.417  18.645  0.00  0.00    +0.000 Cl
ENDBRANCH  15  16
ENDBRANCH   5  15
TORSDOF 3
ENDMDL
MODEL 5
REMARK VINA RESULT:      -7.5      7.007      8.387
REMARK  Name = 
REMARK  3 active torsions:
REMARK  status: ('A' for Active; 'I' for Inactive)
REMARK    1  A    between atoms: C_2  and  C_5
REMARK    2  A    between atoms: C_9  and  O_10
REMARK    3  A    between atoms: O_10  and  C_11
REMARK                            x       y       z     vdW  Elec       q    Type
REMARK                         _______ _______ _______ _____ _____    ______ ____
ROOT
ATOM      1  C   UNL     1       0.513   9.368  21.769  0.00  0.00    +0.000 A 
ATOM      2  N   UNL     1       1.097   8.184  21.656  0.00  0.00    +0.000 NA
ATOM      3  C   UNL     1       1.546   8.108  20.361  0.00  0.00    +0.000 A 
ATOM      4  C   UNL     1       2.238   7.079  19.712  0.00  0.00    +0.000 A 
ATOM      5  C   UNL     1       2.591   7.254  18.367  0.00  0.00    +0.000 A 
ATOM      6  C   UNL     1       2.193   8.401  17.668  0.00  0.00    +0.000 A 
ATOM      7  C   UNL     1       1.534   9.454  18.313  0.00  0.00    +0.000 A 
ATOM      8  C   UNL     1       1.233   9.266  19.661  0.00  0.00    +0.000 A 
ATOM      9  N   UNL     1       0.602  10.061  20.583  0.00  0.00    +0.000 N 
ATOM     10  H   UNL     1       0.243  10.991  20.418  0.00  0.00    +0.000 HD
ENDROOT
BRANCH   1  12
ATOM     11  F   UNL     1       0.408   9.694  24.131  0.00  0.00    +0.000 F 
ATOM     12  C   UNL     1      -0.177   9.976  22.942  0.00  0.00    +0.000 C 
ATOM     13  F   UNL     1      -1.469   9.557  23.022  0.00  0.00    +0.000 F 
ATOM     14  F   UNL     1      -0.230  11.331  22.832  0.00  0.00    +0.000 F 
ENDBRANCH   1  12
BRANCH   5  15
ATOM     15  O   UNL     1       3.286   6.205  17.800  0.00  0.00    +0.000 OA
BRANCH  15  16
ATOM     16  C   UNL     1       2.990   4.903  18.148  0.00  0.00    +0.000 A 
ATOM     17  C   UNL     1       1.820   4.256  17.721  0.00  0.00    +0.000 A 
ATOM     18  C   UNL     1       1.544   2.951  18.131  0.00  0.00    +0.000 A 
ATOM     19  C   UNL     1       2.461   2.266  18.924  0.00  0.00    +0.000 A 
ATOM     20  C   UNL     1       3.665   2.874  19.293  0.00  0.00    +0.000 A 
ATOM     21 CL   UNL     1       4.773   1.929  20.227  0.00  0.00    +0.000 Cl
ATOM     22  C   UNL     1       3.937   4.195  18.907  0.00  0.00    +0.000 A 
ATOM     23 CL   UNL     1       5.430   4.964  19.346  0.00  0.00    +0.000 Cl
ENDBRANCH  15  16
ENDBRANCH   5  15
TORSDOF 3
ENDMDL
MODEL 6
REMARK VINA RESULT:      -7.4      1.305      1.794
REMARK  Name = 
REMARK  3 active torsions:
REMARK  status: ('A' for Active; 'I' for Inactive)
REMARK    1  A    between atoms: C_2  and  C_5
REMARK    2  A    between atoms: C_9  and  O_10
REMARK    3  A    between atoms: O_10  and  C_11
REMARK                            x       y       z     vdW  Elec       q    Type
REMARK                         _______ _______ _______ _____ _____    ______ ____
ROOT
ATOM      1  C   UNL     1       6.479   4.083  13.595  0.00  0.00    +0.000 A 
ATOM      2  N   UNL     1       5.829   3.408  14.530  0.00  0.00    +0.000 NA
ATOM      3  C   UNL     1       6.086   4.059  15.712  0.00  0.00    +0.000 A 
ATOM      4  C   UNL     1       5.642   3.772  17.008  0.00  0.00    +0.000 A 
ATOM      5  C   UNL     1       6.049   4.608  18.056  0.00  0.00    +0.000 A 
ATOM      6  C   UNL     1       6.943   5.662  17.822  0.00  0.00    +0.000 A 
ATOM      7  C   UNL     1       7.366   5.983  16.527  0.00  0.00    +0.000 A 
ATOM      8  C   UNL     1       6.911   5.156  15.500  0.00  0.00    +0.000 A 
ATOM      9  N   UNL     1       7.124   5.167  14.146  0.00  0.00    +0.000 N 
ATOM     10  H   UNL     1       7.678   5.842  13.639  0.00  0.00    +0.000 HD
ENDROOT
BRANCH   1  12
ATOM     11  F   UNL     1       7.193   2.644  11.830  0.00  0.00    +0.000 F 
ATOM     12  C   UNL     1       6.584   3.815  12.132  0.00  0.00    +0.000 C 
ATOM     13  F   UNL     1       7.277   4.801  11.502  0.00  0.00    +0.000 F 
ATOM     14  F   UNL     1       5.355   3.791  11.548  0.00  0.00    +0.000 F 
ENDBRANCH   1  12
BRANCH   5  15
ATOM     15  O   UNL     1       5.558   4.273  19.301  0.00  0.00    +0.000 OA
BRANCH  15  16
ATOM     16  C   UNL     1       4.388   3.552  19.418  0.00  0.00    +0.000 A 
ATOM     17  C   UNL     1       4.349   2.154  19.299  0.00  0.00    +0.000 A 
ATOM     18  C   UNL     1       3.136   1.470  19.385  0.00  0.00    +0.000 A 
ATOM     19  C   UNL     1       1.962   2.173  19.647  0.00  0.00    +0.000 A 
ATOM     20  C   UNL     1       2.000   3.557  19.843  0.00  0.00    +0.000 A 
ATOM     21 CL   UNL     1       0.505   4.341  20.224  0.00  0.00    +0.000 Cl
ATOM     22  C   UNL     1       3.211   4.254  19.731  0.00  0.00    +0.000 A 
ATOM     23 CL   UNL     1       3.281   5.970  19.980  0.00  0.00    +0.000 Cl
ENDBRANCH  15  16
ENDBRANCH   5  15
TORSDOF 3
ENDMDL
MODEL 7
REMARK VINA RESULT:      -7.3      1.827      2.405
REMARK  Name = 
REMARK  3 active torsions:
REMARK  status: ('A' for Active; 'I' for Inactive)
REMARK    1  A    between atoms: C_2  and  C_5
REMARK    2  A    between atoms: C_9  and  O_10
REMARK    3  A    between atoms: O_10  and  C_11
REMARK                            x       y       z     vdW  Elec       q    Type
REMARK                         _______ _______ _______ _____ _____    ______ ____
ROOT
ATOM      1  C   UNL     1       6.250   4.029  13.566  0.00  0.00    +0.000 A 
ATOM      2  N   UNL     1       5.065   4.080  14.156  0.00  0.00    +0.000 NA
ATOM      3  C   UNL     1       5.312   4.412  15.466  0.00  0.00    +0.000 A 
ATOM      4  C   UNL     1       4.416   4.603  16.525  0.00  0.00    +0.000 A 
ATOM      5  C   UNL     1       4.930   4.947  17.783  0.00  0.00    +0.000 A 
ATOM      6  C   UNL     1       6.313   5.021  17.993  0.00  0.00    +0.000 A 
ATOM      7  C   UNL     1       7.218   4.868  16.936  0.00  0.00    +0.000 A 
ATOM      8  C   UNL     1       6.673   4.567  15.688  0.00  0.00    +0.000 A 
ATOM      9  N   UNL     1       7.246   4.346  14.462  0.00  0.00    +0.000 N 
ATOM     10  H   UNL     1       8.233   4.388  14.253  0.00  0.00    +0.000 HD
ENDROOT
BRANCH   1  12
ATOM     11  F   UNL     1       7.447   4.563  11.572  0.00  0.00    +0.000 F 
ATOM     12  C   UNL     1       6.593   3.689  12.156  0.00  0.00    +0.000 C 
ATOM     13  F   UNL     1       5.477   3.639  11.380  0.00  0.00    +0.000 F 
ATOM     14  F   UNL     1       7.162   2.456  12.073  0.00  0.00    +0.000 F 
ENDBRANCH   1  12
BRANCH   5  15
ATOM     15  O   UNL     1       3.987   5.137  18.771  0.00  0.00    +0.000 OA
BRANCH  15  16
ATOM     16  C   UNL     1       3.265   6.311  18.831  0.00  0.00    +0.000 A 
ATOM     17  C   UNL     1       3.321   7.283  17.820  0.00  0.00    +0.000 A 
ATOM     18  C   UNL     1       2.604   8.473  17.943  0.00  0.00    +0.000 A 
ATOM     19  C   UNL     1       1.782   8.676  19.049  0.00  0.00    +0.000 A 
ATOM     20  C   UNL     1       1.659   7.682  20.025  0.00  0.00    +0.000 A 
ATOM     21 CL   UNL     1       0.570   7.991  21.334  0.00  0.00    +0.000 Cl
ATOM     22  C   UNL     1       2.398   6.495  19.922  0.00  0.00    +0.000 A 
ATOM     23 CL   UNL     1       2.252   5.245  21.118  0.00  0.00    +0.000 Cl
ENDBRANCH  15  16
ENDBRANCH   5  15
TORSDOF 3
ENDMDL
MODEL 8
REMARK VINA RESULT:      -7.3      3.532      4.380
REMARK  Name = 
REMARK  3 active torsions:
REMARK  status: ('A' for Active; 'I' for Inactive)
REMARK    1  A    between atoms: C_2  and  C_5
REMARK    2  A    between atoms: C_9  and  O_10
REMARK    3  A    between atoms: O_10  and  C_11
REMARK                            x       y       z     vdW  Elec       q    Type
REMARK                         _______ _______ _______ _____ _____    ______ ____
ROOT
ATOM      1  C   UNL     1       7.476   7.347  17.613  0.00  0.00    +0.000 A 
ATOM      2  N   UNL     1       6.648   6.652  18.378  0.00  0.00    +0.000 NA
ATOM      3  C   UNL     1       6.235   5.588  17.615  0.00  0.00    +0.000 A 
ATOM      4  C   UNL     1       5.363   4.541  17.936  0.00  0.00    +0.000 A 
ATOM      5  C   UNL     1       5.106   3.562  16.967  0.00  0.00    +0.000 A 
ATOM      6  C   UNL     1       5.650   3.672  15.680  0.00  0.00    +0.000 A 
ATOM      7  C   UNL     1       6.551   4.693  15.356  0.00  0.00    +0.000 A 
ATOM      8  C   UNL     1       6.818   5.628  16.356  0.00  0.00    +0.000 A 
ATOM      9  N   UNL     1       7.623   6.737  16.388  0.00  0.00    +0.000 N 
ATOM     10  H   UNL     1       8.209   7.067  15.634  0.00  0.00    +0.000 HD
ENDROOT
BRANCH   1  12
ATOM     11  F   UNL     1       8.942   8.572  19.044  0.00  0.00    +0.000 F 
ATOM     12  C   UNL     1       8.202   8.615  17.910  0.00  0.00    +0.000 C 
ATOM     13  F   UNL     1       7.336   9.657  18.035  0.00  0.00    +0.000 F 
ATOM     14  F   UNL     1       9.043   8.948  16.894  0.00  0.00    +0.000 F 
ENDBRANCH   1  12
BRANCH   5  15
ATOM     15  O   UNL     1       4.252   2.553  17.361  0.00  0.00    +0.000 OA
BRANCH  15  16
ATOM     16  C   UNL     1       3.135   2.841  18.118  0.00  0.00    +0.000 A 
ATOM     17  C   UNL     1       1.957   3.358  17.558  0.00  0.00    +0.000 A 
ATOM     18  C   UNL     1       0.866   3.671  18.369  0.00  0.00    +0.000 A 
ATOM     19  C   UNL     1       0.925   3.416  19.738  0.00  0.00    +0.000 A 
ATOM     20  C   UNL     1       2.066   2.830  20.296  0.00  0.00    +0.000 A 
ATOM     21 CL   UNL     1       2.031   2.493  21.992  0.00  0.00    +0.000 Cl
ATOM     22  C   UNL     1       3.176   2.538  19.491  0.00  0.00    +0.000 A 
ATOM     23 CL   UNL     1       4.597   1.802  20.162  0.00  0.00    +0.000 Cl
ENDBRANCH  15  16
ENDBRANCH   5  15
TORSDOF 3
ENDMDL
MODEL 9
REMARK VINA RESULT:      -7.3      1.176      1.893
REMARK  Name = 
REMARK  3 active torsions:
REMARK  status: ('A' for Active; 'I' for Inactive)
REMARK    1  A    between atoms: C_2  and  C_5
REMARK    2  A    between atoms: C_9  and  O_10
REMARK    3  A    between atoms: O_10  and  C_11
REMARK                            x       y       z     vdW  Elec       q    Type
REMARK                         _______ _______ _______ _____ _____    ______ ____
ROOT
ATOM      1  C   UNL     1       7.418   5.136  13.838  0.00  0.00    +0.000 A 
ATOM      2  N   UNL     1       7.610   5.637  15.049  0.00  0.00    +0.000 NA
ATOM      3  C   UNL     1       6.651   5.066  15.849  0.00  0.00    +0.000 A 
ATOM      4  C   UNL     1       6.407   5.239  17.216  0.00  0.00    +0.000 A 
ATOM      5  C   UNL     1       5.354   4.525  17.804  0.00  0.00    +0.000 A 
ATOM      6  C   UNL     1       4.517   3.715  17.024  0.00  0.00    +0.000 A 
ATOM      7  C   UNL     1       4.772   3.504  15.664  0.00  0.00    +0.000 A 
ATOM      8  C   UNL     1       5.852   4.197  15.118  0.00  0.00    +0.000 A 
ATOM      9  N   UNL     1       6.375   4.238  13.851  0.00  0.00    +0.000 N 
ATOM     10  H   UNL     1       6.040   3.714  13.054  0.00  0.00    +0.000 HD
ENDROOT
BRANCH   1  12
ATOM     11  F   UNL     1       9.484   5.554  12.720  0.00  0.00    +0.000 F 
ATOM     12  C   UNL     1       8.144   5.420  12.568  0.00  0.00    +0.000 C 
ATOM     13  F   UNL     1       7.691   6.565  11.990  0.00  0.00    +0.000 F 
ATOM     14  F   UNL     1       7.941   4.434  11.654  0.00  0.00    +0.000 F 
ENDBRANCH   1  12
BRANCH   5  15
ATOM     15  O   UNL     1       5.185   4.733  19.157  0.00  0.00    +0.000 OA
BRANCH  15  16
ATOM     16  C   UNL     1       3.919   4.875  19.688  0.00  0.00    +0.000 A 
ATOM     17  C   UNL     1       3.169   6.053  19.546  0.00  0.00    +0.000 A 
ATOM     18  C   UNL     1       1.909   6.164  20.134  0.00  0.00    +0.000 A 
ATOM     19  C   UNL     1       1.367   5.079  20.821  0.00  0.00    +0.000 A 
ATOM     20  C   UNL     1       2.073   3.876  20.904  0.00  0.00    +0.000 A 
ATOM     21 CL   UNL     1       1.300   2.562  21.723  0.00  0.00    +0.000 Cl
ATOM     22  C   UNL     1       3.351   3.765  20.339  0.00  0.00    +0.000 A 
ATOM     23 CL   UNL     1       4.240   2.277  20.423  0.00  0.00    +0.000 Cl
ENDBRANCH  15  16
ENDBRANCH   5  15
TORSDOF 3
ENDMDL
