MODEL 1
REMARK VINA RESULT:      -8.9      0.000      0.000
REMARK  Name = 
REMARK  6 active torsions:
REMARK  status: ('A' for Active; 'I' for Inactive)
REMARK    1  A    between atoms: C_2  and  C_7
REMARK    2  A    between atoms: N_3  and  C_4
REMARK    3  A    between atoms: C_10  and  O_11
REMARK    4  A    between atoms: O_11  and  C_12
REMARK    5  A    between atoms: C_12  and  C_13
REMARK    6  A    between atoms: C_18  and  C_20
REMARK                            x       y       z     vdW  Elec       q    Type
REMARK                         _______ _______ _______ _____ _____    ______ ____
ROOT
ATOM      1  C   UNL     1       3.828   7.101  18.210  0.00  0.00    +0.000 C 
ENDROOT
BRANCH   1   2
ATOM      2  C   UNL     1       4.140   5.889  17.327  0.00  0.00    +0.000 C 
ATOM      3  C   UNL     1       5.030   6.217  16.128  0.00  0.00    +0.000 C 
ATOM      4  C   UNL     1       6.432   6.205  16.719  0.00  0.00    +0.000 C 
ATOM      5  C   UNL     1       6.364   5.147  17.819  0.00  0.00    +0.000 C 
ATOM      6  N   UNL     1       4.944   4.894  18.049  0.00  0.00    +0.000 N 
ATOM      7  C   UNL     1       4.583   3.926  18.986  0.00  0.00    +0.000 C 
ATOM      8  O   UNL     1       5.444   3.277  19.581  0.00  0.00    +0.000 OA
BRANCH   7   9
ATOM      9  C   UNL     1       3.155   3.648  19.299  0.00  0.00    +0.000 A 
ATOM     10  C   UNL     1       2.513   4.194  20.415  0.00  0.00    +0.000 A 
ATOM     11  C   UNL     1       1.201   3.837  20.737  0.00  0.00    +0.000 A 
ATOM     12  C   UNL     1       0.472   3.021  19.878  0.00  0.00    +0.000 A 
ATOM     13  C   UNL     1       1.058   2.568  18.698  0.00  0.00    +0.000 A 
ATOM     14  C   UNL     1       2.394   2.866  18.422  0.00  0.00    +0.000 A 
ATOM     15  F   UNL     1       2.918   2.367  17.293  0.00  0.00    +0.000 F 
ENDBRANCH   7   9
ENDBRANCH   1   2
BRANCH   1  16
ATOM     16  O   UNL     1       2.546   7.647  17.875  0.00  0.00    +0.000 OA
BRANCH  16  20
ATOM     17  C   UNL     1       0.680   9.404  21.165  0.00  0.00    +0.000 A 
ATOM     18  C   UNL     1       0.627  10.055  19.933  0.00  0.00    +0.000 A 
ATOM     19  C   UNL     1       1.245   9.493  18.816  0.00  0.00    +0.000 A 
ATOM     20  C   UNL     1       1.899   8.266  18.913  0.00  0.00    +0.000 A 
ATOM     21  C   UNL     1       1.917   7.589  20.140  0.00  0.00    +0.000 A 
ATOM     22  C   UNL     1       1.305   8.154  21.264  0.00  0.00    +0.000 A 
BRANCH  17  24
ATOM     23  O   UNL     1       0.481   9.734  23.492  0.00  0.00    +0.000 OA
ATOM     24  C   UNL     1       0.078  10.029  22.373  0.00  0.00    +0.000 C 
ATOM     25  N   UNL     1      -0.914  10.957  22.111  0.00  0.00    +0.000 N 
ATOM     26  H   UNL     1      -1.066  11.259  21.159  0.00  0.00    +0.000 HD
BRANCH  25  27
ATOM     27  C   UNL     1      -1.636  11.633  23.137  0.00  0.00    +0.000 C 
ATOM     28  C   UNL     1      -1.664  13.138  23.171  0.00  0.00    +0.000 C 
ATOM     29  C   UNL     1      -2.902  12.373  22.808  0.00  0.00    +0.000 C 
ENDBRANCH  25  27
ENDBRANCH  17  24
ENDBRANCH  16  20
ENDBRANCH   1  16
TORSDOF 6
ENDMDL
MODEL 2
REMARK VINA RESULT:      -8.7      2.766      4.687
REMARK  Name = 
REMARK  6 active torsions:
REMARK  status: ('A' for Active; 'I' for Inactive)
REMARK    1  A    between atoms: C_2  and  C_7
REMARK    2  A    between atoms: N_3  and  C_4
REMARK    3  A    between atoms: C_10  and  O_11
REMARK    4  A    between atoms: O_11  and  C_12
REMARK    5  A    between atoms: C_12  and  C_13
REMARK    6  A    between atoms: C_18  and  C_20
REMARK                            x       y       z     vdW  Elec       q    Type
REMARK                         _______ _______ _______ _____ _____    ______ ____
ROOT
ATOM      1  C   UNL     1       2.843   4.983  19.384  0.00  0.00    +0.000 C 
ENDROOT
BRANCH   1   2
ATOM      2  C   UNL     1       3.878   3.858  19.471  0.00  0.00    +0.000 C 
ATOM      3  C   UNL     1       3.352   2.589  20.141  0.00  0.00    +0.000 C 
ATOM      4  C   UNL     1       2.608   1.881  19.019  0.00  0.00    +0.000 C 
ATOM      5  C   UNL     1       3.392   2.250  17.761  0.00  0.00    +0.000 C 
ATOM      6  N   UNL     1       4.251   3.371  18.135  0.00  0.00    +0.000 N 
ATOM      7  C   UNL     1       5.120   3.892  17.176  0.00  0.00    +0.000 C 
ATOM      8  O   UNL     1       5.186   3.395  16.052  0.00  0.00    +0.000 OA
BRANCH   7   9
ATOM      9  C   UNL     1       5.993   5.060  17.478  0.00  0.00    +0.000 A 
ATOM     10  C   UNL     1       7.090   4.970  18.341  0.00  0.00    +0.000 A 
ATOM     11  C   UNL     1       7.832   6.104  18.682  0.00  0.00    +0.000 A 
ATOM     12  C   UNL     1       7.560   7.322  18.069  0.00  0.00    +0.000 A 
ATOM     13  C   UNL     1       6.549   7.401  17.114  0.00  0.00    +0.000 A 
ATOM     14  C   UNL     1       5.762   6.281  16.836  0.00  0.00    +0.000 A 
ATOM     15  F   UNL     1       4.774   6.426  15.940  0.00  0.00    +0.000 F 
ENDBRANCH   7   9
ENDBRANCH   1   2
BRANCH   1  16
ATOM     16  O   UNL     1       3.492   6.261  19.391  0.00  0.00    +0.000 OA
BRANCH  16  20
ATOM     17  C   UNL     1       0.941   9.496  18.743  0.00  0.00    +0.000 A 
ATOM     18  C   UNL     1       0.991   8.921  20.012  0.00  0.00    +0.000 A 
ATOM     19  C   UNL     1       1.832   7.835  20.258  0.00  0.00    +0.000 A 
ATOM     20  C   UNL     1       2.648   7.331  19.246  0.00  0.00    +0.000 A 
ATOM     21  C   UNL     1       2.632   7.935  17.982  0.00  0.00    +0.000 A 
ATOM     22  C   UNL     1       1.783   9.019  17.730  0.00  0.00    +0.000 A 
BRANCH  17  24
ATOM     23  O   UNL     1       0.220  11.737  18.895  0.00  0.00    +0.000 OA
ATOM     24  C   UNL     1      -0.000  10.612  18.459  0.00  0.00    +0.000 C 
ATOM     25  N   UNL     1      -1.079  10.271  17.663  0.00  0.00    +0.000 N 
ATOM     26  H   UNL     1      -1.093   9.367  17.214  0.00  0.00    +0.000 HD
BRANCH  25  27
ATOM     27  C   UNL     1      -2.109  11.192  17.314  0.00  0.00    +0.000 C 
ATOM     28  C   UNL     1      -2.797  11.081  15.979  0.00  0.00    +0.000 C 
ATOM     29  C   UNL     1      -3.538  10.734  17.237  0.00  0.00    +0.000 C 
ENDBRANCH  25  27
ENDBRANCH  17  24
ENDBRANCH  16  20
ENDBRANCH   1  16
TORSDOF 6
ENDMDL
MODEL 3
REMARK VINA RESULT:      -8.6      0.875      1.260
REMARK  Name = 
REMARK  6 active torsions:
REMARK  status: ('A' for Active; 'I' for Inactive)
REMARK    1  A    between atoms: C_2  and  C_7
REMARK    2  A    between atoms: N_3  and  C_4
REMARK    3  A    between atoms: C_10  and  O_11
REMARK    4  A    between atoms: O_11  and  C_12
REMARK    5  A    between atoms: C_12  and  C_13
REMARK    6  A    between atoms: C_18  and  C_20
REMARK                            x       y       z     vdW  Elec       q    Type
REMARK                         _______ _______ _______ _____ _____    ______ ____
ROOT
ATOM      1  C   UNL     1       3.766   6.981  18.347  0.00  0.00    +0.000 C 
ENDROOT
BRANCH   1   2
ATOM      2  C   UNL     1       4.115   5.843  17.384  0.00  0.00    +0.000 C 
ATOM      3  C   UNL     1       5.031   6.268  16.236  0.00  0.00    +0.000 C 
ATOM      4  C   UNL     1       6.418   6.227  16.860  0.00  0.00    +0.000 C 
ATOM      5  C   UNL     1       6.335   5.088  17.876  0.00  0.00    +0.000 C 
ATOM      6  N   UNL     1       4.913   4.804  18.050  0.00  0.00    +0.000 N 
ATOM      7  C   UNL     1       4.541   3.765  18.903  0.00  0.00    +0.000 C 
ATOM      8  O   UNL     1       5.395   3.082  19.469  0.00  0.00    +0.000 OA
BRANCH   7   9
ATOM      9  C   UNL     1       3.109   3.449  19.157  0.00  0.00    +0.000 A 
ATOM     10  C   UNL     1       2.390   2.547  18.366  0.00  0.00    +0.000 A 
ATOM     11  C   UNL     1       1.022   2.345  18.567  0.00  0.00    +0.000 A 
ATOM     12  C   UNL     1       0.381   2.951  19.641  0.00  0.00    +0.000 A 
ATOM     13  C   UNL     1       1.110   3.757  20.512  0.00  0.00    +0.000 A 
ATOM     14  C   UNL     1       2.460   4.016  20.259  0.00  0.00    +0.000 A 
ATOM     15  F   UNL     1       3.102   4.833  21.107  0.00  0.00    +0.000 F 
ENDBRANCH   7   9
ENDBRANCH   1   2
BRANCH   1  16
ATOM     16  O   UNL     1       2.539   7.609  17.956  0.00  0.00    +0.000 OA
BRANCH  16  20
ATOM     17  C   UNL     1       0.624   9.439  21.177  0.00  0.00    +0.000 A 
ATOM     18  C   UNL     1       0.581  10.056  19.928  0.00  0.00    +0.000 A 
ATOM     19  C   UNL     1       1.215   9.470  18.833  0.00  0.00    +0.000 A 
ATOM     20  C   UNL     1       1.876   8.250  18.969  0.00  0.00    +0.000 A 
ATOM     21  C   UNL     1       1.884   7.605  20.214  0.00  0.00    +0.000 A 
ATOM     22  C   UNL     1       1.256   8.195  21.316  0.00  0.00    +0.000 A 
BRANCH  17  24
ATOM     23  O   UNL     1       0.347   9.775  23.495  0.00  0.00    +0.000 OA
ATOM     24  C   UNL     1       0.004  10.090  22.362  0.00  0.00    +0.000 C 
ATOM     25  N   UNL     1      -0.932  11.065  22.062  0.00  0.00    +0.000 N 
ATOM     26  H   UNL     1      -1.031  11.374  21.106  0.00  0.00    +0.000 HD
BRANCH  25  27
ATOM     27  C   UNL     1      -1.662  11.773  23.060  0.00  0.00    +0.000 C 
ATOM     28  C   UNL     1      -1.731  13.277  23.016  0.00  0.00    +0.000 C 
ATOM     29  C   UNL     1      -2.951  12.460  22.708  0.00  0.00    +0.000 C 
ENDBRANCH  25  27
ENDBRANCH  17  24
ENDBRANCH  16  20
ENDBRANCH   1  16
TORSDOF 6
ENDMDL
MODEL 4
REMARK VINA RESULT:      -8.5      0.942      1.030
REMARK  Name = 
REMARK  6 active torsions:
REMARK  status: ('A' for Active; 'I' for Inactive)
REMARK    1  A    between atoms: C_2  and  C_7
REMARK    2  A    between atoms: N_3  and  C_4
REMARK    3  A    between atoms: C_10  and  O_11
REMARK    4  A    between atoms: O_11  and  C_12
REMARK    5  A    between atoms: C_12  and  C_13
REMARK    6  A    between atoms: C_18  and  C_20
REMARK                            x       y       z     vdW  Elec       q    Type
REMARK                         _______ _______ _______ _____ _____    ______ ____
ROOT
ATOM      1  C   UNL     1       3.835   7.047  17.867  0.00  0.00    +0.000 C 
ENDROOT
BRANCH   1   2
ATOM      2  C   UNL     1       4.282   5.783  17.128  0.00  0.00    +0.000 C 
ATOM      3  C   UNL     1       5.272   6.051  15.995  0.00  0.00    +0.000 C 
ATOM      4  C   UNL     1       6.609   6.159  16.714  0.00  0.00    +0.000 C 
ATOM      5  C   UNL     1       6.476   5.196  17.893  0.00  0.00    +0.000 C 
ATOM      6  N   UNL     1       5.052   4.893  18.009  0.00  0.00    +0.000 N 
ATOM      7  C   UNL     1       4.642   3.992  18.991  0.00  0.00    +0.000 C 
ATOM      8  O   UNL     1       5.466   3.439  19.720  0.00  0.00    +0.000 OA
BRANCH   7   9
ATOM      9  C   UNL     1       3.202   3.670  19.191  0.00  0.00    +0.000 A 
ATOM     10  C   UNL     1       2.388   4.396  20.067  0.00  0.00    +0.000 A 
ATOM     11  C   UNL     1       1.067   4.010  20.309  0.00  0.00    +0.000 A 
ATOM     12  C   UNL     1       0.505   2.964  19.583  0.00  0.00    +0.000 A 
ATOM     13  C   UNL     1       1.267   2.310  18.618  0.00  0.00    +0.000 A 
ATOM     14  C   UNL     1       2.609   2.651  18.438  0.00  0.00    +0.000 A 
ATOM     15  F   UNL     1       3.306   1.958  17.525  0.00  0.00    +0.000 F 
ENDBRANCH   7   9
ENDBRANCH   1   2
BRANCH   1  16
ATOM     16  O   UNL     1       2.405   7.140  17.880  0.00  0.00    +0.000 OA
BRANCH  16  20
ATOM     17  C   UNL     1       0.947  10.315  20.157  0.00  0.00    +0.000 A 
ATOM     18  C   UNL     1       1.146  10.502  18.789  0.00  0.00    +0.000 A 
ATOM     19  C   UNL     1       1.636   9.458  18.003  0.00  0.00    +0.000 A 
ATOM     20  C   UNL     1       1.908   8.215  18.570  0.00  0.00    +0.000 A 
ATOM     21  C   UNL     1       1.668   8.011  19.936  0.00  0.00    +0.000 A 
ATOM     22  C   UNL     1       1.184   9.058  20.728  0.00  0.00    +0.000 A 
BRANCH  17  24
ATOM     23  O   UNL     1       1.245  12.363  21.288  0.00  0.00    +0.000 OA
ATOM     24  C   UNL     1       0.486  11.442  21.011  0.00  0.00    +0.000 C 
ATOM     25  N   UNL     1      -0.836  11.360  21.412  0.00  0.00    +0.000 N 
ATOM     26  H   UNL     1      -1.431  10.655  21.003  0.00  0.00    +0.000 HD
BRANCH  25  27
ATOM     27  C   UNL     1      -1.450  12.322  22.266  0.00  0.00    +0.000 C 
ATOM     28  C   UNL     1      -2.906  12.662  22.091  0.00  0.00    +0.000 C 
ATOM     29  C   UNL     1      -2.455  11.888  23.294  0.00  0.00    +0.000 C 
ENDBRANCH  25  27
ENDBRANCH  17  24
ENDBRANCH  16  20
ENDBRANCH   1  16
TORSDOF 6
ENDMDL
MODEL 5
REMARK VINA RESULT:      -8.4      1.436      2.010
REMARK  Name = 
REMARK  6 active torsions:
REMARK  status: ('A' for Active; 'I' for Inactive)
REMARK    1  A    between atoms: C_2  and  C_7
REMARK    2  A    between atoms: N_3  and  C_4
REMARK    3  A    between atoms: C_10  and  O_11
REMARK    4  A    between atoms: O_11  and  C_12
REMARK    5  A    between atoms: C_12  and  C_13
REMARK    6  A    between atoms: C_18  and  C_20
REMARK                            x       y       z     vdW  Elec       q    Type
REMARK                         _______ _______ _______ _____ _____    ______ ____
ROOT
ATOM      1  C   UNL     1       3.884   6.801  17.674  0.00  0.00    +0.000 C 
ENDROOT
BRANCH   1   2
ATOM      2  C   UNL     1       4.355   5.514  16.990  0.00  0.00    +0.000 C 
ATOM      3  C   UNL     1       5.377   5.747  15.878  0.00  0.00    +0.000 C 
ATOM      4  C   UNL     1       6.692   5.884  16.631  0.00  0.00    +0.000 C 
ATOM      5  C   UNL     1       6.528   4.960  17.837  0.00  0.00    +0.000 C 
ATOM      6  N   UNL     1       5.101   4.656  17.922  0.00  0.00    +0.000 N 
ATOM      7  C   UNL     1       4.665   3.787  18.921  0.00  0.00    +0.000 C 
ATOM      8  O   UNL     1       5.469   3.261  19.691  0.00  0.00    +0.000 OA
BRANCH   7   9
ATOM      9  C   UNL     1       3.221   3.467  19.090  0.00  0.00    +0.000 A 
ATOM     10  C   UNL     1       2.572   2.503  18.311  0.00  0.00    +0.000 A 
ATOM     11  C   UNL     1       1.195   2.294  18.425  0.00  0.00    +0.000 A 
ATOM     12  C   UNL     1       0.469   2.962  19.405  0.00  0.00    +0.000 A 
ATOM     13  C   UNL     1       1.124   3.835  20.271  0.00  0.00    +0.000 A 
ATOM     14  C   UNL     1       2.486   4.096  20.101  0.00  0.00    +0.000 A 
ATOM     15  F   UNL     1       3.055   4.978  20.936  0.00  0.00    +0.000 F 
ENDBRANCH   7   9
ENDBRANCH   1   2
BRANCH   1  16
ATOM     16  O   UNL     1       2.595   6.608  18.270  0.00  0.00    +0.000 OA
BRANCH  16  20
ATOM     17  C   UNL     1       0.823  10.124  19.644  0.00  0.00    +0.000 A 
ATOM     18  C   UNL     1       1.079   9.098  20.553  0.00  0.00    +0.000 A 
ATOM     19  C   UNL     1       1.668   7.909  20.121  0.00  0.00    +0.000 A 
ATOM     20  C   UNL     1       2.028   7.743  18.785  0.00  0.00    +0.000 A 
ATOM     21  C   UNL     1       1.811   8.789  17.878  0.00  0.00    +0.000 A 
ATOM     22  C   UNL     1       1.213   9.980  18.305  0.00  0.00    +0.000 A 
BRANCH  17  24
ATOM     23  O   UNL     1       0.392  12.441  19.550  0.00  0.00    +0.000 OA
ATOM     24  C   UNL     1       0.138  11.368  20.085  0.00  0.00    +0.000 C 
ATOM     25  N   UNL     1      -0.794  11.189  21.092  0.00  0.00    +0.000 N 
ATOM     26  H   UNL     1      -1.058  10.251  21.358  0.00  0.00    +0.000 HD
BRANCH  25  27
ATOM     27  C   UNL     1      -1.524  12.265  21.675  0.00  0.00    +0.000 C 
ATOM     28  C   UNL     1      -2.348  12.032  22.914  0.00  0.00    +0.000 C 
ATOM     29  C   UNL     1      -1.091  12.847  22.990  0.00  0.00    +0.000 C 
ENDBRANCH  25  27
ENDBRANCH  17  24
ENDBRANCH  16  20
ENDBRANCH   1  16
TORSDOF 6
ENDMDL
MODEL 6
REMARK VINA RESULT:      -8.3      2.761      4.597
REMARK  Name = 
REMARK  6 active torsions:
REMARK  status: ('A' for Active; 'I' for Inactive)
REMARK    1  A    between atoms: C_2  and  C_7
REMARK    2  A    between atoms: N_3  and  C_4
REMARK    3  A    between atoms: C_10  and  O_11
REMARK    4  A    between atoms: O_11  and  C_12
REMARK    5  A    between atoms: C_12  and  C_13
REMARK    6  A    between atoms: C_18  and  C_20
REMARK                            x       y       z     vdW  Elec       q    Type
REMARK                         _______ _______ _______ _____ _____    ______ ____
ROOT
ATOM      1  C   UNL     1       2.680   6.183  18.572  0.00  0.00    +0.000 C 
ENDROOT
BRANCH   1   2
ATOM      2  C   UNL     1       3.341   4.875  19.017  0.00  0.00    +0.000 C 
ATOM      3  C   UNL     1       2.363   3.866  19.618  0.00  0.00    +0.000 C 
ATOM      4  C   UNL     1       1.754   3.196  18.396  0.00  0.00    +0.000 C 
ATOM      5  C   UNL     1       2.885   3.198  17.367  0.00  0.00    +0.000 C 
ATOM      6  N   UNL     1       3.886   4.135  17.870  0.00  0.00    +0.000 N 
ATOM      7  C   UNL     1       5.063   4.305  17.141  0.00  0.00    +0.000 C 
ATOM      8  O   UNL     1       5.266   3.654  16.116  0.00  0.00    +0.000 OA
BRANCH   7   9
ATOM      9  C   UNL     1       6.106   5.275  17.574  0.00  0.00    +0.000 A 
ATOM     10  C   UNL     1       7.055   4.964  18.554  0.00  0.00    +0.000 A 
ATOM     11  C   UNL     1       7.960   5.926  19.010  0.00  0.00    +0.000 A 
ATOM     12  C   UNL     1       8.007   7.178  18.406  0.00  0.00    +0.000 A 
ATOM     13  C   UNL     1       7.150   7.461  17.345  0.00  0.00    +0.000 A 
ATOM     14  C   UNL     1       6.197   6.522  16.946  0.00  0.00    +0.000 A 
ATOM     15  F   UNL     1       5.369   6.866  15.948  0.00  0.00    +0.000 F 
ENDBRANCH   7   9
ENDBRANCH   1   2
BRANCH   1  16
ATOM     16  O   UNL     1       2.666   7.128  19.649  0.00  0.00    +0.000 OA
BRANCH  16  20
ATOM     17  C   UNL     1      -0.097  10.185  19.007  0.00  0.00    +0.000 A 
ATOM     18  C   UNL     1       0.096   9.712  20.305  0.00  0.00    +0.000 A 
ATOM     19  C   UNL     1       1.011   8.688  20.549  0.00  0.00    +0.000 A 
ATOM     20  C   UNL     1       1.758   8.145  19.506  0.00  0.00    +0.000 A 
ATOM     21  C   UNL     1       1.598   8.648  18.207  0.00  0.00    +0.000 A 
ATOM     22  C   UNL     1       0.675   9.669  17.957  0.00  0.00    +0.000 A 
BRANCH  17  24
ATOM     23  O   UNL     1      -0.835  12.420  18.848  0.00  0.00    +0.000 OA
ATOM     24  C   UNL     1      -1.117  11.233  18.731  0.00  0.00    +0.000 C 
ATOM     25  N   UNL     1      -2.345  10.750  18.317  0.00  0.00    +0.000 N 
ATOM     26  H   UNL     1      -2.437   9.770  18.090  0.00  0.00    +0.000 HD
BRANCH  25  27
ATOM     27  C   UNL     1      -3.460  11.594  18.043  0.00  0.00    +0.000 C 
ATOM     28  C   UNL     1      -4.254  11.405  16.778  0.00  0.00    +0.000 C 
ATOM     29  C   UNL     1      -4.857  11.045  18.103  0.00  0.00    +0.000 C 
ENDBRANCH  25  27
ENDBRANCH  17  24
ENDBRANCH  16  20
ENDBRANCH   1  16
TORSDOF 6
ENDMDL
MODEL 7
REMARK VINA RESULT:      -8.3      1.134      1.556
REMARK  Name = 
REMARK  6 active torsions:
REMARK  status: ('A' for Active; 'I' for Inactive)
REMARK    1  A    between atoms: C_2  and  C_7
REMARK    2  A    between atoms: N_3  and  C_4
REMARK    3  A    between atoms: C_10  and  O_11
REMARK    4  A    between atoms: O_11  and  C_12
REMARK    5  A    between atoms: C_12  and  C_13
REMARK    6  A    between atoms: C_18  and  C_20
REMARK                            x       y       z     vdW  Elec       q    Type
REMARK                         _______ _______ _______ _____ _____    ______ ____
ROOT
ATOM      1  C   UNL     1       3.848   6.804  17.755  0.00  0.00    +0.000 C 
ENDROOT
BRANCH   1   2
ATOM      2  C   UNL     1       4.237   5.495  17.064  0.00  0.00    +0.000 C 
ATOM      3  C   UNL     1       5.181   5.684  15.876  0.00  0.00    +0.000 C 
ATOM      4  C   UNL     1       6.549   5.800  16.529  0.00  0.00    +0.000 C 
ATOM      5  C   UNL     1       6.452   4.901  17.761  0.00  0.00    +0.000 C 
ATOM      6  N   UNL     1       5.029   4.635  17.955  0.00  0.00    +0.000 N 
ATOM      7  C   UNL     1       4.646   3.793  18.999  0.00  0.00    +0.000 C 
ATOM      8  O   UNL     1       5.491   3.260  19.718  0.00  0.00    +0.000 OA
BRANCH   7   9
ATOM      9  C   UNL     1       3.211   3.512  19.278  0.00  0.00    +0.000 A 
ATOM     10  C   UNL     1       2.538   4.069  20.370  0.00  0.00    +0.000 A 
ATOM     11  C   UNL     1       1.220   3.711  20.663  0.00  0.00    +0.000 A 
ATOM     12  C   UNL     1       0.516   2.882  19.795  0.00  0.00    +0.000 A 
ATOM     13  C   UNL     1       1.134   2.417  18.637  0.00  0.00    +0.000 A 
ATOM     14  C   UNL     1       2.476   2.717  18.391  0.00  0.00    +0.000 A 
ATOM     15  F   UNL     1       3.031   2.207  17.282  0.00  0.00    +0.000 F 
ENDBRANCH   7   9
ENDBRANCH   1   2
BRANCH   1  16
ATOM     16  O   UNL     1       2.812   6.573  18.719  0.00  0.00    +0.000 OA
BRANCH  16  20
ATOM     17  C   UNL     1       0.779  10.057  19.773  0.00  0.00    +0.000 A 
ATOM     18  C   UNL     1       0.962   9.066  20.736  0.00  0.00    +0.000 A 
ATOM     19  C   UNL     1       1.635   7.888  20.411  0.00  0.00    +0.000 A 
ATOM     20  C   UNL     1       2.153   7.700  19.131  0.00  0.00    +0.000 A 
ATOM     21  C   UNL     1       2.008   8.714  18.173  0.00  0.00    +0.000 A 
ATOM     22  C   UNL     1       1.327   9.893  18.493  0.00  0.00    +0.000 A 
BRANCH  17  24
ATOM     23  O   UNL     1       0.085  12.276  19.375  0.00  0.00    +0.000 OA
ATOM     24  C   UNL     1       0.007  11.287  20.095  0.00  0.00    +0.000 C 
ATOM     25  N   UNL     1      -0.794  11.190  21.219  0.00  0.00    +0.000 N 
ATOM     26  H   UNL     1      -0.922  10.288  21.655  0.00  0.00    +0.000 HD
BRANCH  25  27
ATOM     27  C   UNL     1      -1.577  12.274  21.711  0.00  0.00    +0.000 C 
ATOM     28  C   UNL     1      -2.413  12.096  22.951  0.00  0.00    +0.000 C 
ATOM     29  C   UNL     1      -1.192  12.967  22.988  0.00  0.00    +0.000 C 
ENDBRANCH  25  27
ENDBRANCH  17  24
ENDBRANCH  16  20
ENDBRANCH   1  16
TORSDOF 6
ENDMDL
MODEL 8
REMARK VINA RESULT:      -8.3      2.067      2.539
REMARK  Name = 
REMARK  6 active torsions:
REMARK  status: ('A' for Active; 'I' for Inactive)
REMARK    1  A    between atoms: C_2  and  C_7
REMARK    2  A    between atoms: N_3  and  C_4
REMARK    3  A    between atoms: C_10  and  O_11
REMARK    4  A    between atoms: O_11  and  C_12
REMARK    5  A    between atoms: C_12  and  C_13
REMARK    6  A    between atoms: C_18  and  C_20
REMARK                            x       y       z     vdW  Elec       q    Type
REMARK                         _______ _______ _______ _____ _____    ______ ____
ROOT
ATOM      1  C   UNL     1       4.155   6.834  17.617  0.00  0.00    +0.000 C 
ENDROOT
BRANCH   1   2
ATOM      2  C   UNL     1       4.416   5.471  16.971  0.00  0.00    +0.000 C 
ATOM      3  C   UNL     1       5.352   5.533  15.764  0.00  0.00    +0.000 C 
ATOM      4  C   UNL     1       6.737   5.551  16.393  0.00  0.00    +0.000 C 
ATOM      5  C   UNL     1       6.581   4.709  17.659  0.00  0.00    +0.000 C 
ATOM      6  N   UNL     1       5.144   4.577  17.883  0.00  0.00    +0.000 N 
ATOM      7  C   UNL     1       4.706   3.811  18.963  0.00  0.00    +0.000 C 
ATOM      8  O   UNL     1       5.513   3.232  19.690  0.00  0.00    +0.000 OA
BRANCH   7   9
ATOM      9  C   UNL     1       3.257   3.669  19.272  0.00  0.00    +0.000 A 
ATOM     10  C   UNL     1       2.670   4.260  20.396  0.00  0.00    +0.000 A 
ATOM     11  C   UNL     1       1.329   4.028  20.713  0.00  0.00    +0.000 A 
ATOM     12  C   UNL     1       0.525   3.300  19.843  0.00  0.00    +0.000 A 
ATOM     13  C   UNL     1       1.065   2.808  18.657  0.00  0.00    +0.000 A 
ATOM     14  C   UNL     1       2.424   2.978  18.385  0.00  0.00    +0.000 A 
ATOM     15  F   UNL     1       2.898   2.445  17.248  0.00  0.00    +0.000 F 
ENDBRANCH   7   9
ENDBRANCH   1   2
BRANCH   1  16
ATOM     16  O   UNL     1       3.335   6.686  18.783  0.00  0.00    +0.000 OA
BRANCH  16  20
ATOM     17  C   UNL     1       0.428   9.663  19.066  0.00  0.00    +0.000 A 
ATOM     18  C   UNL     1       0.802   8.974  20.219  0.00  0.00    +0.000 A 
ATOM     19  C   UNL     1       1.769   7.971  20.154  0.00  0.00    +0.000 A 
ATOM     20  C   UNL     1       2.388   7.664  18.944  0.00  0.00    +0.000 A 
ATOM     21  C   UNL     1       2.046   8.384  17.792  0.00  0.00    +0.000 A 
ATOM     22  C   UNL     1       1.071   9.386  17.852  0.00  0.00    +0.000 A 
BRANCH  17  24
ATOM     23  O   UNL     1      -0.562  11.640  19.887  0.00  0.00    +0.000 OA
ATOM     24  C   UNL     1      -0.647  10.690  19.118  0.00  0.00    +0.000 C 
ATOM     25  N   UNL     1      -1.685  10.486  18.226  0.00  0.00    +0.000 N 
ATOM     26  H   UNL     1      -1.591   9.772  17.518  0.00  0.00    +0.000 HD
BRANCH  25  27
ATOM     27  C   UNL     1      -2.824  11.338  18.152  0.00  0.00    +0.000 C 
ATOM     28  C   UNL     1      -3.589  11.461  16.861  0.00  0.00    +0.000 C 
ATOM     29  C   UNL     1      -4.201  10.749  18.031  0.00  0.00    +0.000 C 
ENDBRANCH  25  27
ENDBRANCH  17  24
ENDBRANCH  16  20
ENDBRANCH   1  16
TORSDOF 6
ENDMDL
MODEL 9
REMARK VINA RESULT:      -8.3      1.403      1.733
REMARK  Name = 
REMARK  6 active torsions:
REMARK  status: ('A' for Active; 'I' for Inactive)
REMARK    1  A    between atoms: C_2  and  C_7
REMARK    2  A    between atoms: N_3  and  C_4
REMARK    3  A    between atoms: C_10  and  O_11
REMARK    4  A    between atoms: O_11  and  C_12
REMARK    5  A    between atoms: C_12  and  C_13
REMARK    6  A    between atoms: C_18  and  C_20
REMARK                            x       y       z     vdW  Elec       q    Type
REMARK                         _______ _______ _______ _____ _____    ______ ____
ROOT
ATOM      1  C   UNL     1       3.955   6.672  17.668  0.00  0.00    +0.000 C 
ENDROOT
BRANCH   1   2
ATOM      2  C   UNL     1       4.405   5.365  17.010  0.00  0.00    +0.000 C 
ATOM      3  C   UNL     1       5.447   5.557  15.909  0.00  0.00    +0.000 C 
ATOM      4  C   UNL     1       6.754   5.674  16.679  0.00  0.00    +0.000 C 
ATOM      5  C   UNL     1       6.552   4.773  17.896  0.00  0.00    +0.000 C 
ATOM      6  N   UNL     1       5.118   4.504  17.965  0.00  0.00    +0.000 N 
ATOM      7  C   UNL     1       4.647   3.660  18.971  0.00  0.00    +0.000 C 
ATOM      8  O   UNL     1       5.428   3.127  19.759  0.00  0.00    +0.000 OA
BRANCH   7   9
ATOM      9  C   UNL     1       3.194   3.377  19.124  0.00  0.00    +0.000 A 
ATOM     10  C   UNL     1       2.531   2.423  18.344  0.00  0.00    +0.000 A 
ATOM     11  C   UNL     1       1.148   2.249  18.441  0.00  0.00    +0.000 A 
ATOM     12  C   UNL     1       0.427   2.941  19.408  0.00  0.00    +0.000 A 
ATOM     13  C   UNL     1       1.093   3.804  20.276  0.00  0.00    +0.000 A 
ATOM     14  C   UNL     1       2.462   4.031  20.121  0.00  0.00    +0.000 A 
ATOM     15  F   UNL     1       3.042   4.905  20.957  0.00  0.00    +0.000 F 
ENDBRANCH   7   9
ENDBRANCH   1   2
BRANCH   1  16
ATOM     16  O   UNL     1       2.570   6.600  18.028  0.00  0.00    +0.000 OA
BRANCH  16  20
ATOM     17  C   UNL     1       1.045  10.041  19.826  0.00  0.00    +0.000 A 
ATOM     18  C   UNL     1       1.342  10.067  18.464  0.00  0.00    +0.000 A 
ATOM     19  C   UNL     1       1.857   8.932  17.836  0.00  0.00    +0.000 A 
ATOM     20  C   UNL     1       2.056   7.755  18.556  0.00  0.00    +0.000 A 
ATOM     21  C   UNL     1       1.717   7.713  19.916  0.00  0.00    +0.000 A 
ATOM     22  C   UNL     1       1.209   8.852  20.550  0.00  0.00    +0.000 A 
BRANCH  17  24
ATOM     23  O   UNL     1       0.933  12.374  20.151  0.00  0.00    +0.000 OA
ATOM     24  C   UNL     1       0.557  11.265  20.514  0.00  0.00    +0.000 C 
ATOM     25  N   UNL     1      -0.348  11.034  21.534  0.00  0.00    +0.000 N 
ATOM     26  H   UNL     1      -0.727  10.105  21.655  0.00  0.00    +0.000 HD
BRANCH  25  27
ATOM     27  C   UNL     1      -0.899  12.076  22.335  0.00  0.00    +0.000 C 
ATOM     28  C   UNL     1      -2.222  12.691  21.964  0.00  0.00    +0.000 C 
ATOM     29  C   UNL     1      -2.115  11.817  23.179  0.00  0.00    +0.000 C 
ENDBRANCH  25  27
ENDBRANCH  17  24
ENDBRANCH  16  20
ENDBRANCH   1  16
TORSDOF 6
ENDMDL
