MODEL 1
REMARK VINA RESULT:      -8.6      0.000      0.000
REMARK  Name = 
REMARK  6 active torsions:
REMARK  status: ('A' for Active; 'I' for Inactive)
REMARK    1  A    between atoms: N_1  and  S_2
REMARK    2  A    between atoms: S_2  and  C_5
REMARK    3  A    between atoms: C_8  and  N_9
REMARK    4  A    between atoms: N_9  and  S_10
REMARK    5  A    between atoms: S_10  and  C_13
REMARK    6  A    between atoms: C_17  and  C_18
REMARK                            x       y       z     vdW  Elec       q    Type
REMARK                         _______ _______ _______ _____ _____    ______ ____
ROOT
ATOM      1  S   UNL     1       2.088   4.863  20.529  0.00  0.00    +0.000 S 
ATOM      2  O   UNL     1       2.460   4.324  21.819  0.00  0.00    +0.000 OA
ATOM      3  O   UNL     1       0.701   5.116  20.198  0.00  0.00    +0.000 OA
ENDROOT
BRANCH   1   4
ATOM      4  C   UNL     1       2.750   3.801  19.263  0.00  0.00    +0.000 A 
ATOM      5  C   UNL     1       2.321   2.483  19.133  0.00  0.00    +0.000 A 
ATOM      6  C   UNL     1       2.920   1.668  18.166  0.00  0.00    +0.000 A 
ATOM      7  C   UNL     1       3.935   2.167  17.323  0.00  0.00    +0.000 A 
ATOM      8  C   UNL     1       4.361   3.498  17.437  0.00  0.00    +0.000 A 
ATOM      9  C   UNL     1       3.768   4.286  18.441  0.00  0.00    +0.000 A 
BRANCH   8  10
ATOM     10  C   UNL     1       5.409   4.123  16.593  0.00  0.00    +0.000 A 
ATOM     11  N   UNL     1       6.298   4.914  17.233  0.00  0.00    +0.000 NA
ATOM     12  N   UNL     1       7.127   5.348  16.294  0.00  0.00    +0.000 N 
ATOM     13  C   UNL     1       6.867   4.877  15.048  0.00  0.00    +0.000 A 
ATOM     14  C   UNL     1       7.553   5.091  13.849  0.00  0.00    +0.000 A 
ATOM     15  C   UNL     1       7.016   4.506  12.711  0.00  0.00    +0.000 A 
ATOM     16  F   UNL     1       7.639   4.684  11.539  0.00  0.00    +0.000 F 
ATOM     17  C   UNL     1       5.848   3.755  12.763  0.00  0.00    +0.000 A 
ATOM     18  C   UNL     1       5.186   3.538  13.991  0.00  0.00    +0.000 A 
ATOM     19  C   UNL     1       5.712   4.098  15.178  0.00  0.00    +0.000 A 
ATOM     20  H   UNL     1       7.865   5.988  16.574  0.00  0.00    +0.000 HD
ENDBRANCH   8  10
ENDBRANCH   1   4
BRANCH   1  21
ATOM     21  N   UNL     1       2.883   6.327  20.299  0.00  0.00    +0.000 N 
ATOM     22  H   UNL     1       3.735   6.419  20.849  0.00  0.00    +0.000 HD
BRANCH  21  26
ATOM     23  C   UNL     1       0.665   9.716  19.213  0.00  0.00    +0.000 A 
ATOM     24  C   UNL     1       1.461   9.079  18.258  0.00  0.00    +0.000 A 
ATOM     25  C   UNL     1       2.203   7.957  18.630  0.00  0.00    +0.000 A 
ATOM     26  C   UNL     1       2.167   7.499  19.951  0.00  0.00    +0.000 A 
ATOM     27  C   UNL     1       1.417   8.172  20.913  0.00  0.00    +0.000 A 
ATOM     28  C   UNL     1       0.654   9.281  20.544  0.00  0.00    +0.000 A 
BRANCH  23  29
ATOM     29  S   UNL     1      -0.362  11.078  18.750  0.00  0.00    +0.000 S 
ATOM     30  O   UNL     1      -1.335  10.639  17.777  0.00  0.00    +0.000 OA
ATOM     31  O   UNL     1       0.457  12.250  18.557  0.00  0.00    +0.000 OA
BRANCH  29  32
ATOM     32  N   UNL     1      -1.208  11.342  20.178  0.00  0.00    +0.000 NA
ATOM     33  H   UNL     1      -0.769  12.098  20.704  0.00  0.00    +0.000 HD
ATOM     34  H   UNL     1      -1.306  10.475  20.704  0.00  0.00    +0.000 HD
ENDBRANCH  29  32
ENDBRANCH  23  29
ENDBRANCH  21  26
ENDBRANCH   1  21
TORSDOF 6
ENDMDL
MODEL 2
REMARK VINA RESULT:      -8.5      3.798      5.696
REMARK  Name = 
REMARK  6 active torsions:
REMARK  status: ('A' for Active; 'I' for Inactive)
REMARK    1  A    between atoms: N_1  and  S_2
REMARK    2  A    between atoms: S_2  and  C_5
REMARK    3  A    between atoms: C_8  and  N_9
REMARK    4  A    between atoms: N_9  and  S_10
REMARK    5  A    between atoms: S_10  and  C_13
REMARK    6  A    between atoms: C_17  and  C_18
REMARK                            x       y       z     vdW  Elec       q    Type
REMARK                         _______ _______ _______ _____ _____    ______ ____
ROOT
ATOM      1  S   UNL     1       0.542   9.668  21.903  0.00  0.00    +0.000 S 
ATOM      2  O   UNL     1       1.608   9.433  22.853  0.00  0.00    +0.000 OA
ATOM      3  O   UNL     1      -0.716   8.959  22.002  0.00  0.00    +0.000 OA
ENDROOT
BRANCH   1   4
ATOM      4  C   UNL     1       1.179   9.393  20.263  0.00  0.00    +0.000 A 
ATOM      5  C   UNL     1       1.096  10.378  19.284  0.00  0.00    +0.000 A 
ATOM      6  C   UNL     1       1.550  10.090  17.992  0.00  0.00    +0.000 A 
ATOM      7  C   UNL     1       2.096   8.828  17.679  0.00  0.00    +0.000 A 
ATOM      8  C   UNL     1       2.199   7.836  18.664  0.00  0.00    +0.000 A 
ATOM      9  C   UNL     1       1.703   8.139  19.945  0.00  0.00    +0.000 A 
BRANCH   8  10
ATOM     10  C   UNL     1       2.769   6.483  18.443  0.00  0.00    +0.000 A 
ATOM     11  N   UNL     1       2.302   5.500  19.243  0.00  0.00    +0.000 NA
ATOM     12  N   UNL     1       2.939   4.401  18.863  0.00  0.00    +0.000 N 
ATOM     13  C   UNL     1       3.800   4.575  17.829  0.00  0.00    +0.000 A 
ATOM     14  C   UNL     1       4.592   3.640  17.156  0.00  0.00    +0.000 A 
ATOM     15  C   UNL     1       5.418   4.129  16.155  0.00  0.00    +0.000 A 
ATOM     16  F   UNL     1       6.196   3.269  15.483  0.00  0.00    +0.000 F 
ATOM     17  C   UNL     1       5.461   5.483  15.846  0.00  0.00    +0.000 A 
ATOM     18  C   UNL     1       4.636   6.403  16.527  0.00  0.00    +0.000 A 
ATOM     19  C   UNL     1       3.763   5.943  17.540  0.00  0.00    +0.000 A 
ATOM     20  H   UNL     1       2.742   3.543  19.370  0.00  0.00    +0.000 HD
ENDBRANCH   8  10
ENDBRANCH   1   4
BRANCH   1  21
ATOM     21  N   UNL     1       0.144  11.302  21.923  0.00  0.00    +0.000 N 
ATOM     22  H   UNL     1       0.882  11.897  22.294  0.00  0.00    +0.000 HD
BRANCH  21  26
ATOM     23  C   UNL     1      -3.797  12.664  22.367  0.00  0.00    +0.000 A 
ATOM     24  C   UNL     1      -3.116  12.153  23.475  0.00  0.00    +0.000 A 
ATOM     25  C   UNL     1      -1.807  11.694  23.317  0.00  0.00    +0.000 A 
ATOM     26  C   UNL     1      -1.203  11.722  22.056  0.00  0.00    +0.000 A 
ATOM     27  C   UNL     1      -1.906  12.179  20.943  0.00  0.00    +0.000 A 
ATOM     28  C   UNL     1      -3.207  12.662  21.098  0.00  0.00    +0.000 A 
BRANCH  23  29
ATOM     29  S   UNL     1      -5.418  13.344  22.555  0.00  0.00    +0.000 S 
ATOM     30  O   UNL     1      -6.383  12.273  22.642  0.00  0.00    +0.000 OA
ATOM     31  O   UNL     1      -5.574  14.462  21.655  0.00  0.00    +0.000 OA
BRANCH  29  32
ATOM     32  N   UNL     1      -5.311  14.008  24.095  0.00  0.00    +0.000 NA
ATOM     33  H   UNL     1      -6.214  14.397  24.366  0.00  0.00    +0.000 HD
ATOM     34  H   UNL     1      -4.541  14.672  24.148  0.00  0.00    +0.000 HD
ENDBRANCH  29  32
ENDBRANCH  23  29
ENDBRANCH  21  26
ENDBRANCH   1  21
TORSDOF 6
ENDMDL
MODEL 3
REMARK VINA RESULT:      -8.5      4.094      6.019
REMARK  Name = 
REMARK  6 active torsions:
REMARK  status: ('A' for Active; 'I' for Inactive)
REMARK    1  A    between atoms: N_1  and  S_2
REMARK    2  A    between atoms: S_2  and  C_5
REMARK    3  A    between atoms: C_8  and  N_9
REMARK    4  A    between atoms: N_9  and  S_10
REMARK    5  A    between atoms: S_10  and  C_13
REMARK    6  A    between atoms: C_17  and  C_18
REMARK                            x       y       z     vdW  Elec       q    Type
REMARK                         _______ _______ _______ _____ _____    ______ ____
ROOT
ATOM      1  S   UNL     1       0.492   9.577  21.690  0.00  0.00    +0.000 S 
ATOM      2  O   UNL     1       1.527   9.529  22.700  0.00  0.00    +0.000 OA
ATOM      3  O   UNL     1      -0.756   8.863  21.866  0.00  0.00    +0.000 OA
ENDROOT
BRANCH   1   4
ATOM      4  C   UNL     1       1.193   9.047  20.141  0.00  0.00    +0.000 A 
ATOM      5  C   UNL     1       0.969   9.762  18.968  0.00  0.00    +0.000 A 
ATOM      6  C   UNL     1       1.485   9.268  17.765  0.00  0.00    +0.000 A 
ATOM      7  C   UNL     1       2.232   8.072  17.731  0.00  0.00    +0.000 A 
ATOM      8  C   UNL     1       2.476   7.355  18.911  0.00  0.00    +0.000 A 
ATOM      9  C   UNL     1       1.916   7.854  20.102  0.00  0.00    +0.000 A 
BRANCH   8  10
ATOM     10  C   UNL     1       3.259   6.096  18.987  0.00  0.00    +0.000 A 
ATOM     11  N   UNL     1       4.561   6.221  19.323  0.00  0.00    +0.000 NA
ATOM     12  N   UNL     1       5.045   4.987  19.333  0.00  0.00    +0.000 N 
ATOM     13  C   UNL     1       4.136   4.021  19.045  0.00  0.00    +0.000 A 
ATOM     14  C   UNL     1       4.288   2.632  19.010  0.00  0.00    +0.000 A 
ATOM     15  C   UNL     1       3.175   1.893  18.632  0.00  0.00    +0.000 A 
ATOM     16  F   UNL     1       3.273   0.558  18.584  0.00  0.00    +0.000 F 
ATOM     17  C   UNL     1       1.975   2.508  18.296  0.00  0.00    +0.000 A 
ATOM     18  C   UNL     1       1.844   3.912  18.360  0.00  0.00    +0.000 A 
ATOM     19  C   UNL     1       2.947   4.701  18.761  0.00  0.00    +0.000 A 
ATOM     20  H   UNL     1       6.032   4.869  19.542  0.00  0.00    +0.000 HD
ENDBRANCH   8  10
ENDBRANCH   1   4
BRANCH   1  21
ATOM     21  N   UNL     1       0.063  11.181  21.423  0.00  0.00    +0.000 N 
ATOM     22  H   UNL     1       0.859  11.814  21.380  0.00  0.00    +0.000 HD
BRANCH  21  26
ATOM     23  C   UNL     1      -3.693  12.561  22.676  0.00  0.00    +0.000 A 
ATOM     24  C   UNL     1      -3.295  12.756  21.351  0.00  0.00    +0.000 A 
ATOM     25  C   UNL     1      -2.039  12.301  20.944  0.00  0.00    +0.000 A 
ATOM     26  C   UNL     1      -1.185  11.684  21.864  0.00  0.00    +0.000 A 
ATOM     27  C   UNL     1      -1.563  11.545  23.198  0.00  0.00    +0.000 A 
ATOM     28  C   UNL     1      -2.826  11.976  23.607  0.00  0.00    +0.000 A 
BRANCH  23  29
ATOM     29  S   UNL     1      -5.314  13.036  23.197  0.00  0.00    +0.000 S 
ATOM     30  O   UNL     1      -6.299  12.348  22.395  0.00  0.00    +0.000 OA
ATOM     31  O   UNL     1      -5.347  14.462  23.416  0.00  0.00    +0.000 OA
BRANCH  29  32
ATOM     32  N   UNL     1      -5.378  12.337  24.723  0.00  0.00    +0.000 NA
ATOM     33  H   UNL     1      -5.201  13.046  25.435  0.00  0.00    +0.000 HD
ATOM     34  H   UNL     1      -4.755  11.532  24.778  0.00  0.00    +0.000 HD
ENDBRANCH  29  32
ENDBRANCH  23  29
ENDBRANCH  21  26
ENDBRANCH   1  21
TORSDOF 6
ENDMDL
MODEL 4
REMARK VINA RESULT:      -8.4      3.983      6.032
REMARK  Name = 
REMARK  6 active torsions:
REMARK  status: ('A' for Active; 'I' for Inactive)
REMARK    1  A    between atoms: N_1  and  S_2
REMARK    2  A    between atoms: S_2  and  C_5
REMARK    3  A    between atoms: C_8  and  N_9
REMARK    4  A    between atoms: N_9  and  S_10
REMARK    5  A    between atoms: S_10  and  C_13
REMARK    6  A    between atoms: C_17  and  C_18
REMARK                            x       y       z     vdW  Elec       q    Type
REMARK                         _______ _______ _______ _____ _____    ______ ____
ROOT
ATOM      1  S   UNL     1       0.615   9.548  21.858  0.00  0.00    +0.000 S 
ATOM      2  O   UNL     1       1.740   9.305  22.735  0.00  0.00    +0.000 OA
ATOM      3  O   UNL     1      -0.646   8.862  22.054  0.00  0.00    +0.000 OA
ENDROOT
BRANCH   1   4
ATOM      4  C   UNL     1       1.132   9.241  20.182  0.00  0.00    +0.000 A 
ATOM      5  C   UNL     1       0.776  10.104  19.150  0.00  0.00    +0.000 A 
ATOM      6  C   UNL     1       1.149   9.785  17.840  0.00  0.00    +0.000 A 
ATOM      7  C   UNL     1       1.885   8.615  17.560  0.00  0.00    +0.000 A 
ATOM      8  C   UNL     1       2.262   7.749  18.596  0.00  0.00    +0.000 A 
ATOM      9  C   UNL     1       1.844   8.075  19.899  0.00  0.00    +0.000 A 
BRANCH   8  10
ATOM     10  C   UNL     1       3.046   6.503  18.411  0.00  0.00    +0.000 A 
ATOM     11  N   UNL     1       4.353   6.658  18.107  0.00  0.00    +0.000 NA
ATOM     12  N   UNL     1       4.841   5.430  17.998  0.00  0.00    +0.000 N 
ATOM     13  C   UNL     1       3.941   4.441  18.234  0.00  0.00    +0.000 A 
ATOM     14  C   UNL     1       4.119   3.055  18.247  0.00  0.00    +0.000 A 
ATOM     15  C   UNL     1       2.988   2.285  18.478  0.00  0.00    +0.000 A 
ATOM     16  F   UNL     1       3.109   0.951  18.500  0.00  0.00    +0.000 F 
ATOM     17  C   UNL     1       1.741   2.866  18.675  0.00  0.00    +0.000 A 
ATOM     18  C   UNL     1       1.594   4.270  18.676  0.00  0.00    +0.000 A 
ATOM     19  C   UNL     1       2.726   5.092  18.466  0.00  0.00    +0.000 A 
ATOM     20  H   UNL     1       5.819   5.332  17.743  0.00  0.00    +0.000 HD
ENDBRANCH   8  10
ENDBRANCH   1   4
BRANCH   1  21
ATOM     21  N   UNL     1       0.247  11.189  21.884  0.00  0.00    +0.000 N 
ATOM     22  H   UNL     1       0.995  11.769  22.257  0.00  0.00    +0.000 HD
BRANCH  21  26
ATOM     23  C   UNL     1      -3.668  12.621  22.337  0.00  0.00    +0.000 A 
ATOM     24  C   UNL     1      -2.992  12.105  23.445  0.00  0.00    +0.000 A 
ATOM     25  C   UNL     1      -1.692  11.622  23.284  0.00  0.00    +0.000 A 
ATOM     26  C   UNL     1      -1.092  11.633  22.020  0.00  0.00    +0.000 A 
ATOM     27  C   UNL     1      -1.792  12.095  20.907  0.00  0.00    +0.000 A 
ATOM     28  C   UNL     1      -3.083  12.601  21.065  0.00  0.00    +0.000 A 
BRANCH  23  29
ATOM     29  S   UNL     1      -5.276  13.330  22.527  0.00  0.00    +0.000 S 
ATOM     30  O   UNL     1      -6.099  12.971  21.396  0.00  0.00    +0.000 OA
ATOM     31  O   UNL     1      -5.147  14.690  22.994  0.00  0.00    +0.000 OA
BRANCH  29  32
ATOM     32  N   UNL     1      -5.862  12.452  23.834  0.00  0.00    +0.000 NA
ATOM     33  H   UNL     1      -6.882  12.429  23.805  0.00  0.00    +0.000 HD
ATOM     34  H   UNL     1      -5.481  12.809  24.708  0.00  0.00    +0.000 HD
ENDBRANCH  29  32
ENDBRANCH  23  29
ENDBRANCH  21  26
ENDBRANCH   1  21
TORSDOF 6
ENDMDL
MODEL 5
REMARK VINA RESULT:      -8.4      3.772      5.617
REMARK  Name = 
REMARK  6 active torsions:
REMARK  status: ('A' for Active; 'I' for Inactive)
REMARK    1  A    between atoms: N_1  and  S_2
REMARK    2  A    between atoms: S_2  and  C_5
REMARK    3  A    between atoms: C_8  and  N_9
REMARK    4  A    between atoms: N_9  and  S_10
REMARK    5  A    between atoms: S_10  and  C_13
REMARK    6  A    between atoms: C_17  and  C_18
REMARK                            x       y       z     vdW  Elec       q    Type
REMARK                         _______ _______ _______ _____ _____    ______ ____
ROOT
ATOM      1  S   UNL     1       0.537   9.703  21.954  0.00  0.00    +0.000 S 
ATOM      2  O   UNL     1       1.631   9.451  22.867  0.00  0.00    +0.000 OA
ATOM      3  O   UNL     1      -0.740   9.040  22.118  0.00  0.00    +0.000 OA
ENDROOT
BRANCH   1   4
ATOM      4  C   UNL     1       1.099   9.368  20.297  0.00  0.00    +0.000 A 
ATOM      5  C   UNL     1       0.807  10.236  19.250  0.00  0.00    +0.000 A 
ATOM      6  C   UNL     1       1.213   9.896  17.954  0.00  0.00    +0.000 A 
ATOM      7  C   UNL     1       1.918   8.701  17.705  0.00  0.00    +0.000 A 
ATOM      8  C   UNL     1       2.231   7.829  18.758  0.00  0.00    +0.000 A 
ATOM      9  C   UNL     1       1.781   8.177  20.045  0.00  0.00    +0.000 A 
BRANCH   8  10
ATOM     10  C   UNL     1       2.978   6.556  18.605  0.00  0.00    +0.000 A 
ATOM     11  N   UNL     1       2.758   5.616  19.550  0.00  0.00    +0.000 NA
ATOM     12  N   UNL     1       3.515   4.584  19.208  0.00  0.00    +0.000 N 
ATOM     13  C   UNL     1       4.225   4.757  18.064  0.00  0.00    +0.000 A 
ATOM     14  C   UNL     1       5.078   3.873  17.398  0.00  0.00    +0.000 A 
ATOM     15  C   UNL     1       5.707   4.355  16.259  0.00  0.00    +0.000 A 
ATOM     16  F   UNL     1       6.535   3.543  15.587  0.00  0.00    +0.000 F 
ATOM     17  C   UNL     1       5.506   5.655  15.813  0.00  0.00    +0.000 A 
ATOM     18  C   UNL     1       4.623   6.521  16.494  0.00  0.00    +0.000 A 
ATOM     19  C   UNL     1       3.944   6.062  17.647  0.00  0.00    +0.000 A 
ATOM     20  H   UNL     1       3.510   3.772  19.819  0.00  0.00    +0.000 HD
ENDBRANCH   8  10
ENDBRANCH   1   4
BRANCH   1  21
ATOM     21  N   UNL     1       0.196  11.350  21.950  0.00  0.00    +0.000 N 
ATOM     22  H   UNL     1       0.951  11.923  22.321  0.00  0.00    +0.000 HD
BRANCH  21  26
ATOM     23  C   UNL     1      -3.791  12.615  22.249  0.00  0.00    +0.000 A 
ATOM     24  C   UNL     1      -3.154  12.631  21.006  0.00  0.00    +0.000 A 
ATOM     25  C   UNL     1      -1.825  12.216  20.916  0.00  0.00    +0.000 A 
ATOM     26  C   UNL     1      -1.136  11.818  22.066  0.00  0.00    +0.000 A 
ATOM     27  C   UNL     1      -1.757  11.859  23.314  0.00  0.00    +0.000 A 
ATOM     28  C   UNL     1      -3.093  12.250  23.408  0.00  0.00    +0.000 A 
BRANCH  23  29
ATOM     29  S   UNL     1      -5.502  13.038  22.380  0.00  0.00    +0.000 S 
ATOM     30  O   UNL     1      -5.780  13.513  23.715  0.00  0.00    +0.000 OA
ATOM     31  O   UNL     1      -6.296  12.022  21.733  0.00  0.00    +0.000 OA
BRANCH  29  32
ATOM     32  N   UNL     1      -5.576  14.384  21.376  0.00  0.00    +0.000 NA
ATOM     33  H   UNL     1      -4.873  15.066  21.662  0.00  0.00    +0.000 HD
ATOM     34  H   UNL     1      -6.524  14.756  21.341  0.00  0.00    +0.000 HD
ENDBRANCH  29  32
ENDBRANCH  23  29
ENDBRANCH  21  26
ENDBRANCH   1  21
TORSDOF 6
ENDMDL
MODEL 6
REMARK VINA RESULT:      -8.3      3.939      5.978
REMARK  Name = 
REMARK  6 active torsions:
REMARK  status: ('A' for Active; 'I' for Inactive)
REMARK    1  A    between atoms: N_1  and  S_2
REMARK    2  A    between atoms: S_2  and  C_5
REMARK    3  A    between atoms: C_8  and  N_9
REMARK    4  A    between atoms: N_9  and  S_10
REMARK    5  A    between atoms: S_10  and  C_13
REMARK    6  A    between atoms: C_17  and  C_18
REMARK                            x       y       z     vdW  Elec       q    Type
REMARK                         _______ _______ _______ _____ _____    ______ ____
ROOT
ATOM      1  S   UNL     1       0.596   9.555  21.862  0.00  0.00    +0.000 S 
ATOM      2  O   UNL     1       1.691   9.256  22.760  0.00  0.00    +0.000 OA
ATOM      3  O   UNL     1      -0.702   8.936  22.035  0.00  0.00    +0.000 OA
ENDROOT
BRANCH   1   4
ATOM      4  C   UNL     1       1.127   9.218  20.196  0.00  0.00    +0.000 A 
ATOM      5  C   UNL     1       0.782  10.064  19.147  0.00  0.00    +0.000 A 
ATOM      6  C   UNL     1       1.166   9.720  17.846  0.00  0.00    +0.000 A 
ATOM      7  C   UNL     1       1.903   8.545  17.592  0.00  0.00    +0.000 A 
ATOM      8  C   UNL     1       2.270   7.697  18.647  0.00  0.00    +0.000 A 
ATOM      9  C   UNL     1       1.840   8.046  19.941  0.00  0.00    +0.000 A 
BRANCH   8  10
ATOM     10  C   UNL     1       3.053   6.446  18.491  0.00  0.00    +0.000 A 
ATOM     11  N   UNL     1       4.374   6.594  18.249  0.00  0.00    +0.000 NA
ATOM     12  N   UNL     1       4.858   5.364  18.154  0.00  0.00    +0.000 N 
ATOM     13  C   UNL     1       3.942   4.380  18.343  0.00  0.00    +0.000 A 
ATOM     14  C   UNL     1       4.110   2.992  18.356  0.00  0.00    +0.000 A 
ATOM     15  C   UNL     1       2.965   2.229  18.530  0.00  0.00    +0.000 A 
ATOM     16  F   UNL     1       3.076   0.894  18.549  0.00  0.00    +0.000 F 
ATOM     17  C   UNL     1       1.714   2.817  18.673  0.00  0.00    +0.000 A 
ATOM     18  C   UNL     1       1.576   4.222  18.676  0.00  0.00    +0.000 A 
ATOM     19  C   UNL     1       2.721   5.038  18.523  0.00  0.00    +0.000 A 
ATOM     20  H   UNL     1       5.847   5.261  17.945  0.00  0.00    +0.000 HD
ENDBRANCH   8  10
ENDBRANCH   1   4
BRANCH   1  21
ATOM     21  N   UNL     1       0.313  11.213  21.879  0.00  0.00    +0.000 N 
ATOM     22  H   UNL     1       1.078  11.753  22.279  0.00  0.00    +0.000 HD
BRANCH  21  26
ATOM     23  C   UNL     1      -3.633  12.613  22.102  0.00  0.00    +0.000 A 
ATOM     24  C   UNL     1      -2.968  12.621  20.873  0.00  0.00    +0.000 A 
ATOM     25  C   UNL     1      -1.652  12.160  20.809  0.00  0.00    +0.000 A 
ATOM     26  C   UNL     1      -1.004  11.726  21.970  0.00  0.00    +0.000 A 
ATOM     27  C   UNL     1      -1.652  11.775  23.204  0.00  0.00    +0.000 A 
ATOM     28  C   UNL     1      -2.976  12.211  23.271  0.00  0.00    +0.000 A 
BRANCH  23  29
ATOM     29  S   UNL     1      -5.331  13.095  22.198  0.00  0.00    +0.000 S 
ATOM     30  O   UNL     1      -5.491  14.095  23.228  0.00  0.00    +0.000 OA
ATOM     31  O   UNL     1      -6.166  11.920  22.117  0.00  0.00    +0.000 OA
BRANCH  29  32
ATOM     32  N   UNL     1      -5.521  13.894  20.732  0.00  0.00    +0.000 NA
ATOM     33  H   UNL     1      -6.481  13.786  20.403  0.00  0.00    +0.000 HD
ATOM     34  H   UNL     1      -4.817  13.589  20.062  0.00  0.00    +0.000 HD
ENDBRANCH  29  32
ENDBRANCH  23  29
ENDBRANCH  21  26
ENDBRANCH   1  21
TORSDOF 6
ENDMDL
MODEL 7
REMARK VINA RESULT:      -8.2      0.973      1.352
REMARK  Name = 
REMARK  6 active torsions:
REMARK  status: ('A' for Active; 'I' for Inactive)
REMARK    1  A    between atoms: N_1  and  S_2
REMARK    2  A    between atoms: S_2  and  C_5
REMARK    3  A    between atoms: C_8  and  N_9
REMARK    4  A    between atoms: N_9  and  S_10
REMARK    5  A    between atoms: S_10  and  C_13
REMARK    6  A    between atoms: C_17  and  C_18
REMARK                            x       y       z     vdW  Elec       q    Type
REMARK                         _______ _______ _______ _____ _____    ______ ____
ROOT
ATOM      1  S   UNL     1       2.083   4.962  20.398  0.00  0.00    +0.000 S 
ATOM      2  O   UNL     1       2.549   4.545  21.703  0.00  0.00    +0.000 OA
ATOM      3  O   UNL     1       0.668   5.069  20.110  0.00  0.00    +0.000 OA
ENDROOT
BRANCH   1   4
ATOM      4  C   UNL     1       2.793   3.879  19.176  0.00  0.00    +0.000 A 
ATOM      5  C   UNL     1       2.425   2.540  19.100  0.00  0.00    +0.000 A 
ATOM      6  C   UNL     1       3.060   1.714  18.167  0.00  0.00    +0.000 A 
ATOM      7  C   UNL     1       4.052   2.223  17.303  0.00  0.00    +0.000 A 
ATOM      8  C   UNL     1       4.417   3.575  17.361  0.00  0.00    +0.000 A 
ATOM      9  C   UNL     1       3.788   4.376  18.332  0.00  0.00    +0.000 A 
BRANCH   8  10
ATOM     10  C   UNL     1       5.436   4.213  16.491  0.00  0.00    +0.000 A 
ATOM     11  N   UNL     1       6.280   5.078  17.093  0.00  0.00    +0.000 NA
ATOM     12  N   UNL     1       7.090   5.508  16.137  0.00  0.00    +0.000 N 
ATOM     13  C   UNL     1       6.861   4.965  14.914  0.00  0.00    +0.000 A 
ATOM     14  C   UNL     1       7.541   5.156  13.708  0.00  0.00    +0.000 A 
ATOM     15  C   UNL     1       7.041   4.490  12.599  0.00  0.00    +0.000 A 
ATOM     16  F   UNL     1       7.660   4.643  11.421  0.00  0.00    +0.000 F 
ATOM     17  C   UNL     1       5.912   3.683  12.684  0.00  0.00    +0.000 A 
ATOM     18  C   UNL     1       5.257   3.492  13.920  0.00  0.00    +0.000 A 
ATOM     19  C   UNL     1       5.747   4.135  15.079  0.00  0.00    +0.000 A 
ATOM     20  H   UNL     1       7.792   6.199  16.388  0.00  0.00    +0.000 HD
ENDBRANCH   8  10
ENDBRANCH   1   4
BRANCH   1  21
ATOM     21  N   UNL     1       2.734   6.471  20.042  0.00  0.00    +0.000 N 
ATOM     22  H   UNL     1       3.735   6.534  20.213  0.00  0.00    +0.000 HD
BRANCH  21  26
ATOM     23  C   UNL     1       0.517  10.011  20.415  0.00  0.00    +0.000 A 
ATOM     24  C   UNL     1       0.646   9.161  21.516  0.00  0.00    +0.000 A 
ATOM     25  C   UNL     1       1.379   7.980  21.381  0.00  0.00    +0.000 A 
ATOM     26  C   UNL     1       1.949   7.646  20.148  0.00  0.00    +0.000 A 
ATOM     27  C   UNL     1       1.768   8.469  19.038  0.00  0.00    +0.000 A 
ATOM     28  C   UNL     1       1.057   9.663  19.171  0.00  0.00    +0.000 A 
BRANCH  23  29
ATOM     29  S   UNL     1      -0.320  11.560  20.580  0.00  0.00    +0.000 S 
ATOM     30  O   UNL     1      -1.356  11.444  21.580  0.00  0.00    +0.000 OA
ATOM     31  O   UNL     1      -0.561  12.115  19.270  0.00  0.00    +0.000 OA
BRANCH  29  32
ATOM     32  N   UNL     1       0.889  12.506  21.263  0.00  0.00    +0.000 NA
ATOM     33  H   UNL     1       1.087  13.303  20.657  0.00  0.00    +0.000 HD
ATOM     34  H   UNL     1       1.708  11.942  21.483  0.00  0.00    +0.000 HD
ENDBRANCH  29  32
ENDBRANCH  23  29
ENDBRANCH  21  26
ENDBRANCH   1  21
TORSDOF 6
ENDMDL
MODEL 8
REMARK VINA RESULT:      -8.1      4.158      6.302
REMARK  Name = 
REMARK  6 active torsions:
REMARK  status: ('A' for Active; 'I' for Inactive)
REMARK    1  A    between atoms: N_1  and  S_2
REMARK    2  A    between atoms: S_2  and  C_5
REMARK    3  A    between atoms: C_8  and  N_9
REMARK    4  A    between atoms: N_9  and  S_10
REMARK    5  A    between atoms: S_10  and  C_13
REMARK    6  A    between atoms: C_17  and  C_18
REMARK                            x       y       z     vdW  Elec       q    Type
REMARK                         _______ _______ _______ _____ _____    ______ ____
ROOT
ATOM      1  S   UNL     1       0.490   9.661  21.966  0.00  0.00    +0.000 S 
ATOM      2  O   UNL     1       1.634   9.450  22.827  0.00  0.00    +0.000 OA
ATOM      3  O   UNL     1      -0.762   8.973  22.206  0.00  0.00    +0.000 OA
ENDROOT
BRANCH   1   4
ATOM      4  C   UNL     1       0.975   9.311  20.289  0.00  0.00    +0.000 A 
ATOM      5  C   UNL     1       0.504  10.078  19.228  0.00  0.00    +0.000 A 
ATOM      6  C   UNL     1       0.860   9.721  17.923  0.00  0.00    +0.000 A 
ATOM      7  C   UNL     1       1.694   8.611  17.675  0.00  0.00    +0.000 A 
ATOM      8  C   UNL     1       2.187   7.844  18.740  0.00  0.00    +0.000 A 
ATOM      9  C   UNL     1       1.785   8.201  20.040  0.00  0.00    +0.000 A 
BRANCH   8  10
ATOM     10  C   UNL     1       3.079   6.667  18.589  0.00  0.00    +0.000 A 
ATOM     11  N   UNL     1       4.031   6.756  17.636  0.00  0.00    +0.000 NA
ATOM     12  N   UNL     1       4.697   5.611  17.690  0.00  0.00    +0.000 N 
ATOM     13  C   UNL     1       4.266   4.751  18.647  0.00  0.00    +0.000 A 
ATOM     14  C   UNL     1       4.758   3.494  19.008  0.00  0.00    +0.000 A 
ATOM     15  C   UNL     1       4.073   2.820  20.008  0.00  0.00    +0.000 A 
ATOM     16  F   UNL     1       4.507   1.611  20.387  0.00  0.00    +0.000 F 
ATOM     17  C   UNL     1       2.948   3.368  20.613  0.00  0.00    +0.000 A 
ATOM     18  C   UNL     1       2.484   4.649  20.244  0.00  0.00    +0.000 A 
ATOM     19  C   UNL     1       3.167   5.378  19.243  0.00  0.00    +0.000 A 
ATOM     20  H   UNL     1       5.450   5.471  17.022  0.00  0.00    +0.000 HD
ENDBRANCH   8  10
ENDBRANCH   1   4
BRANCH   1  21
ATOM     21  N   UNL     1       0.111  11.300  21.953  0.00  0.00    +0.000 N 
ATOM     22  H   UNL     1       0.848  11.892  22.329  0.00  0.00    +0.000 HD
BRANCH  21  26
ATOM     23  C   UNL     1      -3.822  12.714  22.302  0.00  0.00    +0.000 A 
ATOM     24  C   UNL     1      -3.161  12.229  23.434  0.00  0.00    +0.000 A 
ATOM     25  C   UNL     1      -1.856  11.753  23.308  0.00  0.00    +0.000 A 
ATOM     26  C   UNL     1      -1.233  11.737  22.055  0.00  0.00    +0.000 A 
ATOM     27  C   UNL     1      -1.917  12.167  20.919  0.00  0.00    +0.000 A 
ATOM     28  C   UNL     1      -3.214  12.668  21.042  0.00  0.00    +0.000 A 
BRANCH  23  29
ATOM     29  S   UNL     1      -5.438  13.416  22.447  0.00  0.00    +0.000 S 
ATOM     30  O   UNL     1      -5.619  14.423  21.428  0.00  0.00    +0.000 OA
ATOM     31  O   UNL     1      -5.730  13.657  23.840  0.00  0.00    +0.000 OA
BRANCH  29  32
ATOM     32  N   UNL     1      -6.395  12.111  21.997  0.00  0.00    +0.000 NA
ATOM     33  H   UNL     1      -7.304  12.446  21.676  0.00  0.00    +0.000 HD
ATOM     34  H   UNL     1      -6.449  11.427  22.749  0.00  0.00    +0.000 HD
ENDBRANCH  29  32
ENDBRANCH  23  29
ENDBRANCH  21  26
ENDBRANCH   1  21
TORSDOF 6
ENDMDL
MODEL 9
REMARK VINA RESULT:      -8.1      3.948      5.908
REMARK  Name = 
REMARK  6 active torsions:
REMARK  status: ('A' for Active; 'I' for Inactive)
REMARK    1  A    between atoms: N_1  and  S_2
REMARK    2  A    between atoms: S_2  and  C_5
REMARK    3  A    between atoms: C_8  and  N_9
REMARK    4  A    between atoms: N_9  and  S_10
REMARK    5  A    between atoms: S_10  and  C_13
REMARK    6  A    between atoms: C_17  and  C_18
REMARK                            x       y       z     vdW  Elec       q    Type
REMARK                         _______ _______ _______ _____ _____    ______ ____
ROOT
ATOM      1  S   UNL     1       0.023   9.525  21.647  0.00  0.00    +0.000 S 
ATOM      2  O   UNL     1       0.887  10.073  22.670  0.00  0.00    +0.000 OA
ATOM      3  O   UNL     1      -0.683   8.278  21.855  0.00  0.00    +0.000 OA
ENDROOT
BRANCH   1   4
ATOM      4  C   UNL     1       0.966   9.356  20.145  0.00  0.00    +0.000 A 
ATOM      5  C   UNL     1       1.080  10.411  19.245  0.00  0.00    +0.000 A 
ATOM      6  C   UNL     1       1.775  10.208  18.048  0.00  0.00    +0.000 A 
ATOM      7  C   UNL     1       2.366   8.962  17.754  0.00  0.00    +0.000 A 
ATOM      8  C   UNL     1       2.270   7.900  18.663  0.00  0.00    +0.000 A 
ATOM      9  C   UNL     1       1.536   8.118  19.843  0.00  0.00    +0.000 A 
BRANCH   8  10
ATOM     10  C   UNL     1       2.865   6.556  18.457  0.00  0.00    +0.000 A 
ATOM     11  N   UNL     1       2.438   5.579  19.286  0.00  0.00    +0.000 NA
ATOM     12  N   UNL     1       3.092   4.487  18.914  0.00  0.00    +0.000 N 
ATOM     13  C   UNL     1       3.927   4.659  17.858  0.00  0.00    +0.000 A 
ATOM     14  C   UNL     1       4.725   3.728  17.188  0.00  0.00    +0.000 A 
ATOM     15  C   UNL     1       5.518   4.214  16.159  0.00  0.00    +0.000 A 
ATOM     16  F   UNL     1       6.301   3.359  15.487  0.00  0.00    +0.000 F 
ATOM     17  C   UNL     1       5.525   5.563  15.822  0.00  0.00    +0.000 A 
ATOM     18  C   UNL     1       4.693   6.478  16.503  0.00  0.00    +0.000 A 
ATOM     19  C   UNL     1       3.853   6.020  17.544  0.00  0.00    +0.000 A 
ATOM     20  H   UNL     1       2.926   3.635  19.443  0.00  0.00    +0.000 HD
ENDBRANCH   8  10
ENDBRANCH   1   4
BRANCH   1  21
ATOM     21  N   UNL     1      -1.161  10.658  21.266  0.00  0.00    +0.000 N 
ATOM     22  H   UNL     1      -1.390  10.691  20.275  0.00  0.00    +0.000 HD
BRANCH  21  26
ATOM     23  C   UNL     1      -1.572  14.071  23.668  0.00  0.00    +0.000 A 
ATOM     24  C   UNL     1      -2.466  13.008  23.822  0.00  0.00    +0.000 A 
ATOM     25  C   UNL     1      -2.327  11.879  23.013  0.00  0.00    +0.000 A 
ATOM     26  C   UNL     1      -1.321  11.832  22.043  0.00  0.00    +0.000 A 
ATOM     27  C   UNL     1      -0.469  12.918  21.853  0.00  0.00    +0.000 A 
ATOM     28  C   UNL     1      -0.586  14.041  22.674  0.00  0.00    +0.000 A 
BRANCH  23  29
ATOM     29  S   UNL     1      -1.660  15.471  24.744  0.00  0.00    +0.000 S 
ATOM     30  O   UNL     1      -1.992  16.648  23.976  0.00  0.00    +0.000 OA
ATOM     31  O   UNL     1      -0.553  15.431  25.669  0.00  0.00    +0.000 OA
BRANCH  29  32
ATOM     32  N   UNL     1      -3.026  15.096  25.647  0.00  0.00    +0.000 NA
ATOM     33  H   UNL     1      -3.865  15.326  25.114  0.00  0.00    +0.000 HD
ATOM     34  H   UNL     1      -2.984  15.538  26.564  0.00  0.00    +0.000 HD
ENDBRANCH  29  32
ENDBRANCH  23  29
ENDBRANCH  21  26
ENDBRANCH   1  21
TORSDOF 6
ENDMDL
