MODEL 1
REMARK VINA RESULT:      -7.6      0.000      0.000
REMARK  Name = 
REMARK  5 active torsions:
REMARK  status: ('A' for Active; 'I' for Inactive)
REMARK    1  A    between atoms: C_1  and  C_2
REMARK    2  A    between atoms: C_5  and  C_6
REMARK    3  A    between atoms: N_8  and  C_9
REMARK    4  A    between atoms: C_12  and  C_13
REMARK    5  A    between atoms: C_16  and  C_17
REMARK                            x       y       z     vdW  Elec       q    Type
REMARK                         _______ _______ _______ _____ _____    ______ ____
ROOT
ATOM      1  C   UNL     1       1.019   8.806  20.627  0.00  0.00    +0.000 A 
ATOM      2  C   UNL     1       0.987   8.868  22.021  0.00  0.00    +0.000 A 
ATOM      3  C   UNL     1       0.199   9.813  22.685  0.00  0.00    +0.000 A 
ATOM      4  C   UNL     1      -0.566  10.739  21.972  0.00  0.00    +0.000 A 
ATOM      5  C   UNL     1      -0.545  10.677  20.573  0.00  0.00    +0.000 A 
ATOM      6  C   UNL     1       0.253   9.728  19.905  0.00  0.00    +0.000 A 
ENDROOT
BRANCH   4   7
ATOM      7  C   UNL     1      -1.347  11.756  22.670  0.00  0.00    +0.000 A 
ATOM      8  C   UNL     1      -0.967  13.083  22.742  0.00  0.00    +0.000 A 
ATOM      9  S   UNL     1      -2.113  13.983  23.637  0.00  0.00    +0.000 S 
ATOM     10  C   UNL     1      -3.042  12.554  23.852  0.00  0.00    +0.000 A 
ATOM     11  C   UNL     1      -4.313  12.605  24.625  0.00  0.00    +0.000 C 
ATOM     12  N   UNL     1      -2.552  11.466  23.293  0.00  0.00    +0.000 NA
ENDBRANCH   4   7
BRANCH   1  15
ATOM     13  C   UNL     1       2.282   8.018  18.640  0.00  0.00    +0.000 C 
ATOM     14  O   UNL     1       2.162   9.023  17.944  0.00  0.00    +0.000 OA
ATOM     15  N   UNL     1       1.792   7.848  19.924  0.00  0.00    +0.000 N 
ATOM     16  H   UNL     1       2.118   7.048  20.452  0.00  0.00    +0.000 HD
BRANCH  13  21
ATOM     17  C   UNL     1       5.426   3.891  16.074  0.00  0.00    +0.000 C 
ATOM     18  C   UNL     1       4.618   4.944  16.774  0.00  0.00    +0.000 A 
ATOM     19  C   UNL     1       4.965   6.292  16.656  0.00  0.00    +0.000 A 
ATOM     20  C   UNL     1       4.202   7.268  17.293  0.00  0.00    +0.000 A 
ATOM     21  C   UNL     1       3.088   6.912  18.066  0.00  0.00    +0.000 A 
ATOM     22  C   UNL     1       2.731   5.567  18.191  0.00  0.00    +0.000 A 
ATOM     23  C   UNL     1       3.498   4.588  17.544  0.00  0.00    +0.000 A 
ENDBRANCH  13  21
ENDBRANCH   1  15
TORSDOF 3
ENDMDL
MODEL 2
REMARK VINA RESULT:      -7.6      7.793     10.090
REMARK  Name = 
REMARK  5 active torsions:
REMARK  status: ('A' for Active; 'I' for Inactive)
REMARK    1  A    between atoms: C_1  and  C_2
REMARK    2  A    between atoms: C_5  and  C_6
REMARK    3  A    between atoms: N_8  and  C_9
REMARK    4  A    between atoms: C_12  and  C_13
REMARK    5  A    between atoms: C_16  and  C_17
REMARK                            x       y       z     vdW  Elec       q    Type
REMARK                         _______ _______ _______ _____ _____    ______ ____
ROOT
ATOM      1  C   UNL     1       7.744   8.254  17.782  0.00  0.00    +0.000 A 
ATOM      2  C   UNL     1       8.204   7.176  18.539  0.00  0.00    +0.000 A 
ATOM      3  C   UNL     1       7.450   6.006  18.665  0.00  0.00    +0.000 A 
ATOM      4  C   UNL     1       6.200   5.888  18.052  0.00  0.00    +0.000 A 
ATOM      5  C   UNL     1       5.736   6.964  17.283  0.00  0.00    +0.000 A 
ATOM      6  C   UNL     1       6.495   8.143  17.161  0.00  0.00    +0.000 A 
ENDROOT
BRANCH   4   7
ATOM      7  C   UNL     1       5.394   4.684  18.229  0.00  0.00    +0.000 A 
ATOM      8  C   UNL     1       4.581   4.167  17.237  0.00  0.00    +0.000 A 
ATOM      9  S   UNL     1       3.786   2.759  17.793  0.00  0.00    +0.000 S 
ATOM     10  C   UNL     1       4.588   2.923  19.303  0.00  0.00    +0.000 A 
ATOM     11  C   UNL     1       4.336   1.935  20.388  0.00  0.00    +0.000 C 
ATOM     12  N   UNL     1       5.407   3.950  19.406  0.00  0.00    +0.000 NA
ENDBRANCH   4   7
BRANCH   1  15
ATOM     13  C   UNL     1       9.043  10.183  18.655  0.00  0.00    +0.000 C 
ATOM     14  O   UNL     1       9.003   9.897  19.849  0.00  0.00    +0.000 OA
ATOM     15  N   UNL     1       8.494   9.447  17.618  0.00  0.00    +0.000 N 
ATOM     16  H   UNL     1       8.756   9.694  16.672  0.00  0.00    +0.000 HD
BRANCH  13  21
ATOM     17  C   UNL     1      11.802  14.980  16.961  0.00  0.00    +0.000 C 
ATOM     18  C   UNL     1      11.108  13.737  17.433  0.00  0.00    +0.000 A 
ATOM     19  C   UNL     1       9.719  13.721  17.589  0.00  0.00    +0.000 A 
ATOM     20  C   UNL     1       9.077  12.558  18.011  0.00  0.00    +0.000 A 
ATOM     21  C   UNL     1       9.812  11.399  18.294  0.00  0.00    +0.000 A 
ATOM     22  C   UNL     1      11.201  11.403  18.141  0.00  0.00    +0.000 A 
ATOM     23  C   UNL     1      11.843  12.572  17.710  0.00  0.00    +0.000 A 
ENDBRANCH  13  21
ENDBRANCH   1  15
TORSDOF 3
ENDMDL
MODEL 3
REMARK VINA RESULT:      -7.6      7.797     10.109
REMARK  Name = 
REMARK  5 active torsions:
REMARK  status: ('A' for Active; 'I' for Inactive)
REMARK    1  A    between atoms: C_1  and  C_2
REMARK    2  A    between atoms: C_5  and  C_6
REMARK    3  A    between atoms: N_8  and  C_9
REMARK    4  A    between atoms: C_12  and  C_13
REMARK    5  A    between atoms: C_16  and  C_17
REMARK                            x       y       z     vdW  Elec       q    Type
REMARK                         _______ _______ _______ _____ _____    ______ ____
ROOT
ATOM      1  C   UNL     1       7.764   8.234  17.755  0.00  0.00    +0.000 A 
ATOM      2  C   UNL     1       8.214   7.162  18.525  0.00  0.00    +0.000 A 
ATOM      3  C   UNL     1       7.450   5.999  18.664  0.00  0.00    +0.000 A 
ATOM      4  C   UNL     1       6.199   5.885  18.052  0.00  0.00    +0.000 A 
ATOM      5  C   UNL     1       5.745   6.955  17.271  0.00  0.00    +0.000 A 
ATOM      6  C   UNL     1       6.513   8.126  17.136  0.00  0.00    +0.000 A 
ENDROOT
BRANCH   4   7
ATOM      7  C   UNL     1       5.383   4.689  18.243  0.00  0.00    +0.000 A 
ATOM      8  C   UNL     1       4.571   4.164  17.255  0.00  0.00    +0.000 A 
ATOM      9  S   UNL     1       3.762   2.771  17.827  0.00  0.00    +0.000 S 
ATOM     10  C   UNL     1       4.558   2.951  19.339  0.00  0.00    +0.000 A 
ATOM     11  C   UNL     1       4.294   1.981  20.437  0.00  0.00    +0.000 C 
ATOM     12  N   UNL     1       5.385   3.973  19.430  0.00  0.00    +0.000 NA
ENDBRANCH   4   7
BRANCH   1  15
ATOM     13  C   UNL     1       9.061  10.174  18.608  0.00  0.00    +0.000 C 
ATOM     14  O   UNL     1       9.000   9.914  19.807  0.00  0.00    +0.000 OA
ATOM     15  N   UNL     1       8.524   9.419  17.578  0.00  0.00    +0.000 N 
ATOM     16  H   UNL     1       8.803   9.644  16.631  0.00  0.00    +0.000 HD
BRANCH  13  21
ATOM     17  C   UNL     1      12.290  14.843  17.481  0.00  0.00    +0.000 C 
ATOM     18  C   UNL     1      11.441  13.632  17.735  0.00  0.00    +0.000 A 
ATOM     19  C   UNL     1      12.020  12.453  18.212  0.00  0.00    +0.000 A 
ATOM     20  C   UNL     1      11.225  11.337  18.464  0.00  0.00    +0.000 A 
ATOM     21  C   UNL     1       9.844  11.377  18.233  0.00  0.00    +0.000 A 
ATOM     22  C   UNL     1       9.253  12.550  17.757  0.00  0.00    +0.000 A 
ATOM     23  C   UNL     1      10.055  13.674  17.511  0.00  0.00    +0.000 A 
ENDBRANCH  13  21
ENDBRANCH   1  15
TORSDOF 3
ENDMDL
MODEL 4
REMARK VINA RESULT:      -7.6      1.680      2.035
REMARK  Name = 
REMARK  5 active torsions:
REMARK  status: ('A' for Active; 'I' for Inactive)
REMARK    1  A    between atoms: C_1  and  C_2
REMARK    2  A    between atoms: C_5  and  C_6
REMARK    3  A    between atoms: N_8  and  C_9
REMARK    4  A    between atoms: C_12  and  C_13
REMARK    5  A    between atoms: C_16  and  C_17
REMARK                            x       y       z     vdW  Elec       q    Type
REMARK                         _______ _______ _______ _____ _____    ______ ____
ROOT
ATOM      1  C   UNL     1       1.783   8.613  19.005  0.00  0.00    +0.000 A 
ATOM      2  C   UNL     1       1.577   8.414  20.370  0.00  0.00    +0.000 A 
ATOM      3  C   UNL     1       0.674   9.203  21.089  0.00  0.00    +0.000 A 
ATOM      4  C   UNL     1      -0.036  10.232  20.464  0.00  0.00    +0.000 A 
ATOM      5  C   UNL     1       0.160  10.432  19.092  0.00  0.00    +0.000 A 
ATOM      6  C   UNL     1       1.073   9.640  18.371  0.00  0.00    +0.000 A 
ENDROOT
BRANCH   4   7
ATOM      7  C   UNL     1      -0.939  11.086  21.230  0.00  0.00    +0.000 A 
ATOM      8  C   UNL     1      -1.011  11.064  22.610  0.00  0.00    +0.000 A 
ATOM      9  S   UNL     1      -2.174  12.187  23.164  0.00  0.00    +0.000 S 
ATOM     10  C   UNL     1      -2.490  12.636  21.536  0.00  0.00    +0.000 A 
ATOM     11  C   UNL     1      -3.511  13.679  21.239  0.00  0.00    +0.000 C 
ATOM     12  N   UNL     1      -1.779  12.008  20.622  0.00  0.00    +0.000 NA
ENDBRANCH   4   7
BRANCH   1  15
ATOM     13  C   UNL     1       2.819   6.446  18.373  0.00  0.00    +0.000 C 
ATOM     14  O   UNL     1       2.174   5.717  19.122  0.00  0.00    +0.000 OA
ATOM     15  N   UNL     1       2.677   7.818  18.244  0.00  0.00    +0.000 N 
ATOM     16  H   UNL     1       3.137   8.270  17.463  0.00  0.00    +0.000 HD
BRANCH  13  21
ATOM     17  C   UNL     1       6.500   4.052  14.603  0.00  0.00    +0.000 C 
ATOM     18  C   UNL     1       5.565   4.654  15.610  0.00  0.00    +0.000 A 
ATOM     19  C   UNL     1       5.453   6.042  15.725  0.00  0.00    +0.000 A 
ATOM     20  C   UNL     1       4.570   6.597  16.649  0.00  0.00    +0.000 A 
ATOM     21  C   UNL     1       3.794   5.775  17.479  0.00  0.00    +0.000 A 
ATOM     22  C   UNL     1       3.896   4.386  17.371  0.00  0.00    +0.000 A 
ATOM     23  C   UNL     1       4.782   3.831  16.436  0.00  0.00    +0.000 A 
ENDBRANCH  13  21
ENDBRANCH   1  15
TORSDOF 3
ENDMDL
MODEL 5
REMARK VINA RESULT:      -7.5      1.668      2.230
REMARK  Name = 
REMARK  5 active torsions:
REMARK  status: ('A' for Active; 'I' for Inactive)
REMARK    1  A    between atoms: C_1  and  C_2
REMARK    2  A    between atoms: C_5  and  C_6
REMARK    3  A    between atoms: N_8  and  C_9
REMARK    4  A    between atoms: C_12  and  C_13
REMARK    5  A    between atoms: C_16  and  C_17
REMARK                            x       y       z     vdW  Elec       q    Type
REMARK                         _______ _______ _______ _____ _____    ______ ____
ROOT
ATOM      1  C   UNL     1       1.665   8.734  18.897  0.00  0.00    +0.000 A 
ATOM      2  C   UNL     1       0.898   9.731  18.294  0.00  0.00    +0.000 A 
ATOM      3  C   UNL     1       0.047  10.545  19.047  0.00  0.00    +0.000 A 
ATOM      4  C   UNL     1      -0.077  10.370  20.427  0.00  0.00    +0.000 A 
ATOM      5  C   UNL     1       0.697   9.377  21.041  0.00  0.00    +0.000 A 
ATOM      6  C   UNL     1       1.550   8.555  20.280  0.00  0.00    +0.000 A 
ENDROOT
BRANCH   4   7
ATOM      7  C   UNL     1      -1.006  11.189  21.202  0.00  0.00    +0.000 A 
ATOM      8  C   UNL     1      -1.052  11.177  22.583  0.00  0.00    +0.000 A 
ATOM      9  S   UNL     1      -2.256  12.251  23.149  0.00  0.00    +0.000 S 
ATOM     10  C   UNL     1      -2.621  12.670  21.523  0.00  0.00    +0.000 A 
ATOM     11  C   UNL     1      -3.693  13.661  21.235  0.00  0.00    +0.000 C 
ATOM     12  N   UNL     1      -1.897  12.066  20.602  0.00  0.00    +0.000 NA
ENDBRANCH   4   7
BRANCH   1  15
ATOM     13  C   UNL     1       2.778   6.564  18.426  0.00  0.00    +0.000 C 
ATOM     14  O   UNL     1       2.222   5.889  19.289  0.00  0.00    +0.000 OA
ATOM     15  N   UNL     1       2.552   7.905  18.164  0.00  0.00    +0.000 N 
ATOM     16  H   UNL     1       2.937   8.292  17.311  0.00  0.00    +0.000 HD
BRANCH  13  21
ATOM     17  C   UNL     1       6.393   4.006  14.699  0.00  0.00    +0.000 C 
ATOM     18  C   UNL     1       5.473   4.649  15.695  0.00  0.00    +0.000 A 
ATOM     19  C   UNL     1       5.441   6.040  15.829  0.00  0.00    +0.000 A 
ATOM     20  C   UNL     1       4.572   6.634  16.742  0.00  0.00    +0.000 A 
ATOM     21  C   UNL     1       3.731   5.848  17.542  0.00  0.00    +0.000 A 
ATOM     22  C   UNL     1       3.753   4.457  17.416  0.00  0.00    +0.000 A 
ATOM     23  C   UNL     1       4.624   3.863  16.492  0.00  0.00    +0.000 A 
ENDBRANCH  13  21
ENDBRANCH   1  15
TORSDOF 3
ENDMDL
MODEL 6
REMARK VINA RESULT:      -7.5      0.287      1.475
REMARK  Name = 
REMARK  5 active torsions:
REMARK  status: ('A' for Active; 'I' for Inactive)
REMARK    1  A    between atoms: C_1  and  C_2
REMARK    2  A    between atoms: C_5  and  C_6
REMARK    3  A    between atoms: N_8  and  C_9
REMARK    4  A    between atoms: C_12  and  C_13
REMARK    5  A    between atoms: C_16  and  C_17
REMARK                            x       y       z     vdW  Elec       q    Type
REMARK                         _______ _______ _______ _____ _____    ______ ____
ROOT
ATOM      1  C   UNL     1       0.928   9.071  20.443  0.00  0.00    +0.000 A 
ATOM      2  C   UNL     1       0.265  10.123  19.810  0.00  0.00    +0.000 A 
ATOM      3  C   UNL     1      -0.472  11.059  20.541  0.00  0.00    +0.000 A 
ATOM      4  C   UNL     1      -0.585  10.958  21.929  0.00  0.00    +0.000 A 
ATOM      5  C   UNL     1       0.085   9.910  22.572  0.00  0.00    +0.000 A 
ATOM      6  C   UNL     1       0.823   8.965  21.835  0.00  0.00    +0.000 A 
ENDROOT
BRANCH   4   7
ATOM      7  C   UNL     1      -1.397  11.909  22.682  0.00  0.00    +0.000 A 
ATOM      8  C   UNL     1      -1.046  13.235  22.851  0.00  0.00    +0.000 A 
ATOM      9  S   UNL     1      -2.223  14.049  23.787  0.00  0.00    +0.000 S 
ATOM     10  C   UNL     1      -3.125  12.590  23.888  0.00  0.00    +0.000 A 
ATOM     11  C   UNL     1      -4.408  12.563  24.643  0.00  0.00    +0.000 C 
ATOM     12  N   UNL     1      -2.605  11.553  23.265  0.00  0.00    +0.000 NA
ENDBRANCH   4   7
BRANCH   1  15
ATOM     13  C   UNL     1       2.152   8.277  18.433  0.00  0.00    +0.000 C 
ATOM     14  O   UNL     1       1.994   9.269  17.726  0.00  0.00    +0.000 OA
ATOM     15  N   UNL     1       1.699   8.117  19.733  0.00  0.00    +0.000 N 
ATOM     16  H   UNL     1       2.054   7.331  20.264  0.00  0.00    +0.000 HD
BRANCH  13  21
ATOM     17  C   UNL     1       5.283   3.806  16.507  0.00  0.00    +0.000 C 
ATOM     18  C   UNL     1       4.469   4.979  16.969  0.00  0.00    +0.000 A 
ATOM     19  C   UNL     1       3.251   4.777  17.624  0.00  0.00    +0.000 A 
ATOM     20  C   UNL     1       2.507   5.869  18.068  0.00  0.00    +0.000 A 
ATOM     21  C   UNL     1       2.962   7.177  17.854  0.00  0.00    +0.000 A 
ATOM     22  C   UNL     1       4.179   7.391  17.202  0.00  0.00    +0.000 A 
ATOM     23  C   UNL     1       4.928   6.291  16.762  0.00  0.00    +0.000 A 
ENDBRANCH  13  21
ENDBRANCH   1  15
TORSDOF 3
ENDMDL
MODEL 7
REMARK VINA RESULT:      -7.4      3.472      9.354
REMARK  Name = 
REMARK  5 active torsions:
REMARK  status: ('A' for Active; 'I' for Inactive)
REMARK    1  A    between atoms: C_1  and  C_2
REMARK    2  A    between atoms: C_5  and  C_6
REMARK    3  A    between atoms: N_8  and  C_9
REMARK    4  A    between atoms: C_12  and  C_13
REMARK    5  A    between atoms: C_16  and  C_17
REMARK                            x       y       z     vdW  Elec       q    Type
REMARK                         _______ _______ _______ _____ _____    ______ ____
ROOT
ATOM      1  C   UNL     1       0.983   8.915  19.606  0.00  0.00    +0.000 A 
ATOM      2  C   UNL     1       1.524   9.126  18.338  0.00  0.00    +0.000 A 
ATOM      3  C   UNL     1       2.502   8.274  17.816  0.00  0.00    +0.000 A 
ATOM      4  C   UNL     1       2.985   7.195  18.560  0.00  0.00    +0.000 A 
ATOM      5  C   UNL     1       2.440   6.972  19.831  0.00  0.00    +0.000 A 
ATOM      6  C   UNL     1       1.459   7.833  20.357  0.00  0.00    +0.000 A 
ENDROOT
BRANCH   4   7
ATOM      7  C   UNL     1       4.042   6.339  18.031  0.00  0.00    +0.000 A 
ATOM      8  C   UNL     1       4.746   5.439  18.809  0.00  0.00    +0.000 A 
ATOM      9  S   UNL     1       5.906   4.613  17.864  0.00  0.00    +0.000 S 
ATOM     10  C   UNL     1       5.383   5.494  16.484  0.00  0.00    +0.000 A 
ATOM     11  C   UNL     1       6.033   5.260  15.165  0.00  0.00    +0.000 C 
ATOM     12  N   UNL     1       4.402   6.348  16.691  0.00  0.00    +0.000 NA
ENDBRANCH   4   7
BRANCH   1  15
ATOM     13  C   UNL     1       0.200  10.742  21.095  0.00  0.00    +0.000 C 
ATOM     14  O   UNL     1       1.289  11.076  21.554  0.00  0.00    +0.000 OA
ATOM     15  N   UNL     1      -0.023   9.748  20.156  0.00  0.00    +0.000 N 
ATOM     16  H   UNL     1      -0.939   9.699  19.728  0.00  0.00    +0.000 HD
BRANCH  13  21
ATOM     17  C   UNL     1      -4.514  13.494  23.018  0.00  0.00    +0.000 C 
ATOM     18  C   UNL     1      -3.276  12.816  22.510  0.00  0.00    +0.000 A 
ATOM     19  C   UNL     1      -2.515  12.010  23.360  0.00  0.00    +0.000 A 
ATOM     20  C   UNL     1      -1.376  11.367  22.880  0.00  0.00    +0.000 A 
ATOM     21  C   UNL     1      -0.974  11.528  21.546  0.00  0.00    +0.000 A 
ATOM     22  C   UNL     1      -1.728  12.330  20.686  0.00  0.00    +0.000 A 
ATOM     23  C   UNL     1      -2.877  12.971  21.171  0.00  0.00    +0.000 A 
ENDBRANCH  13  21
ENDBRANCH   1  15
TORSDOF 3
ENDMDL
MODEL 8
REMARK VINA RESULT:      -7.4      3.279      9.324
REMARK  Name = 
REMARK  5 active torsions:
REMARK  status: ('A' for Active; 'I' for Inactive)
REMARK    1  A    between atoms: C_1  and  C_2
REMARK    2  A    between atoms: C_5  and  C_6
REMARK    3  A    between atoms: N_8  and  C_9
REMARK    4  A    between atoms: C_12  and  C_13
REMARK    5  A    between atoms: C_16  and  C_17
REMARK                            x       y       z     vdW  Elec       q    Type
REMARK                         _______ _______ _______ _____ _____    ______ ____
ROOT
ATOM      1  C   UNL     1       0.748   9.404  20.243  0.00  0.00    +0.000 A 
ATOM      2  C   UNL     1       1.015   9.623  18.892  0.00  0.00    +0.000 A 
ATOM      3  C   UNL     1       1.810   8.737  18.158  0.00  0.00    +0.000 A 
ATOM      4  C   UNL     1       2.380   7.614  18.764  0.00  0.00    +0.000 A 
ATOM      5  C   UNL     1       2.108   7.384  20.119  0.00  0.00    +0.000 A 
ATOM      6  C   UNL     1       1.312   8.280  20.857  0.00  0.00    +0.000 A 
ENDROOT
BRANCH   4   7
ATOM      7  C   UNL     1       3.251   6.720  18.006  0.00  0.00    +0.000 A 
ATOM      8  C   UNL     1       4.291   7.171  17.215  0.00  0.00    +0.000 A 
ATOM      9  S   UNL     1       5.091   5.853  16.477  0.00  0.00    +0.000 S 
ATOM     10  C   UNL     1       4.014   4.776  17.272  0.00  0.00    +0.000 A 
ATOM     11  C   UNL     1       4.143   3.308  17.060  0.00  0.00    +0.000 C 
ATOM     12  N   UNL     1       3.113   5.341  18.049  0.00  0.00    +0.000 NA
ENDBRANCH   4   7
BRANCH   1  15
ATOM     13  C   UNL     1       0.319  11.517  21.477  0.00  0.00    +0.000 C 
ATOM     14  O   UNL     1       1.397  12.067  21.265  0.00  0.00    +0.000 OA
ATOM     15  N   UNL     1      -0.070  10.273  21.010  0.00  0.00    +0.000 N 
ATOM     16  H   UNL     1      -1.046  10.018  21.100  0.00  0.00    +0.000 HD
BRANCH  13  21
ATOM     17  C   UNL     1      -3.841  14.389  24.294  0.00  0.00    +0.000 C 
ATOM     18  C   UNL     1      -2.736  13.658  23.590  0.00  0.00    +0.000 A 
ATOM     19  C   UNL     1      -2.812  12.274  23.408  0.00  0.00    +0.000 A 
ATOM     20  C   UNL     1      -1.792  11.601  22.739  0.00  0.00    +0.000 A 
ATOM     21  C   UNL     1      -0.678  12.297  22.251  0.00  0.00    +0.000 A 
ATOM     22  C   UNL     1      -0.592  13.680  22.426  0.00  0.00    +0.000 A 
ATOM     23  C   UNL     1      -1.622  14.356  23.095  0.00  0.00    +0.000 A 
ENDBRANCH  13  21
ENDBRANCH   1  15
TORSDOF 3
ENDMDL
MODEL 9
REMARK VINA RESULT:      -7.4      3.589      9.379
REMARK  Name = 
REMARK  5 active torsions:
REMARK  status: ('A' for Active; 'I' for Inactive)
REMARK    1  A    between atoms: C_1  and  C_2
REMARK    2  A    between atoms: C_5  and  C_6
REMARK    3  A    between atoms: N_8  and  C_9
REMARK    4  A    between atoms: C_12  and  C_13
REMARK    5  A    between atoms: C_16  and  C_17
REMARK                            x       y       z     vdW  Elec       q    Type
REMARK                         _______ _______ _______ _____ _____    ______ ____
ROOT
ATOM      1  C   UNL     1       1.318   8.696  19.535  0.00  0.00    +0.000 A 
ATOM      2  C   UNL     1       1.929   8.890  18.296  0.00  0.00    +0.000 A 
ATOM      3  C   UNL     1       2.817   7.946  17.770  0.00  0.00    +0.000 A 
ATOM      4  C   UNL     1       3.136   6.787  18.481  0.00  0.00    +0.000 A 
ATOM      5  C   UNL     1       2.520   6.582  19.722  0.00  0.00    +0.000 A 
ATOM      6  C   UNL     1       1.630   7.535  20.252  0.00  0.00    +0.000 A 
ENDROOT
BRANCH   4   7
ATOM      7  C   UNL     1       4.103   5.830  17.951  0.00  0.00    +0.000 A 
ATOM      8  C   UNL     1       3.747   4.767  17.142  0.00  0.00    +0.000 A 
ATOM      9  S   UNL     1       5.129   3.856  16.714  0.00  0.00    +0.000 S 
ATOM     10  C   UNL     1       6.105   4.944  17.617  0.00  0.00    +0.000 A 
ATOM     11  C   UNL     1       7.576   4.732  17.694  0.00  0.00    +0.000 C 
ATOM     12  N   UNL     1       5.463   5.936  18.201  0.00  0.00    +0.000 NA
ENDBRANCH   4   7
BRANCH   1  15
ATOM     13  C   UNL     1       0.539  10.236  21.321  0.00  0.00    +0.000 C 
ATOM     14  O   UNL     1       1.486  10.104  22.093  0.00  0.00    +0.000 OA
ATOM     15  N   UNL     1       0.399   9.624  20.086  0.00  0.00    +0.000 N 
ATOM     16  H   UNL     1      -0.333   9.959  19.473  0.00  0.00    +0.000 HD
BRANCH  13  21
ATOM     17  C   UNL     1      -3.797  13.681  23.003  0.00  0.00    +0.000 C 
ATOM     18  C   UNL     1      -2.648  12.819  22.565  0.00  0.00    +0.000 A 
ATOM     19  C   UNL     1      -2.220  11.758  23.366  0.00  0.00    +0.000 A 
ATOM     20  C   UNL     1      -1.165  10.949  22.948  0.00  0.00    +0.000 A 
ATOM     21  C   UNL     1      -0.516  11.195  21.730  0.00  0.00    +0.000 A 
ATOM     22  C   UNL     1      -0.937  12.252  20.920  0.00  0.00    +0.000 A 
ATOM     23  C   UNL     1      -2.003  13.061  21.341  0.00  0.00    +0.000 A 
ENDBRANCH  13  21
ENDBRANCH   1  15
TORSDOF 3
ENDMDL
