MODEL 1
REMARK VINA RESULT:      -5.7      0.000      0.000
REMARK  Name = 
REMARK  17 active torsions:
REMARK  status: ('A' for Active; 'I' for Inactive)
REMARK    1  A    between atoms: C_1  and  C_2
REMARK    2  A    between atoms: C_2  and  C_3
REMARK    3  A    between atoms: C_3  and  C_4
REMARK    4  A    between atoms: C_4  and  C_5
REMARK    5  A    between atoms: C_5  and  C_6
REMARK    6  A    between atoms: C_6  and  C_7
REMARK    7  A    between atoms: C_7  and  C_8
REMARK    8  A    between atoms: C_8  and  C_9
REMARK    9  A    between atoms: C_9  and  C_10
REMARK   10  A    between atoms: C_10  and  C_11
REMARK   11  A    between atoms: C_11  and  C_12
REMARK   12  A    between atoms: C_12  and  C_13
REMARK   13  A    between atoms: C_13  and  C_14
REMARK   14  A    between atoms: N_16  and  N_17
REMARK   15  A    between atoms: C_18  and  C_19
REMARK   16  A    between atoms: C_23  and  S_24
REMARK   17  A    between atoms: S_24  and  C_25
REMARK                            x       y       z     vdW  Elec       q    Type
REMARK                         _______ _______ _______ _____ _____    ______ ____
ROOT
ATOM      1  C   UNL     1       1.566   4.007  20.792  0.00  0.00    +0.000 C 
ATOM      2  O   UNL     1       0.557   3.958  20.084  0.00  0.00    +0.000 OA
ATOM      3  N   UNL     1       2.190   5.190  21.157  0.00  0.00    +0.000 N 
ATOM      4  H   UNL     1       3.017   5.220  21.737  0.00  0.00    +0.000 HD
ENDROOT
BRANCH   3   5
ATOM      5  N   UNL     1       1.634   6.351  20.720  0.00  0.00    +0.000 NA
ATOM      6  C   UNL     1       2.337   7.109  19.951  0.00  0.00    +0.000 C 
BRANCH   6   7
ATOM      7  C   UNL     1       1.764   8.386  19.440  0.00  0.00    +0.000 A 
ATOM      8  C   UNL     1       2.224   8.937  18.237  0.00  0.00    +0.000 A 
ATOM      9  C   UNL     1       1.715  10.155  17.781  0.00  0.00    +0.000 A 
ATOM     10  C   UNL     1       0.738  10.824  18.524  0.00  0.00    +0.000 A 
ATOM     11  C   UNL     1       0.272  10.286  19.735  0.00  0.00    +0.000 A 
ATOM     12  C   UNL     1       0.778   9.054  20.181  0.00  0.00    +0.000 A 
BRANCH  11  13
ATOM     13  S   UNL     1      -0.982  11.223  20.610  0.00  0.00    +0.000 S 
ATOM     14  C   UNL     1      -0.064  11.882  22.029  0.00  0.00    +0.000 C 
ENDBRANCH  11  13
ENDBRANCH   6   7
ENDBRANCH   3   5
BRANCH   1  15
ATOM     15  C   UNL     1       2.224   2.745  21.327  0.00  0.00    +0.000 C 
BRANCH  15  16
ATOM     16  C   UNL     1       3.585   2.530  20.651  0.00  0.00    +0.000 C 
BRANCH  16  17
ATOM     17  C   UNL     1       3.494   1.758  19.339  0.00  0.00    +0.000 C 
BRANCH  17  18
ATOM     18  C   UNL     1       3.936   2.638  18.167  0.00  0.00    +0.000 C 
BRANCH  18  19
ATOM     19  C   UNL     1       2.733   3.145  17.380  0.00  0.00    +0.000 C 
BRANCH  19  20
ATOM     20  C   UNL     1       2.752   4.666  17.276  0.00  0.00    +0.000 C 
BRANCH  20  21
ATOM     21  C   UNL     1       4.100   5.214  17.724  0.00  0.00    +0.000 C 
BRANCH  21  22
ATOM     22  C   UNL     1       4.517   6.392  16.853  0.00  0.00    +0.000 C 
BRANCH  22  23
ATOM     23  C   UNL     1       5.958   6.230  16.393  0.00  0.00    +0.000 C 
BRANCH  23  24
ATOM     24  C   UNL     1       6.453   4.817  16.674  0.00  0.00    +0.000 C 
BRANCH  24  25
ATOM     25  C   UNL     1       6.784   4.098  15.373  0.00  0.00    +0.000 C 
BRANCH  25  27
ATOM     26  C   UNL     1       6.058   3.705  13.010  0.00  0.00    +0.000 C 
ATOM     27  C   UNL     1       5.641   4.228  14.373  0.00  0.00    +0.000 C 
ENDBRANCH  25  27
ENDBRANCH  24  25
ENDBRANCH  23  24
ENDBRANCH  22  23
ENDBRANCH  21  22
ENDBRANCH  20  21
ENDBRANCH  19  20
ENDBRANCH  18  19
ENDBRANCH  17  18
ENDBRANCH  16  17
ENDBRANCH  15  16
ENDBRANCH   1  15
TORSDOF 15
ENDMDL
MODEL 2
REMARK VINA RESULT:      -5.5      5.402      7.409
REMARK  Name = 
REMARK  17 active torsions:
REMARK  status: ('A' for Active; 'I' for Inactive)
REMARK    1  A    between atoms: C_1  and  C_2
REMARK    2  A    between atoms: C_2  and  C_3
REMARK    3  A    between atoms: C_3  and  C_4
REMARK    4  A    between atoms: C_4  and  C_5
REMARK    5  A    between atoms: C_5  and  C_6
REMARK    6  A    between atoms: C_6  and  C_7
REMARK    7  A    between atoms: C_7  and  C_8
REMARK    8  A    between atoms: C_8  and  C_9
REMARK    9  A    between atoms: C_9  and  C_10
REMARK   10  A    between atoms: C_10  and  C_11
REMARK   11  A    between atoms: C_11  and  C_12
REMARK   12  A    between atoms: C_12  and  C_13
REMARK   13  A    between atoms: C_13  and  C_14
REMARK   14  A    between atoms: N_16  and  N_17
REMARK   15  A    between atoms: C_18  and  C_19
REMARK   16  A    between atoms: C_23  and  S_24
REMARK   17  A    between atoms: S_24  and  C_25
REMARK                            x       y       z     vdW  Elec       q    Type
REMARK                         _______ _______ _______ _____ _____    ______ ____
ROOT
ATOM      1  C   UNL     1       7.514   6.825  17.711  0.00  0.00    +0.000 C 
ATOM      2  O   UNL     1       7.992   6.264  18.700  0.00  0.00    +0.000 OA
ATOM      3  N   UNL     1       7.677   8.176  17.442  0.00  0.00    +0.000 N 
ATOM      4  H   UNL     1       7.280   8.626  16.629  0.00  0.00    +0.000 HD
ENDROOT
BRANCH   3   5
ATOM      5  N   UNL     1       8.425   8.902  18.315  0.00  0.00    +0.000 NA
ATOM      6  C   UNL     1       8.681  10.130  18.018  0.00  0.00    +0.000 C 
BRANCH   6   7
ATOM      7  C   UNL     1       9.488  10.966  18.949  0.00  0.00    +0.000 A 
ATOM      8  C   UNL     1      10.863  11.131  18.742  0.00  0.00    +0.000 A 
ATOM      9  C   UNL     1      11.626  11.882  19.639  0.00  0.00    +0.000 A 
ATOM     10  C   UNL     1      11.014  12.475  20.746  0.00  0.00    +0.000 A 
ATOM     11  C   UNL     1       9.637  12.314  20.971  0.00  0.00    +0.000 A 
ATOM     12  C   UNL     1       8.873  11.569  20.057  0.00  0.00    +0.000 A 
BRANCH  11  13
ATOM     13  S   UNL     1       8.950  13.118  22.419  0.00  0.00    +0.000 S 
ATOM     14  C   UNL     1       7.445  13.891  21.765  0.00  0.00    +0.000 C 
ENDBRANCH  11  13
ENDBRANCH   6   7
ENDBRANCH   3   5
BRANCH   1  15
ATOM     15  C   UNL     1       6.685   6.064  16.689  0.00  0.00    +0.000 C 
BRANCH  15  16
ATOM     16  C   UNL     1       5.740   5.083  17.398  0.00  0.00    +0.000 C 
BRANCH  16  17
ATOM     17  C   UNL     1       4.376   5.685  17.722  0.00  0.00    +0.000 C 
BRANCH  17  18
ATOM     18  C   UNL     1       3.256   4.718  17.329  0.00  0.00    +0.000 C 
BRANCH  18  19
ATOM     19  C   UNL     1       3.484   3.339  17.937  0.00  0.00    +0.000 C 
BRANCH  19  20
ATOM     20  C   UNL     1       2.314   2.410  17.633  0.00  0.00    +0.000 C 
BRANCH  20  21
ATOM     21  C   UNL     1       1.729   1.850  18.922  0.00  0.00    +0.000 C 
BRANCH  21  22
ATOM     22  C   UNL     1       1.138   2.966  19.773  0.00  0.00    +0.000 C 
BRANCH  22  23
ATOM     23  C   UNL     1       1.590   2.828  21.220  0.00  0.00    +0.000 C 
BRANCH  23  24
ATOM     24  C   UNL     1       2.271   4.107  21.690  0.00  0.00    +0.000 C 
BRANCH  24  25
ATOM     25  C   UNL     1       2.322   5.131  20.564  0.00  0.00    +0.000 C 
BRANCH  25  27
ATOM     26  C   UNL     1       1.866   7.590  20.455  0.00  0.00    +0.000 C 
ATOM     27  C   UNL     1       1.282   6.225  20.775  0.00  0.00    +0.000 C 
ENDBRANCH  25  27
ENDBRANCH  24  25
ENDBRANCH  23  24
ENDBRANCH  22  23
ENDBRANCH  21  22
ENDBRANCH  20  21
ENDBRANCH  19  20
ENDBRANCH  18  19
ENDBRANCH  17  18
ENDBRANCH  16  17
ENDBRANCH  15  16
ENDBRANCH   1  15
TORSDOF 15
ENDMDL
MODEL 3
REMARK VINA RESULT:      -5.5      5.773      7.683
REMARK  Name = 
REMARK  17 active torsions:
REMARK  status: ('A' for Active; 'I' for Inactive)
REMARK    1  A    between atoms: C_1  and  C_2
REMARK    2  A    between atoms: C_2  and  C_3
REMARK    3  A    between atoms: C_3  and  C_4
REMARK    4  A    between atoms: C_4  and  C_5
REMARK    5  A    between atoms: C_5  and  C_6
REMARK    6  A    between atoms: C_6  and  C_7
REMARK    7  A    between atoms: C_7  and  C_8
REMARK    8  A    between atoms: C_8  and  C_9
REMARK    9  A    between atoms: C_9  and  C_10
REMARK   10  A    between atoms: C_10  and  C_11
REMARK   11  A    between atoms: C_11  and  C_12
REMARK   12  A    between atoms: C_12  and  C_13
REMARK   13  A    between atoms: C_13  and  C_14
REMARK   14  A    between atoms: N_16  and  N_17
REMARK   15  A    between atoms: C_18  and  C_19
REMARK   16  A    between atoms: C_23  and  S_24
REMARK   17  A    between atoms: S_24  and  C_25
REMARK                            x       y       z     vdW  Elec       q    Type
REMARK                         _______ _______ _______ _____ _____    ______ ____
ROOT
ATOM      1  C   UNL     1       7.407   6.833  17.551  0.00  0.00    +0.000 C 
ATOM      2  O   UNL     1       8.064   6.307  18.453  0.00  0.00    +0.000 OA
ATOM      3  N   UNL     1       7.338   8.204  17.353  0.00  0.00    +0.000 N 
ATOM      4  H   UNL     1       6.796   8.625  16.610  0.00  0.00    +0.000 HD
ENDROOT
BRANCH   3   5
ATOM      5  N   UNL     1       8.056   8.995  18.193  0.00  0.00    +0.000 NA
ATOM      6  C   UNL     1       8.712   9.982  17.685  0.00  0.00    +0.000 C 
BRANCH   6   7
ATOM      7  C   UNL     1       9.504  10.881  18.570  0.00  0.00    +0.000 A 
ATOM      8  C   UNL     1       9.419  10.758  19.962  0.00  0.00    +0.000 A 
ATOM      9  C   UNL     1      10.131  11.629  20.790  0.00  0.00    +0.000 A 
ATOM     10  C   UNL     1      10.934  12.624  20.227  0.00  0.00    +0.000 A 
ATOM     11  C   UNL     1      11.024  12.763  18.833  0.00  0.00    +0.000 A 
ATOM     12  C   UNL     1      10.318  11.875  18.006  0.00  0.00    +0.000 A 
BRANCH  11  13
ATOM     13  S   UNL     1      12.085  14.070  18.214  0.00  0.00    +0.000 S 
ATOM     14  C   UNL     1      10.893  15.252  17.525  0.00  0.00    +0.000 C 
ENDBRANCH  11  13
ENDBRANCH   6   7
ENDBRANCH   3   5
BRANCH   1  15
ATOM     15  C   UNL     1       6.599   6.002  16.567  0.00  0.00    +0.000 C 
BRANCH  15  16
ATOM     16  C   UNL     1       6.288   4.624  17.168  0.00  0.00    +0.000 C 
BRANCH  16  17
ATOM     17  C   UNL     1       4.928   4.555  17.854  0.00  0.00    +0.000 C 
BRANCH  17  18
ATOM     18  C   UNL     1       4.898   5.476  19.076  0.00  0.00    +0.000 C 
BRANCH  18  19
ATOM     19  C   UNL     1       3.477   5.940  19.377  0.00  0.00    +0.000 C 
BRANCH  19  20
ATOM     20  C   UNL     1       2.545   5.631  18.210  0.00  0.00    +0.000 C 
BRANCH  20  21
ATOM     21  C   UNL     1       1.322   4.862  18.693  0.00  0.00    +0.000 C 
BRANCH  21  22
ATOM     22  C   UNL     1       1.323   4.752  20.212  0.00  0.00    +0.000 C 
BRANCH  22  23
ATOM     23  C   UNL     1       1.123   3.305  20.641  0.00  0.00    +0.000 C 
BRANCH  23  24
ATOM     24  C   UNL     1       1.221   2.374  19.440  0.00  0.00    +0.000 C 
BRANCH  24  25
ATOM     25  C   UNL     1       2.647   1.864  19.274  0.00  0.00    +0.000 C 
BRANCH  25  27
ATOM     26  C   UNL     1       4.827   1.579  20.471  0.00  0.00    +0.000 C 
ATOM     27  C   UNL     1       3.546   2.389  20.387  0.00  0.00    +0.000 C 
ENDBRANCH  25  27
ENDBRANCH  24  25
ENDBRANCH  23  24
ENDBRANCH  22  23
ENDBRANCH  21  22
ENDBRANCH  20  21
ENDBRANCH  19  20
ENDBRANCH  18  19
ENDBRANCH  17  18
ENDBRANCH  16  17
ENDBRANCH  15  16
ENDBRANCH   1  15
TORSDOF 15
ENDMDL
MODEL 4
REMARK VINA RESULT:      -5.4      4.997      6.738
REMARK  Name = 
REMARK  17 active torsions:
REMARK  status: ('A' for Active; 'I' for Inactive)
REMARK    1  A    between atoms: C_1  and  C_2
REMARK    2  A    between atoms: C_2  and  C_3
REMARK    3  A    between atoms: C_3  and  C_4
REMARK    4  A    between atoms: C_4  and  C_5
REMARK    5  A    between atoms: C_5  and  C_6
REMARK    6  A    between atoms: C_6  and  C_7
REMARK    7  A    between atoms: C_7  and  C_8
REMARK    8  A    between atoms: C_8  and  C_9
REMARK    9  A    between atoms: C_9  and  C_10
REMARK   10  A    between atoms: C_10  and  C_11
REMARK   11  A    between atoms: C_11  and  C_12
REMARK   12  A    between atoms: C_12  and  C_13
REMARK   13  A    between atoms: C_13  and  C_14
REMARK   14  A    between atoms: N_16  and  N_17
REMARK   15  A    between atoms: C_18  and  C_19
REMARK   16  A    between atoms: C_23  and  S_24
REMARK   17  A    between atoms: S_24  and  C_25
REMARK                            x       y       z     vdW  Elec       q    Type
REMARK                         _______ _______ _______ _____ _____    ______ ____
ROOT
ATOM      1  C   UNL     1       6.329   6.090  16.143  0.00  0.00    +0.000 C 
ATOM      2  O   UNL     1       5.509   6.882  15.671  0.00  0.00    +0.000 OA
ATOM      3  N   UNL     1       7.481   6.484  16.807  0.00  0.00    +0.000 N 
ATOM      4  H   UNL     1       8.146   5.826  17.190  0.00  0.00    +0.000 HD
ENDROOT
BRANCH   3   5
ATOM      5  N   UNL     1       7.692   7.818  16.956  0.00  0.00    +0.000 NA
ATOM      6  C   UNL     1       8.245   8.226  18.047  0.00  0.00    +0.000 C 
BRANCH   6   7
ATOM      7  C   UNL     1       8.505   9.679  18.250  0.00  0.00    +0.000 A 
ATOM      8  C   UNL     1       7.889  10.629  17.427  0.00  0.00    +0.000 A 
ATOM      9  C   UNL     1       8.166  11.989  17.593  0.00  0.00    +0.000 A 
ATOM     10  C   UNL     1       9.058  12.402  18.585  0.00  0.00    +0.000 A 
ATOM     11  C   UNL     1       9.689  11.459  19.413  0.00  0.00    +0.000 A 
ATOM     12  C   UNL     1       9.395  10.095  19.252  0.00  0.00    +0.000 A 
BRANCH  11  13
ATOM     13  S   UNL     1      10.815  12.094  20.657  0.00  0.00    +0.000 S 
ATOM     14  C   UNL     1      10.001  13.630  21.178  0.00  0.00    +0.000 C 
ENDBRANCH  11  13
ENDBRANCH   6   7
ENDBRANCH   3   5
BRANCH   1  15
ATOM     15  C   UNL     1       6.139   4.586  16.025  0.00  0.00    +0.000 C 
BRANCH  15  16
ATOM     16  C   UNL     1       5.346   4.057  17.228  0.00  0.00    +0.000 C 
BRANCH  16  17
ATOM     17  C   UNL     1       5.822   4.620  18.563  0.00  0.00    +0.000 C 
BRANCH  17  18
ATOM     18  C   UNL     1       5.016   4.019  19.717  0.00  0.00    +0.000 C 
BRANCH  18  19
ATOM     19  C   UNL     1       4.275   2.764  19.272  0.00  0.00    +0.000 C 
BRANCH  19  20
ATOM     20  C   UNL     1       3.108   2.461  20.205  0.00  0.00    +0.000 C 
BRANCH  20  21
ATOM     21  C   UNL     1       1.793   2.475  19.436  0.00  0.00    +0.000 C 
BRANCH  21  22
ATOM     22  C   UNL     1       2.036   2.782  17.964  0.00  0.00    +0.000 C 
BRANCH  22  23
ATOM     23  C   UNL     1       1.329   4.070  17.566  0.00  0.00    +0.000 C 
BRANCH  23  24
ATOM     24  C   UNL     1       1.700   5.199  18.518  0.00  0.00    +0.000 C 
BRANCH  24  25
ATOM     25  C   UNL     1       2.508   6.267  17.793  0.00  0.00    +0.000 C 
BRANCH  25  27
ATOM     26  C   UNL     1       1.969   8.711  17.838  0.00  0.00    +0.000 C 
ATOM     27  C   UNL     1       2.571   7.552  18.611  0.00  0.00    +0.000 C 
ENDBRANCH  25  27
ENDBRANCH  24  25
ENDBRANCH  23  24
ENDBRANCH  22  23
ENDBRANCH  21  22
ENDBRANCH  20  21
ENDBRANCH  19  20
ENDBRANCH  18  19
ENDBRANCH  17  18
ENDBRANCH  16  17
ENDBRANCH  15  16
ENDBRANCH   1  15
TORSDOF 15
ENDMDL
MODEL 5
REMARK VINA RESULT:      -5.4      5.926      7.807
REMARK  Name = 
REMARK  17 active torsions:
REMARK  status: ('A' for Active; 'I' for Inactive)
REMARK    1  A    between atoms: C_1  and  C_2
REMARK    2  A    between atoms: C_2  and  C_3
REMARK    3  A    between atoms: C_3  and  C_4
REMARK    4  A    between atoms: C_4  and  C_5
REMARK    5  A    between atoms: C_5  and  C_6
REMARK    6  A    between atoms: C_6  and  C_7
REMARK    7  A    between atoms: C_7  and  C_8
REMARK    8  A    between atoms: C_8  and  C_9
REMARK    9  A    between atoms: C_9  and  C_10
REMARK   10  A    between atoms: C_10  and  C_11
REMARK   11  A    between atoms: C_11  and  C_12
REMARK   12  A    between atoms: C_12  and  C_13
REMARK   13  A    between atoms: C_13  and  C_14
REMARK   14  A    between atoms: N_16  and  N_17
REMARK   15  A    between atoms: C_18  and  C_19
REMARK   16  A    between atoms: C_23  and  S_24
REMARK   17  A    between atoms: S_24  and  C_25
REMARK                            x       y       z     vdW  Elec       q    Type
REMARK                         _______ _______ _______ _____ _____    ______ ____
ROOT
ATOM      1  C   UNL     1       7.355   7.388  17.140  0.00  0.00    +0.000 C 
ATOM      2  O   UNL     1       8.348   7.196  16.434  0.00  0.00    +0.000 OA
ATOM      3  N   UNL     1       7.188   8.508  17.939  0.00  0.00    +0.000 N 
ATOM      4  H   UNL     1       6.369   8.656  18.514  0.00  0.00    +0.000 HD
ENDROOT
BRANCH   3   5
ATOM      5  N   UNL     1       8.171   9.447  17.915  0.00  0.00    +0.000 NA
ATOM      6  C   UNL     1       8.743   9.754  19.029  0.00  0.00    +0.000 C 
BRANCH   6   7
ATOM      7  C   UNL     1       9.833  10.769  19.049  0.00  0.00    +0.000 A 
ATOM      8  C   UNL     1      10.513  11.054  20.240  0.00  0.00    +0.000 A 
ATOM      9  C   UNL     1      11.506  12.036  20.265  0.00  0.00    +0.000 A 
ATOM     10  C   UNL     1      11.827  12.732  19.096  0.00  0.00    +0.000 A 
ATOM     11  C   UNL     1      11.150  12.461  17.897  0.00  0.00    +0.000 A 
ATOM     12  C   UNL     1      10.162  11.463  17.875  0.00  0.00    +0.000 A 
BRANCH  11  13
ATOM     13  S   UNL     1      11.640  13.409  16.455  0.00  0.00    +0.000 S 
ATOM     14  C   UNL     1      11.249  15.110  16.951  0.00  0.00    +0.000 C 
ENDBRANCH  11  13
ENDBRANCH   6   7
ENDBRANCH   3   5
BRANCH   1  15
ATOM     15  C   UNL     1       6.213   6.386  17.194  0.00  0.00    +0.000 C 
BRANCH  15  16
ATOM     16  C   UNL     1       5.088   6.913  18.097  0.00  0.00    +0.000 C 
BRANCH  16  17
ATOM     17  C   UNL     1       3.727   6.945  17.411  0.00  0.00    +0.000 C 
BRANCH  17  18
ATOM     18  C   UNL     1       2.609   7.099  18.446  0.00  0.00    +0.000 C 
BRANCH  18  19
ATOM     19  C   UNL     1       1.884   5.777  18.670  0.00  0.00    +0.000 C 
BRANCH  19  20
ATOM     20  C   UNL     1       2.060   5.296  20.106  0.00  0.00    +0.000 C 
BRANCH  20  21
ATOM     21  C   UNL     1       0.954   4.317  20.479  0.00  0.00    +0.000 C 
BRANCH  21  22
ATOM     22  C   UNL     1       1.408   2.882  20.251  0.00  0.00    +0.000 C 
BRANCH  22  23
ATOM     23  C   UNL     1       1.012   2.414  18.858  0.00  0.00    +0.000 C 
BRANCH  23  24
ATOM     24  C   UNL     1       2.246   2.027  18.053  0.00  0.00    +0.000 C 
BRANCH  24  25
ATOM     25  C   UNL     1       3.492   2.073  18.929  0.00  0.00    +0.000 C 
BRANCH  25  27
ATOM     26  C   UNL     1       4.279   3.408  16.963  0.00  0.00    +0.000 C 
ATOM     27  C   UNL     1       4.455   3.152  18.449  0.00  0.00    +0.000 C 
ENDBRANCH  25  27
ENDBRANCH  24  25
ENDBRANCH  23  24
ENDBRANCH  22  23
ENDBRANCH  21  22
ENDBRANCH  20  21
ENDBRANCH  19  20
ENDBRANCH  18  19
ENDBRANCH  17  18
ENDBRANCH  16  17
ENDBRANCH  15  16
ENDBRANCH   1  15
TORSDOF 15
ENDMDL
MODEL 6
REMARK VINA RESULT:      -5.3      2.480      3.802
REMARK  Name = 
REMARK  17 active torsions:
REMARK  status: ('A' for Active; 'I' for Inactive)
REMARK    1  A    between atoms: C_1  and  C_2
REMARK    2  A    between atoms: C_2  and  C_3
REMARK    3  A    between atoms: C_3  and  C_4
REMARK    4  A    between atoms: C_4  and  C_5
REMARK    5  A    between atoms: C_5  and  C_6
REMARK    6  A    between atoms: C_6  and  C_7
REMARK    7  A    between atoms: C_7  and  C_8
REMARK    8  A    between atoms: C_8  and  C_9
REMARK    9  A    between atoms: C_9  and  C_10
REMARK   10  A    between atoms: C_10  and  C_11
REMARK   11  A    between atoms: C_11  and  C_12
REMARK   12  A    between atoms: C_12  and  C_13
REMARK   13  A    between atoms: C_13  and  C_14
REMARK   14  A    between atoms: N_16  and  N_17
REMARK   15  A    between atoms: C_18  and  C_19
REMARK   16  A    between atoms: C_23  and  S_24
REMARK   17  A    between atoms: S_24  and  C_25
REMARK                            x       y       z     vdW  Elec       q    Type
REMARK                         _______ _______ _______ _____ _____    ______ ____
ROOT
ATOM      1  C   UNL     1       2.603   8.131  17.981  0.00  0.00    +0.000 C 
ATOM      2  O   UNL     1       2.542   8.929  17.042  0.00  0.00    +0.000 OA
ATOM      3  N   UNL     1       1.850   8.250  19.138  0.00  0.00    +0.000 N 
ATOM      4  H   UNL     1       1.907   7.590  19.902  0.00  0.00    +0.000 HD
ENDROOT
BRANCH   3   5
ATOM      5  N   UNL     1       0.986   9.297  19.219  0.00  0.00    +0.000 NA
ATOM      6  C   UNL     1       0.672   9.736  20.389  0.00  0.00    +0.000 C 
BRANCH   6   7
ATOM      7  C   UNL     1      -0.262  10.888  20.524  0.00  0.00    +0.000 A 
ATOM      8  C   UNL     1      -1.116  11.234  19.469  0.00  0.00    +0.000 A 
ATOM      9  C   UNL     1      -1.962  12.340  19.582  0.00  0.00    +0.000 A 
ATOM     10  C   UNL     1      -1.961  13.100  20.755  0.00  0.00    +0.000 A 
ATOM     11  C   UNL     1      -1.107  12.768  21.818  0.00  0.00    +0.000 A 
ATOM     12  C   UNL     1      -0.269  11.647  21.704  0.00  0.00    +0.000 A 
BRANCH  11  13
ATOM     13  S   UNL     1      -1.185  13.808  23.278  0.00  0.00    +0.000 S 
ATOM     14  C   UNL     1      -2.725  14.733  23.021  0.00  0.00    +0.000 C 
ENDBRANCH  11  13
ENDBRANCH   6   7
ENDBRANCH   3   5
BRANCH   1  15
ATOM     15  C   UNL     1       3.535   6.930  17.943  0.00  0.00    +0.000 C 
BRANCH  15  16
ATOM     16  C   UNL     1       2.994   5.812  18.846  0.00  0.00    +0.000 C 
BRANCH  16  17
ATOM     17  C   UNL     1       4.065   5.169  19.721  0.00  0.00    +0.000 C 
BRANCH  17  18
ATOM     18  C   UNL     1       5.237   4.684  18.865  0.00  0.00    +0.000 C 
BRANCH  18  19
ATOM     19  C   UNL     1       6.530   5.390  19.256  0.00  0.00    +0.000 C 
BRANCH  19  20
ATOM     20  C   UNL     1       7.345   5.758  18.021  0.00  0.00    +0.000 C 
BRANCH  20  21
ATOM     21  C   UNL     1       7.305   4.628  17.000  0.00  0.00    +0.000 C 
BRANCH  21  22
ATOM     22  C   UNL     1       7.102   5.181  15.596  0.00  0.00    +0.000 C 
BRANCH  22  23
ATOM     23  C   UNL     1       5.623   5.198  15.240  0.00  0.00    +0.000 C 
BRANCH  23  24
ATOM     24  C   UNL     1       5.294   4.070  14.270  0.00  0.00    +0.000 C 
BRANCH  24  25
ATOM     25  C   UNL     1       6.412   3.900  13.249  0.00  0.00    +0.000 C 
BRANCH  25  27
ATOM     26  C   UNL     1       4.538   3.361  11.680  0.00  0.00    +0.000 C 
ATOM     27  C   UNL     1       5.960   3.022  12.089  0.00  0.00    +0.000 C 
ENDBRANCH  25  27
ENDBRANCH  24  25
ENDBRANCH  23  24
ENDBRANCH  22  23
ENDBRANCH  21  22
ENDBRANCH  20  21
ENDBRANCH  19  20
ENDBRANCH  18  19
ENDBRANCH  17  18
ENDBRANCH  16  17
ENDBRANCH  15  16
ENDBRANCH   1  15
TORSDOF 15
ENDMDL
MODEL 7
REMARK VINA RESULT:      -5.2      2.223      4.490
REMARK  Name = 
REMARK  17 active torsions:
REMARK  status: ('A' for Active; 'I' for Inactive)
REMARK    1  A    between atoms: C_1  and  C_2
REMARK    2  A    between atoms: C_2  and  C_3
REMARK    3  A    between atoms: C_3  and  C_4
REMARK    4  A    between atoms: C_4  and  C_5
REMARK    5  A    between atoms: C_5  and  C_6
REMARK    6  A    between atoms: C_6  and  C_7
REMARK    7  A    between atoms: C_7  and  C_8
REMARK    8  A    between atoms: C_8  and  C_9
REMARK    9  A    between atoms: C_9  and  C_10
REMARK   10  A    between atoms: C_10  and  C_11
REMARK   11  A    between atoms: C_11  and  C_12
REMARK   12  A    between atoms: C_12  and  C_13
REMARK   13  A    between atoms: C_13  and  C_14
REMARK   14  A    between atoms: N_16  and  N_17
REMARK   15  A    between atoms: C_18  and  C_19
REMARK   16  A    between atoms: C_23  and  S_24
REMARK   17  A    between atoms: S_24  and  C_25
REMARK                            x       y       z     vdW  Elec       q    Type
REMARK                         _______ _______ _______ _____ _____    ______ ____
ROOT
ATOM      1  C   UNL     1       2.524   8.038  17.953  0.00  0.00    +0.000 C 
ATOM      2  O   UNL     1       2.321   9.020  17.234  0.00  0.00    +0.000 OA
ATOM      3  N   UNL     1       2.067   7.937  19.258  0.00  0.00    +0.000 N 
ATOM      4  H   UNL     1       2.238   7.128  19.840  0.00  0.00    +0.000 HD
ENDROOT
BRANCH   3   5
ATOM      5  N   UNL     1       1.341   8.976  19.750  0.00  0.00    +0.000 NA
ATOM      6  C   UNL     1       0.644   8.778  20.817  0.00  0.00    +0.000 C 
BRANCH   6   7
ATOM      7  C   UNL     1      -0.158   9.890  21.396  0.00  0.00    +0.000 A 
ATOM      8  C   UNL     1      -0.501   9.883  22.755  0.00  0.00    +0.000 A 
ATOM      9  C   UNL     1      -1.288  10.907  23.287  0.00  0.00    +0.000 A 
ATOM     10  C   UNL     1      -1.732  11.944  22.464  0.00  0.00    +0.000 A 
ATOM     11  C   UNL     1      -1.402  11.962  21.099  0.00  0.00    +0.000 A 
ATOM     12  C   UNL     1      -0.598  10.937  20.572  0.00  0.00    +0.000 A 
BRANCH  11  13
ATOM     13  S   UNL     1      -2.021  13.339  20.131  0.00  0.00    +0.000 S 
ATOM     14  C   UNL     1      -3.614  13.693  20.923  0.00  0.00    +0.000 C 
ENDBRANCH  11  13
ENDBRANCH   6   7
ENDBRANCH   3   5
BRANCH   1  15
ATOM     15  C   UNL     1       3.312   6.837  17.455  0.00  0.00    +0.000 C 
BRANCH  15  16
ATOM     16  C   UNL     1       4.662   7.291  16.881  0.00  0.00    +0.000 C 
BRANCH  16  17
ATOM     17  C   UNL     1       4.977   6.679  15.520  0.00  0.00    +0.000 C 
BRANCH  17  18
ATOM     18  C   UNL     1       5.051   5.153  15.623  0.00  0.00    +0.000 C 
BRANCH  18  19
ATOM     19  C   UNL     1       6.379   4.632  15.086  0.00  0.00    +0.000 C 
BRANCH  19  20
ATOM     20  C   UNL     1       7.534   5.051  15.989  0.00  0.00    +0.000 C 
BRANCH  20  21
ATOM     21  C   UNL     1       7.381   4.431  17.372  0.00  0.00    +0.000 C 
BRANCH  21  22
ATOM     22  C   UNL     1       7.348   5.511  18.444  0.00  0.00    +0.000 C 
BRANCH  22  23
ATOM     23  C   UNL     1       6.167   5.295  19.380  0.00  0.00    +0.000 C 
BRANCH  23  24
ATOM     24  C   UNL     1       5.477   3.972  19.073  0.00  0.00    +0.000 C 
BRANCH  24  25
ATOM     25  C   UNL     1       3.964   4.127  19.155  0.00  0.00    +0.000 C 
BRANCH  25  27
ATOM     26  C   UNL     1       1.773   3.481  18.132  0.00  0.00    +0.000 C 
ATOM     27  C   UNL     1       3.270   3.226  18.141  0.00  0.00    +0.000 C 
ENDBRANCH  25  27
ENDBRANCH  24  25
ENDBRANCH  23  24
ENDBRANCH  22  23
ENDBRANCH  21  22
ENDBRANCH  20  21
ENDBRANCH  19  20
ENDBRANCH  18  19
ENDBRANCH  17  18
ENDBRANCH  16  17
ENDBRANCH  15  16
ENDBRANCH   1  15
TORSDOF 15
ENDMDL
MODEL 8
REMARK VINA RESULT:      -5.2      2.172      3.687
REMARK  Name = 
REMARK  17 active torsions:
REMARK  status: ('A' for Active; 'I' for Inactive)
REMARK    1  A    between atoms: C_1  and  C_2
REMARK    2  A    between atoms: C_2  and  C_3
REMARK    3  A    between atoms: C_3  and  C_4
REMARK    4  A    between atoms: C_4  and  C_5
REMARK    5  A    between atoms: C_5  and  C_6
REMARK    6  A    between atoms: C_6  and  C_7
REMARK    7  A    between atoms: C_7  and  C_8
REMARK    8  A    between atoms: C_8  and  C_9
REMARK    9  A    between atoms: C_9  and  C_10
REMARK   10  A    between atoms: C_10  and  C_11
REMARK   11  A    between atoms: C_11  and  C_12
REMARK   12  A    between atoms: C_12  and  C_13
REMARK   13  A    between atoms: C_13  and  C_14
REMARK   14  A    between atoms: N_16  and  N_17
REMARK   15  A    between atoms: C_18  and  C_19
REMARK   16  A    between atoms: C_23  and  S_24
REMARK   17  A    between atoms: S_24  and  C_25
REMARK                            x       y       z     vdW  Elec       q    Type
REMARK                         _______ _______ _______ _____ _____    ______ ____
ROOT
ATOM      1  C   UNL     1       2.035   7.281  20.165  0.00  0.00    +0.000 C 
ATOM      2  O   UNL     1       2.197   7.850  19.082  0.00  0.00    +0.000 OA
ATOM      3  N   UNL     1       1.475   7.893  21.276  0.00  0.00    +0.000 N 
ATOM      4  H   UNL     1       1.347   7.418  22.159  0.00  0.00    +0.000 HD
ENDROOT
BRANCH   3   5
ATOM      5  N   UNL     1       1.067   9.183  21.141  0.00  0.00    +0.000 NA
ATOM      6  C   UNL     1      -0.191   9.437  21.263  0.00  0.00    +0.000 C 
BRANCH   6   7
ATOM      7  C   UNL     1      -0.681  10.838  21.134  0.00  0.00    +0.000 A 
ATOM      8  C   UNL     1      -1.055  11.344  19.883  0.00  0.00    +0.000 A 
ATOM      9  C   UNL     1      -1.476  12.670  19.757  0.00  0.00    +0.000 A 
ATOM     10  C   UNL     1      -1.528  13.494  20.885  0.00  0.00    +0.000 A 
ATOM     11  C   UNL     1      -1.150  13.002  22.144  0.00  0.00    +0.000 A 
ATOM     12  C   UNL     1      -0.741  11.664  22.267  0.00  0.00    +0.000 A 
BRANCH  11  13
ATOM     13  S   UNL     1      -1.255  14.141  23.526  0.00  0.00    +0.000 S 
ATOM     14  C   UNL     1      -1.018  15.753  22.728  0.00  0.00    +0.000 C 
ENDBRANCH  11  13
ENDBRANCH   6   7
ENDBRANCH   3   5
BRANCH   1  15
ATOM     15  C   UNL     1       2.452   5.834  20.373  0.00  0.00    +0.000 C 
BRANCH  15  16
ATOM     16  C   UNL     1       1.402   4.889  19.771  0.00  0.00    +0.000 C 
BRANCH  16  17
ATOM     17  C   UNL     1       1.054   3.714  20.679  0.00  0.00    +0.000 C 
BRANCH  17  18
ATOM     18  C   UNL     1       2.322   2.967  21.100  0.00  0.00    +0.000 C 
BRANCH  18  19
ATOM     19  C   UNL     1       2.941   2.229  19.918  0.00  0.00    +0.000 C 
BRANCH  19  20
ATOM     20  C   UNL     1       4.463   2.322  19.954  0.00  0.00    +0.000 C 
BRANCH  20  21
ATOM     21  C   UNL     1       4.947   3.478  19.089  0.00  0.00    +0.000 C 
BRANCH  21  22
ATOM     22  C   UNL     1       4.249   3.466  17.736  0.00  0.00    +0.000 C 
BRANCH  22  23
ATOM     23  C   UNL     1       4.899   4.468  16.793  0.00  0.00    +0.000 C 
BRANCH  23  24
ATOM     24  C   UNL     1       4.324   5.861  17.014  0.00  0.00    +0.000 C 
BRANCH  24  25
ATOM     25  C   UNL     1       5.443   6.884  17.159  0.00  0.00    +0.000 C 
BRANCH  25  27
ATOM     26  C   UNL     1       7.775   7.086  18.045  0.00  0.00    +0.000 C 
ATOM     27  C   UNL     1       6.796   6.196  17.301  0.00  0.00    +0.000 C 
ENDBRANCH  25  27
ENDBRANCH  24  25
ENDBRANCH  23  24
ENDBRANCH  22  23
ENDBRANCH  21  22
ENDBRANCH  20  21
ENDBRANCH  19  20
ENDBRANCH  18  19
ENDBRANCH  17  18
ENDBRANCH  16  17
ENDBRANCH  15  16
ENDBRANCH   1  15
TORSDOF 15
ENDMDL
MODEL 9
REMARK VINA RESULT:      -5.2      2.499      5.152
REMARK  Name = 
REMARK  17 active torsions:
REMARK  status: ('A' for Active; 'I' for Inactive)
REMARK    1  A    between atoms: C_1  and  C_2
REMARK    2  A    between atoms: C_2  and  C_3
REMARK    3  A    between atoms: C_3  and  C_4
REMARK    4  A    between atoms: C_4  and  C_5
REMARK    5  A    between atoms: C_5  and  C_6
REMARK    6  A    between atoms: C_6  and  C_7
REMARK    7  A    between atoms: C_7  and  C_8
REMARK    8  A    between atoms: C_8  and  C_9
REMARK    9  A    between atoms: C_9  and  C_10
REMARK   10  A    between atoms: C_10  and  C_11
REMARK   11  A    between atoms: C_11  and  C_12
REMARK   12  A    between atoms: C_12  and  C_13
REMARK   13  A    between atoms: C_13  and  C_14
REMARK   14  A    between atoms: N_16  and  N_17
REMARK   15  A    between atoms: C_18  and  C_19
REMARK   16  A    between atoms: C_23  and  S_24
REMARK   17  A    between atoms: S_24  and  C_25
REMARK                            x       y       z     vdW  Elec       q    Type
REMARK                         _______ _______ _______ _____ _____    ______ ____
ROOT
ATOM      1  C   UNL     1       3.008   7.579  17.715  0.00  0.00    +0.000 C 
ATOM      2  O   UNL     1       1.979   6.901  17.662  0.00  0.00    +0.000 OA
ATOM      3  N   UNL     1       3.014   8.966  17.699  0.00  0.00    +0.000 N 
ATOM      4  H   UNL     1       3.864   9.512  17.743  0.00  0.00    +0.000 HD
ENDROOT
BRANCH   3   5
ATOM      5  N   UNL     1       1.812   9.596  17.642  0.00  0.00    +0.000 NA
ATOM      6  C   UNL     1       1.184   9.806  18.748  0.00  0.00    +0.000 C 
BRANCH   6   7
ATOM      7  C   UNL     1      -0.132  10.503  18.735  0.00  0.00    +0.000 A 
ATOM      8  C   UNL     1      -0.386  11.552  19.627  0.00  0.00    +0.000 A 
ATOM      9  C   UNL     1      -1.635  12.178  19.641  0.00  0.00    +0.000 A 
ATOM     10  C   UNL     1      -2.634  11.759  18.757  0.00  0.00    +0.000 A 
ATOM     11  C   UNL     1      -2.395  10.705  17.861  0.00  0.00    +0.000 A 
ATOM     12  C   UNL     1      -1.133  10.089  17.843  0.00  0.00    +0.000 A 
BRANCH  11  13
ATOM     13  S   UNL     1      -3.742  10.246  16.769  0.00  0.00    +0.000 S 
ATOM     14  C   UNL     1      -3.107  10.722  15.138  0.00  0.00    +0.000 C 
ENDBRANCH  11  13
ENDBRANCH   6   7
ENDBRANCH   3   5
BRANCH   1  15
ATOM     15  C   UNL     1       4.382   6.934  17.800  0.00  0.00    +0.000 C 
BRANCH  15  16
ATOM     16  C   UNL     1       4.804   6.404  16.422  0.00  0.00    +0.000 C 
BRANCH  16  17
ATOM     17  C   UNL     1       6.184   5.755  16.419  0.00  0.00    +0.000 C 
BRANCH  17  18
ATOM     18  C   UNL     1       6.060   4.230  16.457  0.00  0.00    +0.000 C 
BRANCH  18  19
ATOM     19  C   UNL     1       4.642   3.805  16.820  0.00  0.00    +0.000 C 
BRANCH  19  20
ATOM     20  C   UNL     1       4.578   3.293  18.255  0.00  0.00    +0.000 C 
BRANCH  20  21
ATOM     21  C   UNL     1       3.584   2.145  18.368  0.00  0.00    +0.000 C 
BRANCH  21  22
ATOM     22  C   UNL     1       2.288   2.483  17.643  0.00  0.00    +0.000 C 
BRANCH  22  23
ATOM     23  C   UNL     1       1.195   2.835  18.642  0.00  0.00    +0.000 C 
BRANCH  23  24
ATOM     24  C   UNL     1       1.566   2.343  20.035  0.00  0.00    +0.000 C 
BRANCH  24  25
ATOM     25  C   UNL     1       1.344   3.440  21.067  0.00  0.00    +0.000 C 
BRANCH  25  27
ATOM     26  C   UNL     1       1.488   5.925  20.796  0.00  0.00    +0.000 C 
ATOM     27  C   UNL     1       2.270   4.624  20.812  0.00  0.00    +0.000 C 
ENDBRANCH  25  27
ENDBRANCH  24  25
ENDBRANCH  23  24
ENDBRANCH  22  23
ENDBRANCH  21  22
ENDBRANCH  20  21
ENDBRANCH  19  20
ENDBRANCH  18  19
ENDBRANCH  17  18
ENDBRANCH  16  17
ENDBRANCH  15  16
ENDBRANCH   1  15
TORSDOF 15
ENDMDL
