MODEL 1
REMARK VINA RESULT:      -7.2      0.000      0.000
REMARK  Name = 
REMARK  1 active torsions:
REMARK  status: ('A' for Active; 'I' for Inactive)
REMARK    1  A    between atoms: C_6  and  C_7
REMARK                            x       y       z     vdW  Elec       q    Type
REMARK                         _______ _______ _______ _____ _____    ______ ____
ROOT
ATOM      1  C   UNL     1       4.465   3.881  18.250  0.00  0.00    +0.000 A 
ATOM      2  N   UNL     1       4.726   3.271  19.393  0.00  0.00    +0.000 NA
ATOM      3  C   UNL     1       3.495   3.144  19.985  0.00  0.00    +0.000 A 
ATOM      4  C   UNL     1       3.117   2.593  21.215  0.00  0.00    +0.000 A 
ATOM      5  C   UNL     1       1.755   2.608  21.554  0.00  0.00    +0.000 A 
ATOM      6  C   UNL     1       0.798   3.157  20.689  0.00  0.00    +0.000 A 
ATOM      7  C   UNL     1       1.163   3.714  19.456  0.00  0.00    +0.000 A 
ATOM      8  C   UNL     1       2.520   3.681  19.160  0.00  0.00    +0.000 A 
ATOM      9  O   UNL     1       3.137   4.158  18.041  0.00  0.00    +0.000 OA
ENDROOT
BRANCH   1  15
ATOM     10 BR   UNL     1       6.042   3.651  13.141  0.00  0.00    +0.000 Br
ATOM     11  C   UNL     1       6.198   4.281  14.918  0.00  0.00    +0.000 A 
ATOM     12  C   UNL     1       7.198   5.196  15.238  0.00  0.00    +0.000 A 
ATOM     13  C   UNL     1       7.307   5.666  16.545  0.00  0.00    +0.000 A 
ATOM     14  C   UNL     1       6.412   5.222  17.521  0.00  0.00    +0.000 A 
ATOM     15  C   UNL     1       5.398   4.301  17.208  0.00  0.00    +0.000 A 
ATOM     16  C   UNL     1       5.304   3.829  15.891  0.00  0.00    +0.000 A 
ENDBRANCH   1  15
TORSDOF 1
ENDMDL
MODEL 2
REMARK VINA RESULT:      -7.2      1.308      1.562
REMARK  Name = 
REMARK  1 active torsions:
REMARK  status: ('A' for Active; 'I' for Inactive)
REMARK    1  A    between atoms: C_6  and  C_7
REMARK                            x       y       z     vdW  Elec       q    Type
REMARK                         _______ _______ _______ _____ _____    ______ ____
ROOT
ATOM      1  C   UNL     1       4.013   4.080  17.272  0.00  0.00    +0.000 A 
ATOM      2  N   UNL     1       2.966   3.285  17.140  0.00  0.00    +0.000 NA
ATOM      3  C   UNL     1       2.301   3.418  18.332  0.00  0.00    +0.000 A 
ATOM      4  C   UNL     1       1.127   2.818  18.804  0.00  0.00    +0.000 A 
ATOM      5  C   UNL     1       0.684   3.157  20.092  0.00  0.00    +0.000 A 
ATOM      6  C   UNL     1       1.393   4.069  20.886  0.00  0.00    +0.000 A 
ATOM      7  C   UNL     1       2.571   4.674  20.427  0.00  0.00    +0.000 A 
ATOM      8  C   UNL     1       2.975   4.310  19.149  0.00  0.00    +0.000 A 
ATOM      9  O   UNL     1       4.079   4.742  18.474  0.00  0.00    +0.000 OA
ENDROOT
BRANCH   1  15
ATOM     10 BR   UNL     1       6.049   3.425  12.366  0.00  0.00    +0.000 Br
ATOM     11  C   UNL     1       6.109   4.105  14.130  0.00  0.00    +0.000 A 
ATOM     12  C   UNL     1       7.187   4.894  14.528  0.00  0.00    +0.000 A 
ATOM     13  C   UNL     1       7.227   5.401  15.824  0.00  0.00    +0.000 A 
ATOM     14  C   UNL     1       6.187   5.120  16.713  0.00  0.00    +0.000 A 
ATOM     15  C   UNL     1       5.094   4.328  16.322  0.00  0.00    +0.000 A 
ATOM     16  C   UNL     1       5.069   3.817  15.017  0.00  0.00    +0.000 A 
ENDBRANCH   1  15
TORSDOF 1
ENDMDL
MODEL 3
REMARK VINA RESULT:      -7.2      1.030      1.069
REMARK  Name = 
REMARK  1 active torsions:
REMARK  status: ('A' for Active; 'I' for Inactive)
REMARK    1  A    between atoms: C_6  and  C_7
REMARK                            x       y       z     vdW  Elec       q    Type
REMARK                         _______ _______ _______ _____ _____    ______ ____
ROOT
ATOM      1  C   UNL     1       4.273   4.171  17.552  0.00  0.00    +0.000 A 
ATOM      2  N   UNL     1       4.282   4.608  18.800  0.00  0.00    +0.000 NA
ATOM      3  C   UNL     1       3.102   4.141  19.318  0.00  0.00    +0.000 A 
ATOM      4  C   UNL     1       2.533   4.286  20.590  0.00  0.00    +0.000 A 
ATOM      5  C   UNL     1       1.288   3.684  20.829  0.00  0.00    +0.000 A 
ATOM      6  C   UNL     1       0.630   2.957  19.826  0.00  0.00    +0.000 A 
ATOM      7  C   UNL     1       1.186   2.806  18.550  0.00  0.00    +0.000 A 
ATOM      8  C   UNL     1       2.418   3.419  18.355  0.00  0.00    +0.000 A 
ATOM      9  O   UNL     1       3.166   3.433  17.214  0.00  0.00    +0.000 OA
ENDROOT
BRANCH   1  15
ATOM     10 BR   UNL     1       5.830   3.434  12.485  0.00  0.00    +0.000 Br
ATOM     11  C   UNL     1       6.073   4.117  14.232  0.00  0.00    +0.000 A 
ATOM     12  C   UNL     1       7.207   4.872  14.524  0.00  0.00    +0.000 A 
ATOM     13  C   UNL     1       7.381   5.382  15.809  0.00  0.00    +0.000 A 
ATOM     14  C   UNL     1       6.419   5.139  16.791  0.00  0.00    +0.000 A 
ATOM     15  C   UNL     1       5.270   4.381  16.506  0.00  0.00    +0.000 A 
ATOM     16  C   UNL     1       5.110   3.866  15.212  0.00  0.00    +0.000 A 
ENDBRANCH   1  15
TORSDOF 1
ENDMDL
MODEL 4
REMARK VINA RESULT:      -7.2      0.896      1.514
REMARK  Name = 
REMARK  1 active torsions:
REMARK  status: ('A' for Active; 'I' for Inactive)
REMARK    1  A    between atoms: C_6  and  C_7
REMARK                            x       y       z     vdW  Elec       q    Type
REMARK                         _______ _______ _______ _____ _____    ______ ____
ROOT
ATOM      1  C   UNL     1       4.193   4.053  17.792  0.00  0.00    +0.000 A 
ATOM      2  N   UNL     1       2.905   4.349  17.774  0.00  0.00    +0.000 NA
ATOM      3  C   UNL     1       2.434   3.835  18.954  0.00  0.00    +0.000 A 
ATOM      4  C   UNL     1       1.146   3.819  19.504  0.00  0.00    +0.000 A 
ATOM      5  C   UNL     1       0.969   3.205  20.753  0.00  0.00    +0.000 A 
ATOM      6  C   UNL     1       2.048   2.626  21.436  0.00  0.00    +0.000 A 
ATOM      7  C   UNL     1       3.341   2.633  20.897  0.00  0.00    +0.000 A 
ATOM      8  C   UNL     1       3.473   3.247  19.659  0.00  0.00    +0.000 A 
ATOM      9  O   UNL     1       4.609   3.384  18.917  0.00  0.00    +0.000 OA
ENDROOT
BRANCH   1  15
ATOM     10 BR   UNL     1       5.916   3.509  12.754  0.00  0.00    +0.000 Br
ATOM     11  C   UNL     1       6.081   4.160  14.522  0.00  0.00    +0.000 A 
ATOM     12  C   UNL     1       7.171   4.958  14.863  0.00  0.00    +0.000 A 
ATOM     13  C   UNL     1       7.288   5.444  16.163  0.00  0.00    +0.000 A 
ATOM     14  C   UNL     1       6.312   5.134  17.112  0.00  0.00    +0.000 A 
ATOM     15  C   UNL     1       5.207   4.333  16.779  0.00  0.00    +0.000 A 
ATOM     16  C   UNL     1       5.104   3.842  15.469  0.00  0.00    +0.000 A 
ENDBRANCH   1  15
TORSDOF 1
ENDMDL
MODEL 5
REMARK VINA RESULT:      -6.6      1.956      2.523
REMARK  Name = 
REMARK  1 active torsions:
REMARK  status: ('A' for Active; 'I' for Inactive)
REMARK    1  A    between atoms: C_6  and  C_7
REMARK                            x       y       z     vdW  Elec       q    Type
REMARK                         _______ _______ _______ _____ _____    ______ ____
ROOT
ATOM      1  C   UNL     1       4.026   4.296  18.065  0.00  0.00    +0.000 A 
ATOM      2  N   UNL     1       2.903   3.806  17.570  0.00  0.00    +0.000 NA
ATOM      3  C   UNL     1       2.192   3.431  18.681  0.00  0.00    +0.000 A 
ATOM      4  C   UNL     1       0.931   2.836  18.811  0.00  0.00    +0.000 A 
ATOM      5  C   UNL     1       0.459   2.564  20.105  0.00  0.00    +0.000 A 
ATOM      6  C   UNL     1       1.223   2.880  21.237  0.00  0.00    +0.000 A 
ATOM      7  C   UNL     1       2.487   3.474  21.121  0.00  0.00    +0.000 A 
ATOM      8  C   UNL     1       2.918   3.723  19.824  0.00  0.00    +0.000 A 
ATOM      9  O   UNL     1       4.101   4.280  19.436  0.00  0.00    +0.000 OA
ENDROOT
BRANCH   1  15
ATOM     10 BR   UNL     1       7.819   8.047  17.625  0.00  0.00    +0.000 Br
ATOM     11  C   UNL     1       6.947   6.468  17.055  0.00  0.00    +0.000 A 
ATOM     12  C   UNL     1       7.434   5.772  15.950  0.00  0.00    +0.000 A 
ATOM     13  C   UNL     1       6.797   4.605  15.536  0.00  0.00    +0.000 A 
ATOM     14  C   UNL     1       5.679   4.139  16.231  0.00  0.00    +0.000 A 
ATOM     15  C   UNL     1       5.180   4.830  17.348  0.00  0.00    +0.000 A 
ATOM     16  C   UNL     1       5.826   6.008  17.751  0.00  0.00    +0.000 A 
ENDBRANCH   1  15
TORSDOF 1
ENDMDL
MODEL 6
REMARK VINA RESULT:      -6.6      3.215      6.177
REMARK  Name = 
REMARK  1 active torsions:
REMARK  status: ('A' for Active; 'I' for Inactive)
REMARK    1  A    between atoms: C_6  and  C_7
REMARK                            x       y       z     vdW  Elec       q    Type
REMARK                         _______ _______ _______ _____ _____    ______ ____
ROOT
ATOM      1  C   UNL     1       4.726   4.761  18.402  0.00  0.00    +0.000 A 
ATOM      2  N   UNL     1       4.737   5.726  17.499  0.00  0.00    +0.000 NA
ATOM      3  C   UNL     1       5.934   6.361  17.713  0.00  0.00    +0.000 A 
ATOM      4  C   UNL     1       6.514   7.469  17.082  0.00  0.00    +0.000 A 
ATOM      5  C   UNL     1       7.774   7.898  17.530  0.00  0.00    +0.000 A 
ATOM      6  C   UNL     1       8.435   7.238  18.575  0.00  0.00    +0.000 A 
ATOM      7  C   UNL     1       7.865   6.131  19.216  0.00  0.00    +0.000 A 
ATOM      8  C   UNL     1       6.617   5.740  18.745  0.00  0.00    +0.000 A 
ATOM      9  O   UNL     1       5.846   4.708  19.194  0.00  0.00    +0.000 OA
ENDROOT
BRANCH   1  15
ATOM     10 BR   UNL     1       1.350   2.460  21.860  0.00  0.00    +0.000 Br
ATOM     11  C   UNL     1       2.110   2.662  20.139  0.00  0.00    +0.000 A 
ATOM     12  C   UNL     1       1.645   1.879  19.085  0.00  0.00    +0.000 A 
ATOM     13  C   UNL     1       2.199   2.034  17.816  0.00  0.00    +0.000 A 
ATOM     14  C   UNL     1       3.211   2.974  17.609  0.00  0.00    +0.000 A 
ATOM     15  C   UNL     1       3.686   3.771  18.664  0.00  0.00    +0.000 A 
ATOM     16  C   UNL     1       3.126   3.600  19.939  0.00  0.00    +0.000 A 
ENDBRANCH   1  15
TORSDOF 1
ENDMDL
MODEL 7
REMARK VINA RESULT:      -6.5      1.762      2.124
REMARK  Name = 
REMARK  1 active torsions:
REMARK  status: ('A' for Active; 'I' for Inactive)
REMARK    1  A    between atoms: C_6  and  C_7
REMARK                            x       y       z     vdW  Elec       q    Type
REMARK                         _______ _______ _______ _____ _____    ______ ____
ROOT
ATOM      1  C   UNL     1       4.349   4.270  18.578  0.00  0.00    +0.000 A 
ATOM      2  N   UNL     1       4.508   3.718  19.768  0.00  0.00    +0.000 NA
ATOM      3  C   UNL     1       3.234   3.378  20.144  0.00  0.00    +0.000 A 
ATOM      4  C   UNL     1       2.748   2.772  21.309  0.00  0.00    +0.000 A 
ATOM      5  C   UNL     1       1.366   2.549  21.410  0.00  0.00    +0.000 A 
ATOM      6  C   UNL     1       0.494   2.919  20.376  0.00  0.00    +0.000 A 
ATOM      7  C   UNL     1       0.967   3.528  19.206  0.00  0.00    +0.000 A 
ATOM      8  C   UNL     1       2.339   3.733  19.148  0.00  0.00    +0.000 A 
ATOM      9  O   UNL     1       3.050   4.308  18.135  0.00  0.00    +0.000 OA
ENDROOT
BRANCH   1  15
ATOM     10 BR   UNL     1       7.924   8.133  17.606  0.00  0.00    +0.000 Br
ATOM     11  C   UNL     1       7.016   6.535  17.156  0.00  0.00    +0.000 A 
ATOM     12  C   UNL     1       7.344   5.865  15.979  0.00  0.00    +0.000 A 
ATOM     13  C   UNL     1       6.682   4.684  15.653  0.00  0.00    +0.000 A 
ATOM     14  C   UNL     1       5.699   4.179  16.507  0.00  0.00    +0.000 A 
ATOM     15  C   UNL     1       5.362   4.844  17.697  0.00  0.00    +0.000 A 
ATOM     16  C   UNL     1       6.031   6.037  18.011  0.00  0.00    +0.000 A 
ENDBRANCH   1  15
TORSDOF 1
ENDMDL
MODEL 8
REMARK VINA RESULT:      -6.5      4.335      5.127
REMARK  Name = 
REMARK  1 active torsions:
REMARK  status: ('A' for Active; 'I' for Inactive)
REMARK    1  A    between atoms: C_6  and  C_7
REMARK                            x       y       z     vdW  Elec       q    Type
REMARK                         _______ _______ _______ _____ _____    ______ ____
ROOT
ATOM      1  C   UNL     1       2.536   7.055  18.729  0.00  0.00    +0.000 A 
ATOM      2  N   UNL     1       2.193   8.191  18.147  0.00  0.00    +0.000 NA
ATOM      3  C   UNL     1       1.582   8.900  19.149  0.00  0.00    +0.000 A 
ATOM      4  C   UNL     1       0.994  10.171  19.151  0.00  0.00    +0.000 A 
ATOM      5  C   UNL     1       0.437  10.639  20.351  0.00  0.00    +0.000 A 
ATOM      6  C   UNL     1       0.469   9.861  21.517  0.00  0.00    +0.000 A 
ATOM      7  C   UNL     1       1.052   8.587  21.528  0.00  0.00    +0.000 A 
ATOM      8  C   UNL     1       1.589   8.161  20.320  0.00  0.00    +0.000 A 
ATOM      9  O   UNL     1       2.202   6.971  20.058  0.00  0.00    +0.000 OA
ENDROOT
BRANCH   1  15
ATOM     10 BR   UNL     1       7.056   4.719  17.066  0.00  0.00    +0.000 Br
ATOM     11  C   UNL     1       5.188   4.736  17.366  0.00  0.00    +0.000 A 
ATOM     12  C   UNL     1       4.432   3.607  17.060  0.00  0.00    +0.000 A 
ATOM     13  C   UNL     1       3.058   3.617  17.289  0.00  0.00    +0.000 A 
ATOM     14  C   UNL     1       2.450   4.753  17.827  0.00  0.00    +0.000 A 
ATOM     15  C   UNL     1       3.204   5.896  18.142  0.00  0.00    +0.000 A 
ATOM     16  C   UNL     1       4.585   5.877  17.900  0.00  0.00    +0.000 A 
ENDBRANCH   1  15
TORSDOF 1
ENDMDL
MODEL 9
REMARK VINA RESULT:      -6.5      5.088      6.813
REMARK  Name = 
REMARK  1 active torsions:
REMARK  status: ('A' for Active; 'I' for Inactive)
REMARK    1  A    between atoms: C_6  and  C_7
REMARK                            x       y       z     vdW  Elec       q    Type
REMARK                         _______ _______ _______ _____ _____    ______ ____
ROOT
ATOM      1  C   UNL     1       2.679   7.240  18.302  0.00  0.00    +0.000 A 
ATOM      2  N   UNL     1       2.536   5.932  18.436  0.00  0.00    +0.000 NA
ATOM      3  C   UNL     1       3.529   5.412  17.646  0.00  0.00    +0.000 A 
ATOM      4  C   UNL     1       3.883   4.087  17.365  0.00  0.00    +0.000 A 
ATOM      5  C   UNL     1       4.967   3.862  16.502  0.00  0.00    +0.000 A 
ATOM      6  C   UNL     1       5.678   4.931  15.937  0.00  0.00    +0.000 A 
ATOM      7  C   UNL     1       5.333   6.261  16.208  0.00  0.00    +0.000 A 
ATOM      8  C   UNL     1       4.254   6.440  17.065  0.00  0.00    +0.000 A 
ATOM      9  O   UNL     1       3.712   7.620  17.482  0.00  0.00    +0.000 OA
ENDROOT
BRANCH   1  15
ATOM     10 BR   UNL     1       0.363   9.367  22.633  0.00  0.00    +0.000 Br
ATOM     11  C   UNL     1       0.800   9.369  20.792  0.00  0.00    +0.000 A 
ATOM     12  C   UNL     1       0.389  10.431  19.988  0.00  0.00    +0.000 A 
ATOM     13  C   UNL     1       0.719  10.436  18.635  0.00  0.00    +0.000 A 
ATOM     14  C   UNL     1       1.460   9.383  18.095  0.00  0.00    +0.000 A 
ATOM     15  C   UNL     1       1.882   8.309  18.897  0.00  0.00    +0.000 A 
ATOM     16  C   UNL     1       1.537   8.311  20.257  0.00  0.00    +0.000 A 
ENDBRANCH   1  15
TORSDOF 1
ENDMDL
