MODEL 1
REMARK VINA RESULT:      -8.8      0.000      0.000
REMARK  Name = 
REMARK  11 active torsions:
REMARK  status: ('A' for Active; 'I' for Inactive)
REMARK    1  A    between atoms: C_2  and  O_3
REMARK    2  A    between atoms: C_2  and  C_4
REMARK    3  A    between atoms: C_4  and  O_5
REMARK    4  A    between atoms: C_6  and  C_7
REMARK    5  A    between atoms: C_7  and  C_9
REMARK    6  A    between atoms: C_13  and  C_14
REMARK    7  A    between atoms: C_14  and  N_15
REMARK    8  A    between atoms: N_15  and  C_16
REMARK    9  A    between atoms: N_15  and  C_23
REMARK   10  A    between atoms: C_16  and  C_17
REMARK   11  A    between atoms: C_23  and  C_24
REMARK                            x       y       z     vdW  Elec       q    Type
REMARK                         _______ _______ _______ _____ _____    ______ ____
ROOT
ATOM      1  C   UNL     1       6.694   5.325  15.867  0.00  0.00    +0.000 A 
ATOM      2  C   UNL     1       7.159   4.541  16.935  0.00  0.00    +0.000 A 
ATOM      3  C   UNL     1       6.727   4.782  18.239  0.00  0.00    +0.000 A 
ATOM      4  C   UNL     1       5.792   5.781  18.483  0.00  0.00    +0.000 A 
ATOM      5  C   UNL     1       5.309   6.575  17.432  0.00  0.00    +0.000 A 
ATOM      6  C   UNL     1       5.814   6.385  16.129  0.00  0.00    +0.000 A 
ENDROOT
BRANCH   1   7
ATOM      7  C   UNL     1       7.036   4.871  14.486  0.00  0.00    +0.000 C 
ATOM      8  O   UNL     1       7.974   5.389  13.890  0.00  0.00    +0.000 OA
BRANCH   7  10
ATOM      9  C   UNL     1       6.310   3.565  12.525  0.00  0.00    +0.000 C 
ATOM     10  C   UNL     1       6.198   3.827  13.836  0.00  0.00    +0.000 C 
BRANCH   9  12
ATOM     11  O   UNL     1       4.308   3.040  11.400  0.00  0.00    +0.000 OA
ATOM     12  C   UNL     1       5.399   2.641  11.791  0.00  0.00    +0.000 C 
BRANCH  12  13
ATOM     13  O   UNL     1       5.858   1.404  11.541  0.00  0.00    +0.000 OA
ATOM     14  H   UNL     1       5.702   1.076  10.641  0.00  0.00    +0.000 HD
ENDBRANCH  12  13
ENDBRANCH   9  12
BRANCH   9  15
ATOM     15  O   UNL     1       7.259   4.204  11.733  0.00  0.00    +0.000 OA
ATOM     16  H   UNL     1       7.959   3.541  11.560  0.00  0.00    +0.000 HD
ENDBRANCH   9  15
ENDBRANCH   7  10
ENDBRANCH   1   7
BRANCH   5  17
ATOM     17  C   UNL     1       4.138   7.509  17.682  0.00  0.00    +0.000 C 
BRANCH  17  18
ATOM     18  N   UNL     1       2.985   6.849  18.310  0.00  0.00    +0.000 NA
BRANCH  18  19
ATOM     19  C   UNL     1       1.741   7.626  18.406  0.00  0.00    +0.000 C 
BRANCH  19  20
ATOM     20  C   UNL     1       1.418   8.492  19.615  0.00  0.00    +0.000 A 
ATOM     21  C   UNL     1       1.392   8.085  20.955  0.00  0.00    +0.000 A 
ATOM     22  C   UNL     1       0.969   8.959  21.964  0.00  0.00    +0.000 A 
ATOM     23  C   UNL     1       0.548  10.248  21.649  0.00  0.00    +0.000 A 
ATOM     24  C   UNL     1       0.620  10.691  20.334  0.00  0.00    +0.000 A 
ATOM     25  C   UNL     1       1.076   9.830  19.336  0.00  0.00    +0.000 A 
ENDBRANCH  19  20
ENDBRANCH  18  19
BRANCH  18  26
ATOM     26  C   UNL     1       2.729   5.475  17.861  0.00  0.00    +0.000 C 
BRANCH  26  27
ATOM     27  C   UNL     1       2.238   4.570  18.964  0.00  0.00    +0.000 A 
ATOM     28  C   UNL     1       1.288   3.574  18.705  0.00  0.00    +0.000 A 
ATOM     29  C   UNL     1       0.791   2.790  19.738  0.00  0.00    +0.000 A 
ATOM     30  C   UNL     1       1.246   2.991  21.044  0.00  0.00    +0.000 A 
ATOM     31  C   UNL     1       2.199   3.967  21.314  0.00  0.00    +0.000 A 
ATOM     32  C   UNL     1       2.695   4.757  20.278  0.00  0.00    +0.000 A 
ENDBRANCH  26  27
ENDBRANCH  18  26
ENDBRANCH  17  18
ENDBRANCH   5  17
TORSDOF 11
ENDMDL
MODEL 2
REMARK VINA RESULT:      -8.7      1.196      1.892
REMARK  Name = 
REMARK  11 active torsions:
REMARK  status: ('A' for Active; 'I' for Inactive)
REMARK    1  A    between atoms: C_2  and  O_3
REMARK    2  A    between atoms: C_2  and  C_4
REMARK    3  A    between atoms: C_4  and  O_5
REMARK    4  A    between atoms: C_6  and  C_7
REMARK    5  A    between atoms: C_7  and  C_9
REMARK    6  A    between atoms: C_13  and  C_14
REMARK    7  A    between atoms: C_14  and  N_15
REMARK    8  A    between atoms: N_15  and  C_16
REMARK    9  A    between atoms: N_15  and  C_23
REMARK   10  A    between atoms: C_16  and  C_17
REMARK   11  A    between atoms: C_23  and  C_24
REMARK                            x       y       z     vdW  Elec       q    Type
REMARK                         _______ _______ _______ _____ _____    ______ ____
ROOT
ATOM      1  C   UNL     1       6.517   5.304  15.954  0.00  0.00    +0.000 A 
ATOM      2  C   UNL     1       7.120   4.639  17.034  0.00  0.00    +0.000 A 
ATOM      3  C   UNL     1       6.669   4.842  18.338  0.00  0.00    +0.000 A 
ATOM      4  C   UNL     1       5.582   5.677  18.571  0.00  0.00    +0.000 A 
ATOM      5  C   UNL     1       4.961   6.348  17.508  0.00  0.00    +0.000 A 
ATOM      6  C   UNL     1       5.475   6.209  16.202  0.00  0.00    +0.000 A 
ENDROOT
BRANCH   1   7
ATOM      7  C   UNL     1       6.915   4.875  14.579  0.00  0.00    +0.000 C 
ATOM      8  O   UNL     1       7.895   5.380  14.043  0.00  0.00    +0.000 OA
BRANCH   7  10
ATOM      9  C   UNL     1       6.243   3.648  12.549  0.00  0.00    +0.000 C 
ATOM     10  C   UNL     1       6.082   3.871  13.863  0.00  0.00    +0.000 C 
BRANCH   9  12
ATOM     11  O   UNL     1       5.697   1.632  11.460  0.00  0.00    +0.000 OA
ATOM     12  C   UNL     1       5.343   2.768  11.750  0.00  0.00    +0.000 C 
BRANCH  12  13
ATOM     13  O   UNL     1       4.135   3.261  11.431  0.00  0.00    +0.000 OA
ATOM     14  H   UNL     1       3.610   3.591  12.177  0.00  0.00    +0.000 HD
ENDBRANCH  12  13
ENDBRANCH   9  12
BRANCH   9  15
ATOM     15  O   UNL     1       7.237   4.290  11.818  0.00  0.00    +0.000 OA
ATOM     16  H   UNL     1       7.890   3.598  11.582  0.00  0.00    +0.000 HD
ENDBRANCH   9  15
ENDBRANCH   7  10
ENDBRANCH   1   7
BRANCH   5  17
ATOM     17  C   UNL     1       3.652   7.080  17.752  0.00  0.00    +0.000 C 
BRANCH  17  18
ATOM     18  N   UNL     1       2.893   6.557  18.896  0.00  0.00    +0.000 NA
BRANCH  18  19
ATOM     19  C   UNL     1       2.385   7.539  19.865  0.00  0.00    +0.000 C 
BRANCH  19  20
ATOM     20  C   UNL     1       1.371   8.606  19.481  0.00  0.00    +0.000 A 
ATOM     21  C   UNL     1       1.203   9.186  18.217  0.00  0.00    +0.000 A 
ATOM     22  C   UNL     1       0.302  10.242  18.025  0.00  0.00    +0.000 A 
ATOM     23  C   UNL     1      -0.431  10.746  19.094  0.00  0.00    +0.000 A 
ATOM     24  C   UNL     1      -0.323  10.148  20.343  0.00  0.00    +0.000 A 
ATOM     25  C   UNL     1       0.548   9.073  20.525  0.00  0.00    +0.000 A 
ENDBRANCH  19  20
ENDBRANCH  18  19
BRANCH  18  26
ATOM     26  C   UNL     1       1.876   5.550  18.566  0.00  0.00    +0.000 C 
BRANCH  26  27
ATOM     27  C   UNL     1       2.411   4.139  18.576  0.00  0.00    +0.000 A 
ATOM     28  C   UNL     1       2.838   3.543  19.769  0.00  0.00    +0.000 A 
ATOM     29  C   UNL     1       3.391   2.269  19.760  0.00  0.00    +0.000 A 
ATOM     30  C   UNL     1       3.516   1.574  18.554  0.00  0.00    +0.000 A 
ATOM     31  C   UNL     1       3.084   2.148  17.363  0.00  0.00    +0.000 A 
ATOM     32  C   UNL     1       2.532   3.429  17.372  0.00  0.00    +0.000 A 
ENDBRANCH  26  27
ENDBRANCH  18  26
ENDBRANCH  17  18
ENDBRANCH   5  17
TORSDOF 11
ENDMDL
MODEL 3
REMARK VINA RESULT:      -8.6      5.323      8.727
REMARK  Name = 
REMARK  11 active torsions:
REMARK  status: ('A' for Active; 'I' for Inactive)
REMARK    1  A    between atoms: C_2  and  O_3
REMARK    2  A    between atoms: C_2  and  C_4
REMARK    3  A    between atoms: C_4  and  O_5
REMARK    4  A    between atoms: C_6  and  C_7
REMARK    5  A    between atoms: C_7  and  C_9
REMARK    6  A    between atoms: C_13  and  C_14
REMARK    7  A    between atoms: C_14  and  N_15
REMARK    8  A    between atoms: N_15  and  C_16
REMARK    9  A    between atoms: N_15  and  C_23
REMARK   10  A    between atoms: C_16  and  C_17
REMARK   11  A    between atoms: C_23  and  C_24
REMARK                            x       y       z     vdW  Elec       q    Type
REMARK                         _______ _______ _______ _____ _____    ______ ____
ROOT
ATOM      1  C   UNL     1       0.979   8.985  19.959  0.00  0.00    +0.000 A 
ATOM      2  C   UNL     1       0.996   9.730  18.769  0.00  0.00    +0.000 A 
ATOM      3  C   UNL     1       1.832   9.370  17.714  0.00  0.00    +0.000 A 
ATOM      4  C   UNL     1       2.628   8.235  17.819  0.00  0.00    +0.000 A 
ATOM      5  C   UNL     1       2.625   7.472  18.995  0.00  0.00    +0.000 A 
ATOM      6  C   UNL     1       1.844   7.889  20.092  0.00  0.00    +0.000 A 
ENDROOT
BRANCH   1   7
ATOM      7  C   UNL     1      -0.090   9.307  20.953  0.00  0.00    +0.000 C 
ATOM      8  O   UNL     1      -0.582   8.411  21.629  0.00  0.00    +0.000 OA
BRANCH   7  10
ATOM      9  C   UNL     1      -0.698  11.302  22.266  0.00  0.00    +0.000 C 
ATOM     10  C   UNL     1      -0.574  10.709  21.069  0.00  0.00    +0.000 C 
BRANCH   9  12
ATOM     11  O   UNL     1      -2.020  13.125  21.578  0.00  0.00    +0.000 OA
ATOM     12  C   UNL     1      -1.315  12.646  22.457  0.00  0.00    +0.000 C 
BRANCH  12  13
ATOM     13  O   UNL     1      -1.107  13.250  23.639  0.00  0.00    +0.000 OA
ATOM     14  H   UNL     1      -1.853  13.221  24.258  0.00  0.00    +0.000 HD
ENDBRANCH  12  13
ENDBRANCH   9  12
BRANCH   9  15
ATOM     15  O   UNL     1      -0.314  10.661  23.440  0.00  0.00    +0.000 OA
ATOM     16  H   UNL     1      -1.135  10.288  23.826  0.00  0.00    +0.000 HD
ENDBRANCH   9  15
ENDBRANCH   7  10
ENDBRANCH   1   7
BRANCH   5  17
ATOM     17  C   UNL     1       3.331   6.127  19.012  0.00  0.00    +0.000 C 
BRANCH  17  18
ATOM     18  N   UNL     1       3.271   5.417  17.726  0.00  0.00    +0.000 NA
BRANCH  18  19
ATOM     19  C   UNL     1       4.526   5.301  16.970  0.00  0.00    +0.000 C 
BRANCH  19  20
ATOM     20  C   UNL     1       5.856   5.784  17.529  0.00  0.00    +0.000 A 
ATOM     21  C   UNL     1       6.629   5.157  18.515  0.00  0.00    +0.000 A 
ATOM     22  C   UNL     1       7.784   5.768  19.020  0.00  0.00    +0.000 A 
ATOM     23  C   UNL     1       8.175   7.022  18.562  0.00  0.00    +0.000 A 
ATOM     24  C   UNL     1       7.456   7.636  17.544  0.00  0.00    +0.000 A 
ATOM     25  C   UNL     1       6.327   7.009  17.017  0.00  0.00    +0.000 A 
ENDBRANCH  19  20
ENDBRANCH  18  19
BRANCH  18  26
ATOM     26  C   UNL     1       2.533   4.149  17.745  0.00  0.00    +0.000 C 
BRANCH  26  27
ATOM     27  C   UNL     1       2.361   3.580  19.132  0.00  0.00    +0.000 A 
ATOM     28  C   UNL     1       3.431   2.962  19.791  0.00  0.00    +0.000 A 
ATOM     29  C   UNL     1       3.247   2.381  21.039  0.00  0.00    +0.000 A 
ATOM     30  C   UNL     1       1.989   2.419  21.645  0.00  0.00    +0.000 A 
ATOM     31  C   UNL     1       0.920   3.042  21.009  0.00  0.00    +0.000 A 
ATOM     32  C   UNL     1       1.104   3.621  19.754  0.00  0.00    +0.000 A 
ENDBRANCH  26  27
ENDBRANCH  18  26
ENDBRANCH  17  18
ENDBRANCH   5  17
TORSDOF 11
ENDMDL
MODEL 4
REMARK VINA RESULT:      -8.5      0.898      1.450
REMARK  Name = 
REMARK  11 active torsions:
REMARK  status: ('A' for Active; 'I' for Inactive)
REMARK    1  A    between atoms: C_2  and  O_3
REMARK    2  A    between atoms: C_2  and  C_4
REMARK    3  A    between atoms: C_4  and  O_5
REMARK    4  A    between atoms: C_6  and  C_7
REMARK    5  A    between atoms: C_7  and  C_9
REMARK    6  A    between atoms: C_13  and  C_14
REMARK    7  A    between atoms: C_14  and  N_15
REMARK    8  A    between atoms: N_15  and  C_16
REMARK    9  A    between atoms: N_15  and  C_23
REMARK   10  A    between atoms: C_16  and  C_17
REMARK   11  A    between atoms: C_23  and  C_24
REMARK                            x       y       z     vdW  Elec       q    Type
REMARK                         _______ _______ _______ _____ _____    ______ ____
ROOT
ATOM      1  C   UNL     1       6.636   5.323  15.837  0.00  0.00    +0.000 A 
ATOM      2  C   UNL     1       7.313   4.779  16.940  0.00  0.00    +0.000 A 
ATOM      3  C   UNL     1       6.879   5.031  18.241  0.00  0.00    +0.000 A 
ATOM      4  C   UNL     1       5.737   5.795  18.451  0.00  0.00    +0.000 A 
ATOM      5  C   UNL     1       5.040   6.346  17.366  0.00  0.00    +0.000 A 
ATOM      6  C   UNL     1       5.533   6.160  16.058  0.00  0.00    +0.000 A 
ENDROOT
BRANCH   1   7
ATOM      7  C   UNL     1       7.033   4.836  14.482  0.00  0.00    +0.000 C 
ATOM      8  O   UNL     1       7.996   5.337  13.914  0.00  0.00    +0.000 OA
BRANCH   7  10
ATOM      9  C   UNL     1       6.302   3.563  12.501  0.00  0.00    +0.000 C 
ATOM     10  C   UNL     1       6.218   3.779  13.823  0.00  0.00    +0.000 C 
BRANCH   9  12
ATOM     11  O   UNL     1       4.320   3.012  11.355  0.00  0.00    +0.000 OA
ATOM     12  C   UNL     1       5.407   2.625  11.764  0.00  0.00    +0.000 C 
BRANCH  12  13
ATOM     13  O   UNL     1       5.879   1.389  11.531  0.00  0.00    +0.000 OA
ATOM     14  H   UNL     1       6.207   0.915  12.312  0.00  0.00    +0.000 HD
ENDBRANCH  12  13
ENDBRANCH   9  12
BRANCH   9  15
ATOM     15  O   UNL     1       7.202   4.264  11.705  0.00  0.00    +0.000 OA
ATOM     16  H   UNL     1       7.341   3.715  10.904  0.00  0.00    +0.000 HD
ENDBRANCH   9  15
ENDBRANCH   7  10
ENDBRANCH   1   7
BRANCH   5  17
ATOM     17  C   UNL     1       3.685   6.990  17.601  0.00  0.00    +0.000 C 
BRANCH  17  18
ATOM     18  N   UNL     1       3.041   6.563  18.851  0.00  0.00    +0.000 NA
BRANCH  18  19
ATOM     19  C   UNL     1       2.623   7.621  19.782  0.00  0.00    +0.000 C 
BRANCH  19  20
ATOM     20  C   UNL     1       1.456   8.549  19.481  0.00  0.00    +0.000 A 
ATOM     21  C   UNL     1       1.135   9.119  18.242  0.00  0.00    +0.000 A 
ATOM     22  C   UNL     1       0.094  10.048  18.126  0.00  0.00    +0.000 A 
ATOM     23  C   UNL     1      -0.632  10.437  19.247  0.00  0.00    +0.000 A 
ATOM     24  C   UNL     1      -0.369   9.842  20.475  0.00  0.00    +0.000 A 
ATOM     25  C   UNL     1       0.644   8.890  20.581  0.00  0.00    +0.000 A 
ENDBRANCH  19  20
ENDBRANCH  18  19
BRANCH  18  26
ATOM     26  C   UNL     1       2.003   5.535  18.701  0.00  0.00    +0.000 C 
BRANCH  26  27
ATOM     27  C   UNL     1       2.134   4.408  19.696  0.00  0.00    +0.000 A 
ATOM     28  C   UNL     1       3.328   3.686  19.809  0.00  0.00    +0.000 A 
ATOM     29  C   UNL     1       3.417   2.607  20.679  0.00  0.00    +0.000 A 
ATOM     30  C   UNL     1       2.311   2.243  21.452  0.00  0.00    +0.000 A 
ATOM     31  C   UNL     1       1.123   2.959  21.360  0.00  0.00    +0.000 A 
ATOM     32  C   UNL     1       1.032   4.040  20.484  0.00  0.00    +0.000 A 
ENDBRANCH  26  27
ENDBRANCH  18  26
ENDBRANCH  17  18
ENDBRANCH   5  17
TORSDOF 11
ENDMDL
MODEL 5
REMARK VINA RESULT:      -8.5      1.270      1.708
REMARK  Name = 
REMARK  11 active torsions:
REMARK  status: ('A' for Active; 'I' for Inactive)
REMARK    1  A    between atoms: C_2  and  O_3
REMARK    2  A    between atoms: C_2  and  C_4
REMARK    3  A    between atoms: C_4  and  O_5
REMARK    4  A    between atoms: C_6  and  C_7
REMARK    5  A    between atoms: C_7  and  C_9
REMARK    6  A    between atoms: C_13  and  C_14
REMARK    7  A    between atoms: C_14  and  N_15
REMARK    8  A    between atoms: N_15  and  C_16
REMARK    9  A    between atoms: N_15  and  C_23
REMARK   10  A    between atoms: C_16  and  C_17
REMARK   11  A    between atoms: C_23  and  C_24
REMARK                            x       y       z     vdW  Elec       q    Type
REMARK                         _______ _______ _______ _____ _____    ______ ____
ROOT
ATOM      1  C   UNL     1       6.424   5.401  16.061  0.00  0.00    +0.000 A 
ATOM      2  C   UNL     1       7.201   4.962  17.146  0.00  0.00    +0.000 A 
ATOM      3  C   UNL     1       6.775   5.167  18.457  0.00  0.00    +0.000 A 
ATOM      4  C   UNL     1       5.548   5.775  18.698  0.00  0.00    +0.000 A 
ATOM      5  C   UNL     1       4.753   6.218  17.632  0.00  0.00    +0.000 A 
ATOM      6  C   UNL     1       5.227   6.087  16.310  0.00  0.00    +0.000 A 
ENDROOT
BRANCH   1   7
ATOM      7  C   UNL     1       6.842   4.958  14.697  0.00  0.00    +0.000 C 
ATOM      8  O   UNL     1       7.827   5.461  14.169  0.00  0.00    +0.000 OA
BRANCH   7  10
ATOM      9  C   UNL     1       6.231   3.675  12.682  0.00  0.00    +0.000 C 
ATOM     10  C   UNL     1       6.023   3.943  13.981  0.00  0.00    +0.000 C 
BRANCH   9  12
ATOM     11  O   UNL     1       4.276   3.197  11.459  0.00  0.00    +0.000 OA
ATOM     12  C   UNL     1       5.350   2.782  11.877  0.00  0.00    +0.000 C 
BRANCH  12  13
ATOM     13  O   UNL     1       5.819   1.555  11.596  0.00  0.00    +0.000 OA
ATOM     14  H   UNL     1       6.375   1.155  12.283  0.00  0.00    +0.000 HD
ENDBRANCH  12  13
ENDBRANCH   9  12
BRANCH   9  15
ATOM     15  O   UNL     1       7.262   4.280  11.970  0.00  0.00    +0.000 OA
ATOM     16  H   UNL     1       6.953   4.337  11.042  0.00  0.00    +0.000 HD
ENDBRANCH   9  15
ENDBRANCH   7  10
ENDBRANCH   1   7
BRANCH   5  17
ATOM     17  C   UNL     1       3.331   6.680  17.904  0.00  0.00    +0.000 C 
BRANCH  17  18
ATOM     18  N   UNL     1       2.855   6.345  19.254  0.00  0.00    +0.000 NA
BRANCH  18  19
ATOM     19  C   UNL     1       2.412   7.462  20.100  0.00  0.00    +0.000 C 
BRANCH  19  20
ATOM     20  C   UNL     1       1.484   8.552  19.583  0.00  0.00    +0.000 A 
ATOM     21  C   UNL     1       1.441   9.068  18.282  0.00  0.00    +0.000 A 
ATOM     22  C   UNL     1       0.612  10.152  17.966  0.00  0.00    +0.000 A 
ATOM     23  C   UNL     1      -0.174  10.748  18.947  0.00  0.00    +0.000 A 
ATOM     24  C   UNL     1      -0.190  10.215  20.230  0.00  0.00    +0.000 A 
ATOM     25  C   UNL     1       0.609   9.113  20.534  0.00  0.00    +0.000 A 
ENDBRANCH  19  20
ENDBRANCH  18  19
BRANCH  18  26
ATOM     26  C   UNL     1       1.926   5.211  19.326  0.00  0.00    +0.000 C 
BRANCH  26  27
ATOM     27  C   UNL     1       2.572   3.889  18.993  0.00  0.00    +0.000 A 
ATOM     28  C   UNL     1       2.255   3.215  17.807  0.00  0.00    +0.000 A 
ATOM     29  C   UNL     1       2.803   1.967  17.540  0.00  0.00    +0.000 A 
ATOM     30  C   UNL     1       3.681   1.383  18.456  0.00  0.00    +0.000 A 
ATOM     31  C   UNL     1       4.016   2.046  19.632  0.00  0.00    +0.000 A 
ATOM     32  C   UNL     1       3.463   3.298  19.902  0.00  0.00    +0.000 A 
ENDBRANCH  26  27
ENDBRANCH  18  26
ENDBRANCH  17  18
ENDBRANCH   5  17
TORSDOF 11
ENDMDL
MODEL 6
REMARK VINA RESULT:      -8.3      0.664      4.031
REMARK  Name = 
REMARK  11 active torsions:
REMARK  status: ('A' for Active; 'I' for Inactive)
REMARK    1  A    between atoms: C_2  and  O_3
REMARK    2  A    between atoms: C_2  and  C_4
REMARK    3  A    between atoms: C_4  and  O_5
REMARK    4  A    between atoms: C_6  and  C_7
REMARK    5  A    between atoms: C_7  and  C_9
REMARK    6  A    between atoms: C_13  and  C_14
REMARK    7  A    between atoms: C_14  and  N_15
REMARK    8  A    between atoms: N_15  and  C_16
REMARK    9  A    between atoms: N_15  and  C_23
REMARK   10  A    between atoms: C_16  and  C_17
REMARK   11  A    between atoms: C_23  and  C_24
REMARK                            x       y       z     vdW  Elec       q    Type
REMARK                         _______ _______ _______ _____ _____    ______ ____
ROOT
ATOM      1  C   UNL     1       6.646   5.291  15.776  0.00  0.00    +0.000 A 
ATOM      2  C   UNL     1       7.166   4.547  16.847  0.00  0.00    +0.000 A 
ATOM      3  C   UNL     1       6.741   4.785  18.154  0.00  0.00    +0.000 A 
ATOM      4  C   UNL     1       5.759   5.739  18.398  0.00  0.00    +0.000 A 
ATOM      5  C   UNL     1       5.222   6.491  17.343  0.00  0.00    +0.000 A 
ATOM      6  C   UNL     1       5.717   6.308  16.036  0.00  0.00    +0.000 A 
ENDROOT
BRANCH   1   7
ATOM      7  C   UNL     1       6.992   4.835  14.396  0.00  0.00    +0.000 C 
ATOM      8  O   UNL     1       7.944   5.337  13.809  0.00  0.00    +0.000 OA
BRANCH   7  10
ATOM      9  C   UNL     1       6.276   3.529  12.430  0.00  0.00    +0.000 C 
ATOM     10  C   UNL     1       6.140   3.808  13.736  0.00  0.00    +0.000 C 
BRANCH   9  12
ATOM     11  O   UNL     1       5.731   1.502  11.362  0.00  0.00    +0.000 OA
ATOM     12  C   UNL     1       5.357   2.623  11.684  0.00  0.00    +0.000 C 
BRANCH  12  13
ATOM     13  O   UNL     1       4.114   3.075  11.449  0.00  0.00    +0.000 OA
ATOM     14  H   UNL     1       3.983   4.026  11.592  0.00  0.00    +0.000 HD
ENDBRANCH  12  13
ENDBRANCH   9  12
BRANCH   9  15
ATOM     15  O   UNL     1       7.262   4.133  11.656  0.00  0.00    +0.000 OA
ATOM     16  H   UNL     1       8.050   3.553  11.719  0.00  0.00    +0.000 HD
ENDBRANCH   9  15
ENDBRANCH   7  10
ENDBRANCH   1   7
BRANCH   5  17
ATOM     17  C   UNL     1       4.007   7.368  17.598  0.00  0.00    +0.000 C 
BRANCH  17  18
ATOM     18  N   UNL     1       2.861   6.635  18.152  0.00  0.00    +0.000 NA
BRANCH  18  19
ATOM     19  C   UNL     1       2.818   5.185  17.916  0.00  0.00    +0.000 C 
BRANCH  19  20
ATOM     20  C   UNL     1       2.426   4.198  19.005  0.00  0.00    +0.000 A 
ATOM     21  C   UNL     1       1.125   3.826  19.371  0.00  0.00    +0.000 A 
ATOM     22  C   UNL     1       0.899   2.988  20.470  0.00  0.00    +0.000 A 
ATOM     23  C   UNL     1       1.966   2.522  21.232  0.00  0.00    +0.000 A 
ATOM     24  C   UNL     1       3.267   2.831  20.854  0.00  0.00    +0.000 A 
ATOM     25  C   UNL     1       3.491   3.637  19.737  0.00  0.00    +0.000 A 
ENDBRANCH  19  20
ENDBRANCH  18  19
BRANCH  18  26
ATOM     26  C   UNL     1       2.519   6.965  19.541  0.00  0.00    +0.000 C 
BRANCH  26  27
ATOM     27  C   UNL     1       1.640   8.186  19.664  0.00  0.00    +0.000 A 
ATOM     28  C   UNL     1       1.314   8.951  18.537  0.00  0.00    +0.000 A 
ATOM     29  C   UNL     1       0.560  10.110  18.669  0.00  0.00    +0.000 A 
ATOM     30  C   UNL     1       0.119  10.513  19.932  0.00  0.00    +0.000 A 
ATOM     31  C   UNL     1       0.424   9.756  21.058  0.00  0.00    +0.000 A 
ATOM     32  C   UNL     1       1.183   8.594  20.927  0.00  0.00    +0.000 A 
ENDBRANCH  26  27
ENDBRANCH  18  26
ENDBRANCH  17  18
ENDBRANCH   5  17
TORSDOF 11
ENDMDL
MODEL 7
REMARK VINA RESULT:      -8.2      0.786      4.180
REMARK  Name = 
REMARK  11 active torsions:
REMARK  status: ('A' for Active; 'I' for Inactive)
REMARK    1  A    between atoms: C_2  and  O_3
REMARK    2  A    between atoms: C_2  and  C_4
REMARK    3  A    between atoms: C_4  and  O_5
REMARK    4  A    between atoms: C_6  and  C_7
REMARK    5  A    between atoms: C_7  and  C_9
REMARK    6  A    between atoms: C_13  and  C_14
REMARK    7  A    between atoms: C_14  and  N_15
REMARK    8  A    between atoms: N_15  and  C_16
REMARK    9  A    between atoms: N_15  and  C_23
REMARK   10  A    between atoms: C_16  and  C_17
REMARK   11  A    between atoms: C_23  and  C_24
REMARK                            x       y       z     vdW  Elec       q    Type
REMARK                         _______ _______ _______ _____ _____    ______ ____
ROOT
ATOM      1  C   UNL     1       6.461   5.300  15.996  0.00  0.00    +0.000 A 
ATOM      2  C   UNL     1       6.714   4.395  17.039  0.00  0.00    +0.000 A 
ATOM      3  C   UNL     1       6.193   4.612  18.314  0.00  0.00    +0.000 A 
ATOM      4  C   UNL     1       5.378   5.713  18.549  0.00  0.00    +0.000 A 
ATOM      5  C   UNL     1       5.107   6.628  17.522  0.00  0.00    +0.000 A 
ATOM      6  C   UNL     1       5.706   6.452  16.258  0.00  0.00    +0.000 A 
ENDROOT
BRANCH   1   7
ATOM      7  C   UNL     1       6.872   4.890  14.620  0.00  0.00    +0.000 C 
ATOM      8  O   UNL     1       7.817   5.449  14.075  0.00  0.00    +0.000 OA
BRANCH   7  10
ATOM      9  C   UNL     1       6.266   3.611  12.601  0.00  0.00    +0.000 C 
ATOM     10  C   UNL     1       6.093   3.838  13.912  0.00  0.00    +0.000 C 
BRANCH   9  12
ATOM     11  O   UNL     1       4.343   3.064  11.356  0.00  0.00    +0.000 OA
ATOM     12  C   UNL     1       5.413   2.679  11.809  0.00  0.00    +0.000 C 
BRANCH  12  13
ATOM     13  O   UNL     1       5.905   1.450  11.580  0.00  0.00    +0.000 OA
ATOM     14  H   UNL     1       6.701   1.417  11.026  0.00  0.00    +0.000 HD
ENDBRANCH  12  13
ENDBRANCH   9  12
BRANCH   9  15
ATOM     15  O   UNL     1       7.226   4.297  11.864  0.00  0.00    +0.000 OA
ATOM     16  H   UNL     1       6.849   4.411  10.966  0.00  0.00    +0.000 HD
ENDBRANCH   9  15
ENDBRANCH   7  10
ENDBRANCH   1   7
BRANCH   5  17
ATOM     17  C   UNL     1       4.049   7.698  17.738  0.00  0.00    +0.000 C 
BRANCH  17  18
ATOM     18  N   UNL     1       2.723   7.153  18.062  0.00  0.00    +0.000 NA
BRANCH  18  19
ATOM     19  C   UNL     1       2.544   6.587  19.406  0.00  0.00    +0.000 C 
BRANCH  19  20
ATOM     20  C   UNL     1       1.989   5.188  19.628  0.00  0.00    +0.000 A 
ATOM     21  C   UNL     1       1.676   4.596  20.859  0.00  0.00    +0.000 A 
ATOM     22  C   UNL     1       1.275   3.256  20.931  0.00  0.00    +0.000 A 
ATOM     23  C   UNL     1       1.196   2.481  19.777  0.00  0.00    +0.000 A 
ATOM     24  C   UNL     1       1.446   3.063  18.541  0.00  0.00    +0.000 A 
ATOM     25  C   UNL     1       1.810   4.408  18.469  0.00  0.00    +0.000 A 
ENDBRANCH  19  20
ENDBRANCH  18  19
BRANCH  18  26
ATOM     26  C   UNL     1       1.587   8.001  17.678  0.00  0.00    +0.000 C 
BRANCH  26  27
ATOM     27  C   UNL     1       1.497   9.274  18.482  0.00  0.00    +0.000 A 
ATOM     28  C   UNL     1       0.886   9.284  19.743  0.00  0.00    +0.000 A 
ATOM     29  C   UNL     1       0.747  10.473  20.447  0.00  0.00    +0.000 A 
ATOM     30  C   UNL     1       1.223  11.666  19.898  0.00  0.00    +0.000 A 
ATOM     31  C   UNL     1       1.843  11.670  18.653  0.00  0.00    +0.000 A 
ATOM     32  C   UNL     1       1.980  10.477  17.944  0.00  0.00    +0.000 A 
ENDBRANCH  26  27
ENDBRANCH  18  26
ENDBRANCH  17  18
ENDBRANCH   5  17
TORSDOF 11
ENDMDL
MODEL 8
REMARK VINA RESULT:      -8.2      4.765      7.998
REMARK  Name = 
REMARK  11 active torsions:
REMARK  status: ('A' for Active; 'I' for Inactive)
REMARK    1  A    between atoms: C_2  and  O_3
REMARK    2  A    between atoms: C_2  and  C_4
REMARK    3  A    between atoms: C_4  and  O_5
REMARK    4  A    between atoms: C_6  and  C_7
REMARK    5  A    between atoms: C_7  and  C_9
REMARK    6  A    between atoms: C_13  and  C_14
REMARK    7  A    between atoms: C_14  and  N_15
REMARK    8  A    between atoms: N_15  and  C_16
REMARK    9  A    between atoms: N_15  and  C_23
REMARK   10  A    between atoms: C_16  and  C_17
REMARK   11  A    between atoms: C_23  and  C_24
REMARK                            x       y       z     vdW  Elec       q    Type
REMARK                         _______ _______ _______ _____ _____    ______ ____
ROOT
ATOM      1  C   UNL     1      -0.883   9.971  18.221  0.00  0.00    +0.000 A 
ATOM      2  C   UNL     1      -0.774  10.487  19.522  0.00  0.00    +0.000 A 
ATOM      3  C   UNL     1       0.369  10.260  20.287  0.00  0.00    +0.000 A 
ATOM      4  C   UNL     1       1.434   9.551  19.743  0.00  0.00    +0.000 A 
ATOM      5  C   UNL     1       1.352   9.030  18.444  0.00  0.00    +0.000 A 
ATOM      6  C   UNL     1       0.160   9.188  17.706  0.00  0.00    +0.000 A 
ENDROOT
BRANCH   1   7
ATOM      7  C   UNL     1      -2.039  10.435  17.396  0.00  0.00    +0.000 C 
ATOM      8  O   UNL     1      -2.821  11.260  17.854  0.00  0.00    +0.000 OA
BRANCH   7  10
ATOM      9  C   UNL     1      -2.952  10.500  15.107  0.00  0.00    +0.000 C 
ATOM     10  C   UNL     1      -2.249   9.847  16.045  0.00  0.00    +0.000 C 
BRANCH   9  12
ATOM     11  O   UNL     1      -4.499   9.702  13.520  0.00  0.00    +0.000 OA
ATOM     12  C   UNL     1      -3.321   9.901  13.792  0.00  0.00    +0.000 C 
BRANCH  12  13
ATOM     13  O   UNL     1      -2.320   9.657  12.931  0.00  0.00    +0.000 OA
ATOM     14  H   UNL     1      -2.592   9.338  12.056  0.00  0.00    +0.000 HD
ENDBRANCH  12  13
ENDBRANCH   9  12
BRANCH   9  15
ATOM     15  O   UNL     1      -3.452  11.779  15.330  0.00  0.00    +0.000 OA
ATOM     16  H   UNL     1      -3.662  12.146  14.446  0.00  0.00    +0.000 HD
ENDBRANCH   9  15
ENDBRANCH   7  10
ENDBRANCH   1   7
BRANCH   5  17
ATOM     17  C   UNL     1       2.596   8.451  17.793  0.00  0.00    +0.000 C 
BRANCH  17  18
ATOM     18  N   UNL     1       2.966   7.126  18.310  0.00  0.00    +0.000 NA
BRANCH  18  19
ATOM     19  C   UNL     1       2.169   5.982  17.842  0.00  0.00    +0.000 C 
BRANCH  19  20
ATOM     20  C   UNL     1       1.866   4.788  18.735  0.00  0.00    +0.000 A 
ATOM     21  C   UNL     1       1.429   3.523  18.323  0.00  0.00    +0.000 A 
ATOM     22  C   UNL     1       1.079   2.542  19.260  0.00  0.00    +0.000 A 
ATOM     23  C   UNL     1       1.144   2.815  20.623  0.00  0.00    +0.000 A 
ATOM     24  C   UNL     1       1.630   4.043  21.055  0.00  0.00    +0.000 A 
ATOM     25  C   UNL     1       2.012   5.005  20.120  0.00  0.00    +0.000 A 
ENDBRANCH  19  20
ENDBRANCH  18  19
BRANCH  18  26
ATOM     26  C   UNL     1       4.402   6.826  18.293  0.00  0.00    +0.000 C 
BRANCH  26  27
ATOM     27  C   UNL     1       4.809   5.926  17.152  0.00  0.00    +0.000 A 
ATOM     28  C   UNL     1       4.986   4.551  17.351  0.00  0.00    +0.000 A 
ATOM     29  C   UNL     1       5.426   3.741  16.312  0.00  0.00    +0.000 A 
ATOM     30  C   UNL     1       5.688   4.299  15.058  0.00  0.00    +0.000 A 
ATOM     31  C   UNL     1       5.504   5.661  14.842  0.00  0.00    +0.000 A 
ATOM     32  C   UNL     1       5.066   6.475  15.886  0.00  0.00    +0.000 A 
ENDBRANCH  26  27
ENDBRANCH  18  26
ENDBRANCH  17  18
ENDBRANCH   5  17
TORSDOF 11
ENDMDL
MODEL 9
REMARK VINA RESULT:      -8.1      5.255      8.646
REMARK  Name = 
REMARK  11 active torsions:
REMARK  status: ('A' for Active; 'I' for Inactive)
REMARK    1  A    between atoms: C_2  and  O_3
REMARK    2  A    between atoms: C_2  and  C_4
REMARK    3  A    between atoms: C_4  and  O_5
REMARK    4  A    between atoms: C_6  and  C_7
REMARK    5  A    between atoms: C_7  and  C_9
REMARK    6  A    between atoms: C_13  and  C_14
REMARK    7  A    between atoms: C_14  and  N_15
REMARK    8  A    between atoms: N_15  and  C_16
REMARK    9  A    between atoms: N_15  and  C_23
REMARK   10  A    between atoms: C_16  and  C_17
REMARK   11  A    between atoms: C_23  and  C_24
REMARK                            x       y       z     vdW  Elec       q    Type
REMARK                         _______ _______ _______ _____ _____    ______ ____
ROOT
ATOM      1  C   UNL     1      -0.071  10.020  18.938  0.00  0.00    +0.000 A 
ATOM      2  C   UNL     1      -0.031   9.744  20.315  0.00  0.00    +0.000 A 
ATOM      3  C   UNL     1       0.895   8.842  20.836  0.00  0.00    +0.000 A 
ATOM      4  C   UNL     1       1.821   8.239  19.992  0.00  0.00    +0.000 A 
ATOM      5  C   UNL     1       1.805   8.502  18.615  0.00  0.00    +0.000 A 
ATOM      6  C   UNL     1       0.811   9.347  18.081  0.00  0.00    +0.000 A 
ENDROOT
BRANCH   1   7
ATOM      7  C   UNL     1      -0.943  11.148  18.491  0.00  0.00    +0.000 C 
ATOM      8  O   UNL     1      -0.625  12.303  18.752  0.00  0.00    +0.000 OA
BRANCH   7  10
ATOM      9  C   UNL     1      -3.345  11.504  18.067  0.00  0.00    +0.000 C 
ATOM     10  C   UNL     1      -2.212  10.845  17.777  0.00  0.00    +0.000 C 
BRANCH   9  12
ATOM     11  O   UNL     1      -5.569  10.745  18.228  0.00  0.00    +0.000 OA
ATOM     12  C   UNL     1      -4.673  11.144  17.494  0.00  0.00    +0.000 C 
BRANCH  12  13
ATOM     13  O   UNL     1      -4.840  11.338  16.175  0.00  0.00    +0.000 OA
ATOM     14  H   UNL     1      -5.406  12.089  15.933  0.00  0.00    +0.000 HD
ENDBRANCH  12  13
ENDBRANCH   9  12
BRANCH   9  15
ATOM     15  O   UNL     1      -3.367  12.541  18.993  0.00  0.00    +0.000 OA
ATOM     16  H   UNL     1      -2.585  13.099  18.795  0.00  0.00    +0.000 HD
ENDBRANCH   9  15
ENDBRANCH   7  10
ENDBRANCH   1   7
BRANCH   5  17
ATOM     17  C   UNL     1       2.951   8.006  17.749  0.00  0.00    +0.000 C 
BRANCH  17  18
ATOM     18  N   UNL     1       3.545   6.749  18.226  0.00  0.00    +0.000 NA
BRANCH  18  19
ATOM     19  C   UNL     1       2.812   5.510  17.929  0.00  0.00    +0.000 C 
BRANCH  19  20
ATOM     20  C   UNL     1       2.219   4.637  19.025  0.00  0.00    +0.000 A 
ATOM     21  C   UNL     1       2.453   4.746  20.402  0.00  0.00    +0.000 A 
ATOM     22  C   UNL     1       1.929   3.805  21.296  0.00  0.00    +0.000 A 
ATOM     23  C   UNL     1       1.178   2.730  20.829  0.00  0.00    +0.000 A 
ATOM     24  C   UNL     1       0.886   2.635  19.475  0.00  0.00    +0.000 A 
ATOM     25  C   UNL     1       1.378   3.594  18.589  0.00  0.00    +0.000 A 
ENDBRANCH  19  20
ENDBRANCH  18  19
BRANCH  18  26
ATOM     26  C   UNL     1       4.983   6.600  17.971  0.00  0.00    +0.000 C 
BRANCH  26  27
ATOM     27  C   UNL     1       5.289   5.709  16.792  0.00  0.00    +0.000 A 
ATOM     28  C   UNL     1       5.641   4.367  16.981  0.00  0.00    +0.000 A 
ATOM     29  C   UNL     1       5.988   3.571  15.896  0.00  0.00    +0.000 A 
ATOM     30  C   UNL     1       5.978   4.111  14.608  0.00  0.00    +0.000 A 
ATOM     31  C   UNL     1       5.617   5.439  14.403  0.00  0.00    +0.000 A 
ATOM     32  C   UNL     1       5.274   6.238  15.493  0.00  0.00    +0.000 A 
ENDBRANCH  26  27
ENDBRANCH  18  26
ENDBRANCH  17  18
ENDBRANCH   5  17
TORSDOF 11
ENDMDL
