MODEL 1
REMARK VINA RESULT:      -7.2      0.000      0.000
REMARK  Name = 
REMARK  8 active torsions:
REMARK  status: ('A' for Active; 'I' for Inactive)
REMARK    1  A    between atoms: C_1  and  C_2
REMARK    2  A    between atoms: C_4  and  C_5
REMARK    3  A    between atoms: C_8  and  C_9
REMARK    4  A    between atoms: N_11  and  C_12
REMARK    5  A    between atoms: N_11  and  C_13
REMARK    6  A    between atoms: C_13  and  C_14
REMARK    7  A    between atoms: C_18  and  C_19
REMARK    8  A    between atoms: C_20  and  O_21
REMARK                            x       y       z     vdW  Elec       q    Type
REMARK                         _______ _______ _______ _____ _____    ______ ____
ROOT
ATOM      1  C   UNL     1       1.277   8.840  19.352  0.00  0.00    +0.000 A 
ATOM      2  N   UNL     1       2.027   8.920  18.235  0.00  0.00    +0.000 NA
ATOM      3  C   UNL     1       2.893   7.907  18.008  0.00  0.00    +0.000 A 
ATOM      4  C   UNL     1       3.005   6.798  18.813  0.00  0.00    +0.000 A 
ATOM      5  C   UNL     1       2.264   6.872  19.980  0.00  0.00    +0.000 A 
ATOM      6  N   UNL     1       1.382   7.851  20.259  0.00  0.00    +0.000 NA
ENDROOT
BRANCH   1  10
ATOM      7  C   UNL     1      -1.366  12.161  21.950  0.00  0.00    +0.000 C 
ATOM      8  C   UNL     1      -0.874  11.365  20.793  0.00  0.00    +0.000 A 
ATOM      9  N   UNL     1       0.063  10.444  20.861  0.00  0.00    +0.000 NA
ATOM     10  C   UNL     1       0.286   9.891  19.599  0.00  0.00    +0.000 A 
ATOM     11  C   UNL     1      -0.502  10.428  18.597  0.00  0.00    +0.000 A 
ATOM     12  S   UNL     1      -1.542  11.628  19.232  0.00  0.00    +0.000 S 
ENDBRANCH   1  10
BRANCH   4  13
ATOM     13  C   UNL     1       3.930   5.678  18.556  0.00  0.00    +0.000 C 
ATOM     14  O   UNL     1       5.018   5.749  19.134  0.00  0.00    +0.000 OA
ATOM     15  N   UNL     1       3.604   4.606  17.719  0.00  0.00    +0.000 N 
ATOM     16  C   UNL     1       2.263   4.249  17.250  0.00  0.00    +0.000 C 
BRANCH  15  17
ATOM     17  C   UNL     1       4.677   3.656  17.387  0.00  0.00    +0.000 C 
BRANCH  17  18
ATOM     18  C   UNL     1       5.684   4.193  16.426  0.00  0.00    +0.000 A 
ATOM     19  S   UNL     1       5.263   4.572  14.800  0.00  0.00    +0.000 S 
ATOM     20  N   UNL     1       6.762   5.207  14.445  0.00  0.00    +0.000 NA
ATOM     21  N   UNL     1       7.588   5.177  15.474  0.00  0.00    +0.000 NA
ATOM     22  C   UNL     1       6.997   4.618  16.604  0.00  0.00    +0.000 A 
ATOM     23  C   UNL     1       7.812   4.579  17.847  0.00  0.00    +0.000 C 
ENDBRANCH  17  18
ENDBRANCH  15  17
ENDBRANCH   4  13
BRANCH   5  24
ATOM     24  O   UNL     1       2.394   5.958  20.991  0.00  0.00    +0.000 OA
ATOM     25  H   UNL     1       1.498   5.794  21.353  0.00  0.00    +0.000 HD
ENDBRANCH   5  24
TORSDOF 5
ENDMDL
MODEL 2
REMARK VINA RESULT:      -7.1      4.722      7.038
REMARK  Name = 
REMARK  8 active torsions:
REMARK  status: ('A' for Active; 'I' for Inactive)
REMARK    1  A    between atoms: C_1  and  C_2
REMARK    2  A    between atoms: C_4  and  C_5
REMARK    3  A    between atoms: C_8  and  C_9
REMARK    4  A    between atoms: N_11  and  C_12
REMARK    5  A    between atoms: N_11  and  C_13
REMARK    6  A    between atoms: C_13  and  C_14
REMARK    7  A    between atoms: C_18  and  C_19
REMARK    8  A    between atoms: C_20  and  O_21
REMARK                            x       y       z     vdW  Elec       q    Type
REMARK                         _______ _______ _______ _____ _____    ______ ____
ROOT
ATOM      1  C   UNL     1       8.394   8.705  18.337  0.00  0.00    +0.000 A 
ATOM      2  N   UNL     1       7.557   8.681  17.281  0.00  0.00    +0.000 NA
ATOM      3  C   UNL     1       6.892   7.526  17.056  0.00  0.00    +0.000 A 
ATOM      4  C   UNL     1       6.981   6.419  17.866  0.00  0.00    +0.000 A 
ATOM      5  C   UNL     1       7.943   6.521  18.855  0.00  0.00    +0.000 A 
ATOM      6  N   UNL     1       8.633   7.645  19.130  0.00  0.00    +0.000 NA
ENDROOT
BRANCH   1  10
ATOM      7  C   UNL     1      10.732  13.011  17.468  0.00  0.00    +0.000 C 
ATOM      8  C   UNL     1      10.126  11.878  18.218  0.00  0.00    +0.000 A 
ATOM      9  N   UNL     1       9.549  10.834  17.662  0.00  0.00    +0.000 NA
ATOM     10  C   UNL     1       9.087   9.959  18.645  0.00  0.00    +0.000 A 
ATOM     11  C   UNL     1       9.329  10.382  19.940  0.00  0.00    +0.000 A 
ATOM     12  S   UNL     1      10.152  11.881  19.936  0.00  0.00    +0.000 S 
ENDBRANCH   1  10
BRANCH   4  13
ATOM     13  C   UNL     1       6.237   5.165  17.640  0.00  0.00    +0.000 C 
ATOM     14  O   UNL     1       6.917   4.212  17.248  0.00  0.00    +0.000 OA
ATOM     15  N   UNL     1       4.860   5.055  17.854  0.00  0.00    +0.000 N 
ATOM     16  C   UNL     1       4.023   5.989  18.610  0.00  0.00    +0.000 C 
BRANCH  15  17
ATOM     17  C   UNL     1       4.202   3.817  17.408  0.00  0.00    +0.000 C 
BRANCH  17  18
ATOM     18  C   UNL     1       3.138   3.330  18.334  0.00  0.00    +0.000 A 
ATOM     19  S   UNL     1       1.467   3.490  17.948  0.00  0.00    +0.000 S 
ATOM     20  N   UNL     1       0.964   2.643  19.291  0.00  0.00    +0.000 NA
ATOM     21  N   UNL     1       1.968   2.217  20.035  0.00  0.00    +0.000 NA
ATOM     22  C   UNL     1       3.203   2.585  19.508  0.00  0.00    +0.000 A 
ATOM     23  C   UNL     1       4.416   2.116  20.228  0.00  0.00    +0.000 C 
ENDBRANCH  17  18
ENDBRANCH  15  17
ENDBRANCH   4  13
BRANCH   5  24
ATOM     24  O   UNL     1       8.312   5.457  19.634  0.00  0.00    +0.000 OA
ATOM     25  H   UNL     1       9.252   5.262  19.436  0.00  0.00    +0.000 HD
ENDBRANCH   5  24
TORSDOF 5
ENDMDL
MODEL 3
REMARK VINA RESULT:      -7.1      2.845      9.158
REMARK  Name = 
REMARK  8 active torsions:
REMARK  status: ('A' for Active; 'I' for Inactive)
REMARK    1  A    between atoms: C_1  and  C_2
REMARK    2  A    between atoms: C_4  and  C_5
REMARK    3  A    between atoms: C_8  and  C_9
REMARK    4  A    between atoms: N_11  and  C_12
REMARK    5  A    between atoms: N_11  and  C_13
REMARK    6  A    between atoms: C_13  and  C_14
REMARK    7  A    between atoms: C_18  and  C_19
REMARK    8  A    between atoms: C_20  and  O_21
REMARK                            x       y       z     vdW  Elec       q    Type
REMARK                         _______ _______ _______ _____ _____    ______ ____
ROOT
ATOM      1  C   UNL     1       2.202   7.480  19.261  0.00  0.00    +0.000 A 
ATOM      2  N   UNL     1       1.635   7.760  20.450  0.00  0.00    +0.000 NA
ATOM      3  C   UNL     1       1.056   8.974  20.580  0.00  0.00    +0.000 A 
ATOM      4  C   UNL     1       0.970   9.896  19.563  0.00  0.00    +0.000 A 
ATOM      5  C   UNL     1       1.674   9.544  18.424  0.00  0.00    +0.000 A 
ATOM      6  N   UNL     1       2.265   8.349  18.235  0.00  0.00    +0.000 NA
ENDROOT
BRANCH   1  10
ATOM      7  C   UNL     1       4.542   3.777  16.899  0.00  0.00    +0.000 C 
ATOM      8  C   UNL     1       3.838   4.520  17.979  0.00  0.00    +0.000 A 
ATOM      9  N   UNL     1       3.398   5.756  17.875  0.00  0.00    +0.000 NA
ATOM     10  C   UNL     1       2.787   6.151  19.066  0.00  0.00    +0.000 A 
ATOM     11  C   UNL     1       2.791   5.182  20.054  0.00  0.00    +0.000 A 
ATOM     12  S   UNL     1       3.554   3.758  19.493  0.00  0.00    +0.000 S 
ENDBRANCH   1  10
BRANCH   4  13
ATOM     13  C   UNL     1       0.317  11.212  19.691  0.00  0.00    +0.000 C 
ATOM     14  O   UNL     1       1.044  12.125  20.095  0.00  0.00    +0.000 OA
ATOM     15  N   UNL     1      -1.030  11.421  19.376  0.00  0.00    +0.000 N 
ATOM     16  C   UNL     1      -1.887  10.525  18.598  0.00  0.00    +0.000 C 
BRANCH  15  17
ATOM     17  C   UNL     1      -1.613  12.724  19.731  0.00  0.00    +0.000 C 
BRANCH  17  18
ATOM     18  C   UNL     1      -2.617  12.657  20.833  0.00  0.00    +0.000 A 
ATOM     19  S   UNL     1      -4.303  12.818  20.526  0.00  0.00    +0.000 S 
ATOM     20  N   UNL     1      -4.732  12.503  22.104  0.00  0.00    +0.000 NA
ATOM     21  N   UNL     1      -3.691  12.264  22.880  0.00  0.00    +0.000 NA
ATOM     22  C   UNL     1      -2.489  12.336  22.182  0.00  0.00    +0.000 A 
ATOM     23  C   UNL     1      -1.245  12.031  22.937  0.00  0.00    +0.000 C 
ENDBRANCH  17  18
ENDBRANCH  15  17
ENDBRANCH   4  13
BRANCH   5  24
ATOM     24  O   UNL     1       1.866  10.413  17.383  0.00  0.00    +0.000 OA
ATOM     25  H   UNL     1       1.146  10.258  16.736  0.00  0.00    +0.000 HD
ENDBRANCH   5  24
TORSDOF 5
ENDMDL
MODEL 4
REMARK VINA RESULT:      -7.1      5.072      7.059
REMARK  Name = 
REMARK  8 active torsions:
REMARK  status: ('A' for Active; 'I' for Inactive)
REMARK    1  A    between atoms: C_1  and  C_2
REMARK    2  A    between atoms: C_4  and  C_5
REMARK    3  A    between atoms: C_8  and  C_9
REMARK    4  A    between atoms: N_11  and  C_12
REMARK    5  A    between atoms: N_11  and  C_13
REMARK    6  A    between atoms: C_13  and  C_14
REMARK    7  A    between atoms: C_18  and  C_19
REMARK    8  A    between atoms: C_20  and  O_21
REMARK                            x       y       z     vdW  Elec       q    Type
REMARK                         _______ _______ _______ _____ _____    ______ ____
ROOT
ATOM      1  C   UNL     1       8.212   8.622  18.265  0.00  0.00    +0.000 A 
ATOM      2  N   UNL     1       7.313   8.512  17.267  0.00  0.00    +0.000 NA
ATOM      3  C   UNL     1       6.704   7.315  17.124  0.00  0.00    +0.000 A 
ATOM      4  C   UNL     1       6.910   6.244  17.961  0.00  0.00    +0.000 A 
ATOM      5  C   UNL     1       7.924   6.436  18.882  0.00  0.00    +0.000 A 
ATOM      6  N   UNL     1       8.563   7.606  19.075  0.00  0.00    +0.000 NA
ENDROOT
BRANCH   1  10
ATOM      7  C   UNL     1      11.127  12.012  20.449  0.00  0.00    +0.000 C 
ATOM      8  C   UNL     1      10.163  11.411  19.488  0.00  0.00    +0.000 A 
ATOM      9  N   UNL     1       9.744  10.164  19.529  0.00  0.00    +0.000 NA
ATOM     10  C   UNL     1       8.848   9.923  18.487  0.00  0.00    +0.000 A 
ATOM     11  C   UNL     1       8.620  11.017  17.672  0.00  0.00    +0.000 A 
ATOM     12  S   UNL     1       9.521  12.366  18.213  0.00  0.00    +0.000 S 
ENDBRANCH   1  10
BRANCH   4  13
ATOM     13  C   UNL     1       6.228   4.942  17.824  0.00  0.00    +0.000 C 
ATOM     14  O   UNL     1       6.825   4.103  17.144  0.00  0.00    +0.000 OA
ATOM     15  N   UNL     1       4.993   4.670  18.422  0.00  0.00    +0.000 N 
ATOM     16  C   UNL     1       4.359   5.443  19.492  0.00  0.00    +0.000 C 
BRANCH  15  17
ATOM     17  C   UNL     1       4.326   3.412  18.053  0.00  0.00    +0.000 C 
BRANCH  17  18
ATOM     18  C   UNL     1       3.085   3.134  18.835  0.00  0.00    +0.000 A 
ATOM     19  S   UNL     1       3.143   2.342  20.362  0.00  0.00    +0.000 S 
ATOM     20  N   UNL     1       1.511   2.525  20.642  0.00  0.00    +0.000 NA
ATOM     21  N   UNL     1       0.892   3.164  19.666  0.00  0.00    +0.000 NA
ATOM     22  C   UNL     1       1.763   3.525  18.641  0.00  0.00    +0.000 A 
ATOM     23  C   UNL     1       1.194   4.301  17.508  0.00  0.00    +0.000 C 
ENDBRANCH  17  18
ENDBRANCH  15  17
ENDBRANCH   4  13
BRANCH   5  24
ATOM     24  O   UNL     1       8.404   5.423  19.669  0.00  0.00    +0.000 OA
ATOM     25  H   UNL     1       9.164   5.022  19.198  0.00  0.00    +0.000 HD
ENDBRANCH   5  24
TORSDOF 5
ENDMDL
MODEL 5
REMARK VINA RESULT:      -7.0      1.072      1.113
REMARK  Name = 
REMARK  8 active torsions:
REMARK  status: ('A' for Active; 'I' for Inactive)
REMARK    1  A    between atoms: C_1  and  C_2
REMARK    2  A    between atoms: C_4  and  C_5
REMARK    3  A    between atoms: C_8  and  C_9
REMARK    4  A    between atoms: N_11  and  C_12
REMARK    5  A    between atoms: N_11  and  C_13
REMARK    6  A    between atoms: C_13  and  C_14
REMARK    7  A    between atoms: C_18  and  C_19
REMARK    8  A    between atoms: C_20  and  O_21
REMARK                            x       y       z     vdW  Elec       q    Type
REMARK                         _______ _______ _______ _____ _____    ______ ____
ROOT
ATOM      1  C   UNL     1       1.291   9.299  18.691  0.00  0.00    +0.000 A 
ATOM      2  N   UNL     1       2.079   9.169  17.606  0.00  0.00    +0.000 NA
ATOM      3  C   UNL     1       2.916   8.109  17.583  0.00  0.00    +0.000 A 
ATOM      4  C   UNL     1       2.964   7.146  18.564  0.00  0.00    +0.000 A 
ATOM      5  C   UNL     1       2.189   7.435  19.673  0.00  0.00    +0.000 A 
ATOM      6  N   UNL     1       1.333   8.472  19.753  0.00  0.00    +0.000 NA
ENDROOT
BRANCH   1  10
ATOM      7  C   UNL     1      -0.328  13.986  19.095  0.00  0.00    +0.000 C 
ATOM      8  C   UNL     1      -0.357  12.510  18.908  0.00  0.00    +0.000 A 
ATOM      9  N   UNL     1       0.703  11.731  18.933  0.00  0.00    +0.000 NA
ATOM     10  C   UNL     1       0.330  10.404  18.724  0.00  0.00    +0.000 A 
ATOM     11  C   UNL     1      -1.029  10.219  18.538  0.00  0.00    +0.000 A 
ATOM     12  S   UNL     1      -1.854  11.714  18.635  0.00  0.00    +0.000 S 
ENDBRANCH   1  10
BRANCH   4  13
ATOM     13  C   UNL     1       3.858   5.973  18.531  0.00  0.00    +0.000 C 
ATOM     14  O   UNL     1       4.910   6.093  19.166  0.00  0.00    +0.000 OA
ATOM     15  N   UNL     1       3.542   4.802  17.835  0.00  0.00    +0.000 N 
ATOM     16  C   UNL     1       2.220   4.423  17.332  0.00  0.00    +0.000 C 
BRANCH  15  17
ATOM     17  C   UNL     1       4.594   3.782  17.714  0.00  0.00    +0.000 C 
BRANCH  17  18
ATOM     18  C   UNL     1       5.642   4.111  16.704  0.00  0.00    +0.000 A 
ATOM     19  S   UNL     1       5.275   4.205  15.024  0.00  0.00    +0.000 S 
ATOM     20  N   UNL     1       6.801   4.724  14.608  0.00  0.00    +0.000 NA
ATOM     21  N   UNL     1       7.601   4.855  15.651  0.00  0.00    +0.000 NA
ATOM     22  C   UNL     1       6.964   4.523  16.844  0.00  0.00    +0.000 A 
ATOM     23  C   UNL     1       7.746   4.683  18.098  0.00  0.00    +0.000 C 
ENDBRANCH  17  18
ENDBRANCH  15  17
ENDBRANCH   4  13
BRANCH   5  24
ATOM     24  O   UNL     1       2.253   6.699  20.827  0.00  0.00    +0.000 OA
ATOM     25  H   UNL     1       3.101   6.918  21.266  0.00  0.00    +0.000 HD
ENDBRANCH   5  24
TORSDOF 5
ENDMDL
MODEL 6
REMARK VINA RESULT:      -7.0      3.311      9.068
REMARK  Name = 
REMARK  8 active torsions:
REMARK  status: ('A' for Active; 'I' for Inactive)
REMARK    1  A    between atoms: C_1  and  C_2
REMARK    2  A    between atoms: C_4  and  C_5
REMARK    3  A    between atoms: C_8  and  C_9
REMARK    4  A    between atoms: N_11  and  C_12
REMARK    5  A    between atoms: N_11  and  C_13
REMARK    6  A    between atoms: C_13  and  C_14
REMARK    7  A    between atoms: C_18  and  C_19
REMARK    8  A    between atoms: C_20  and  O_21
REMARK                            x       y       z     vdW  Elec       q    Type
REMARK                         _______ _______ _______ _____ _____    ______ ____
ROOT
ATOM      1  C   UNL     1       2.203   7.400  19.547  0.00  0.00    +0.000 A 
ATOM      2  N   UNL     1       1.602   7.761  20.698  0.00  0.00    +0.000 NA
ATOM      3  C   UNL     1       1.001   8.971  20.719  0.00  0.00    +0.000 A 
ATOM      4  C   UNL     1       0.926   9.810  19.632  0.00  0.00    +0.000 A 
ATOM      5  C   UNL     1       1.662   9.384  18.541  0.00  0.00    +0.000 A 
ATOM      6  N   UNL     1       2.277   8.189  18.459  0.00  0.00    +0.000 NA
ENDROOT
BRANCH   1  10
ATOM      7  C   UNL     1       3.052   2.643  20.737  0.00  0.00    +0.000 C 
ATOM      8  C   UNL     1       3.165   3.947  20.028  0.00  0.00    +0.000 A 
ATOM      9  N   UNL     1       2.468   5.023  20.324  0.00  0.00    +0.000 NA
ATOM     10  C   UNL     1       2.813   6.070  19.469  0.00  0.00    +0.000 A 
ATOM     11  C   UNL     1       3.776   5.743  18.532  0.00  0.00    +0.000 A 
ATOM     12  S   UNL     1       4.267   4.115  18.721  0.00  0.00    +0.000 S 
ENDBRANCH   1  10
BRANCH   4  13
ATOM     13  C   UNL     1       0.248  11.120  19.643  0.00  0.00    +0.000 C 
ATOM     14  O   UNL     1       0.948  12.073  20.000  0.00  0.00    +0.000 OA
ATOM     15  N   UNL     1      -1.091  11.282  19.273  0.00  0.00    +0.000 N 
ATOM     16  C   UNL     1      -1.909  10.316  18.537  0.00  0.00    +0.000 C 
BRANCH  15  17
ATOM     17  C   UNL     1      -1.705  12.597  19.512  0.00  0.00    +0.000 C 
BRANCH  17  18
ATOM     18  C   UNL     1      -2.704  12.605  20.621  0.00  0.00    +0.000 A 
ATOM     19  S   UNL     1      -4.394  12.700  20.308  0.00  0.00    +0.000 S 
ATOM     20  N   UNL     1      -4.812  12.516  21.910  0.00  0.00    +0.000 NA
ATOM     21  N   UNL     1      -3.763  12.369  22.700  0.00  0.00    +0.000 NA
ATOM     22  C   UNL     1      -2.565  12.406  21.991  0.00  0.00    +0.000 A 
ATOM     23  C   UNL     1      -1.313  12.196  22.764  0.00  0.00    +0.000 C 
ENDBRANCH  17  18
ENDBRANCH  15  17
ENDBRANCH   4  13
BRANCH   5  24
ATOM     24  O   UNL     1       1.867  10.173  17.440  0.00  0.00    +0.000 OA
ATOM     25  H   UNL     1       2.745   9.941  17.073  0.00  0.00    +0.000 HD
ENDBRANCH   5  24
TORSDOF 5
ENDMDL
MODEL 7
REMARK VINA RESULT:      -7.0      3.030      9.247
REMARK  Name = 
REMARK  8 active torsions:
REMARK  status: ('A' for Active; 'I' for Inactive)
REMARK    1  A    between atoms: C_1  and  C_2
REMARK    2  A    between atoms: C_4  and  C_5
REMARK    3  A    between atoms: C_8  and  C_9
REMARK    4  A    between atoms: N_11  and  C_12
REMARK    5  A    between atoms: N_11  and  C_13
REMARK    6  A    between atoms: C_13  and  C_14
REMARK    7  A    between atoms: C_18  and  C_19
REMARK    8  A    between atoms: C_20  and  O_21
REMARK                            x       y       z     vdW  Elec       q    Type
REMARK                         _______ _______ _______ _____ _____    ______ ____
ROOT
ATOM      1  C   UNL     1       2.362   7.464  18.624  0.00  0.00    +0.000 A 
ATOM      2  N   UNL     1       1.830   7.517  19.860  0.00  0.00    +0.000 NA
ATOM      3  C   UNL     1       1.304   8.700  20.248  0.00  0.00    +0.000 A 
ATOM      4  C   UNL     1       1.236   9.811  19.442  0.00  0.00    +0.000 A 
ATOM      5  C   UNL     1       1.902   9.673  18.236  0.00  0.00    +0.000 A 
ATOM      6  N   UNL     1       2.440   8.521  17.793  0.00  0.00    +0.000 NA
ENDROOT
BRANCH   1  10
ATOM      7  C   UNL     1       2.436   2.579  17.680  0.00  0.00    +0.000 C 
ATOM      8  C   UNL     1       2.885   3.996  17.740  0.00  0.00    +0.000 A 
ATOM      9  N   UNL     1       2.180   4.985  18.249  0.00  0.00    +0.000 NA
ATOM     10  C   UNL     1       2.889   6.182  18.148  0.00  0.00    +0.000 A 
ATOM     11  C   UNL     1       4.129   6.059  17.548  0.00  0.00    +0.000 A 
ATOM     12  S   UNL     1       4.425   4.431  17.114  0.00  0.00    +0.000 S 
ENDBRANCH   1  10
BRANCH   4  13
ATOM     13  C   UNL     1       0.640  11.097  19.852  0.00  0.00    +0.000 C 
ATOM     14  O   UNL     1       1.420  11.897  20.376  0.00  0.00    +0.000 OA
ATOM     15  N   UNL     1      -0.713  11.397  19.660  0.00  0.00    +0.000 N 
ATOM     16  C   UNL     1      -1.642  10.686  18.780  0.00  0.00    +0.000 C 
BRANCH  15  17
ATOM     17  C   UNL     1      -1.228  12.625  20.285  0.00  0.00    +0.000 C 
BRANCH  17  18
ATOM     18  C   UNL     1      -2.199  12.378  21.392  0.00  0.00    +0.000 A 
ATOM     19  S   UNL     1      -1.689  11.755  22.914  0.00  0.00    +0.000 S 
ATOM     20  N   UNL     1      -3.199  11.897  23.601  0.00  0.00    +0.000 NA
ATOM     21  N   UNL     1      -4.095  12.402  22.772  0.00  0.00    +0.000 NA
ATOM     22  C   UNL     1      -3.549  12.690  21.524  0.00  0.00    +0.000 A 
ATOM     23  C   UNL     1      -4.447  13.315  20.519  0.00  0.00    +0.000 C 
ENDBRANCH  17  18
ENDBRANCH  15  17
ENDBRANCH   4  13
BRANCH   5  24
ATOM     24  O   UNL     1       2.109  10.728  17.387  0.00  0.00    +0.000 OA
ATOM     25  H   UNL     1       3.070  10.919  17.388  0.00  0.00    +0.000 HD
ENDBRANCH   5  24
TORSDOF 5
ENDMDL
MODEL 8
REMARK VINA RESULT:      -6.9      2.797      9.291
REMARK  Name = 
REMARK  8 active torsions:
REMARK  status: ('A' for Active; 'I' for Inactive)
REMARK    1  A    between atoms: C_1  and  C_2
REMARK    2  A    between atoms: C_4  and  C_5
REMARK    3  A    between atoms: C_8  and  C_9
REMARK    4  A    between atoms: N_11  and  C_12
REMARK    5  A    between atoms: N_11  and  C_13
REMARK    6  A    between atoms: C_13  and  C_14
REMARK    7  A    between atoms: C_18  and  C_19
REMARK    8  A    between atoms: C_20  and  O_21
REMARK                            x       y       z     vdW  Elec       q    Type
REMARK                         _______ _______ _______ _____ _____    ______ ____
ROOT
ATOM      1  C   UNL     1       2.355   7.388  18.790  0.00  0.00    +0.000 A 
ATOM      2  N   UNL     1       1.853   7.501  20.035  0.00  0.00    +0.000 NA
ATOM      3  C   UNL     1       1.316   8.694  20.371  0.00  0.00    +0.000 A 
ATOM      4  C   UNL     1       1.208   9.758  19.506  0.00  0.00    +0.000 A 
ATOM      5  C   UNL     1       1.846   9.565  18.293  0.00  0.00    +0.000 A 
ATOM      6  N   UNL     1       2.394   8.399  17.901  0.00  0.00    +0.000 NA
ENDROOT
BRANCH   1  10
ATOM      7  C   UNL     1       5.247   4.178  16.321  0.00  0.00    +0.000 C 
ATOM      8  C   UNL     1       4.203   4.687  17.252  0.00  0.00    +0.000 A 
ATOM      9  N   UNL     1       3.916   5.958  17.433  0.00  0.00    +0.000 NA
ATOM     10  C   UNL     1       2.893   6.091  18.372  0.00  0.00    +0.000 A 
ATOM     11  C   UNL     1       2.434   4.891  18.884  0.00  0.00    +0.000 A 
ATOM     12  S   UNL     1       3.278   3.579  18.183  0.00  0.00    +0.000 S 
ENDBRANCH   1  10
BRANCH   4  13
ATOM     13  C   UNL     1       0.599  11.055  19.860  0.00  0.00    +0.000 C 
ATOM     14  O   UNL     1       1.369  11.879  20.361  0.00  0.00    +0.000 OA
ATOM     15  N   UNL     1      -0.753  11.338  19.642  0.00  0.00    +0.000 N 
ATOM     16  C   UNL     1      -1.668  10.588  18.779  0.00  0.00    +0.000 C 
BRANCH  15  17
ATOM     17  C   UNL     1      -1.283  12.586  20.214  0.00  0.00    +0.000 C 
BRANCH  17  18
ATOM     18  C   UNL     1      -2.258  12.375  21.325  0.00  0.00    +0.000 A 
ATOM     19  S   UNL     1      -1.741  11.895  22.896  0.00  0.00    +0.000 S 
ATOM     20  N   UNL     1      -3.267  12.013  23.552  0.00  0.00    +0.000 NA
ATOM     21  N   UNL     1      -4.173  12.409  22.677  0.00  0.00    +0.000 NA
ATOM     22  C   UNL     1      -3.623  12.628  21.417  0.00  0.00    +0.000 A 
ATOM     23  C   UNL     1      -4.535  13.131  20.356  0.00  0.00    +0.000 C 
ENDBRANCH  17  18
ENDBRANCH  15  17
ENDBRANCH   4  13
BRANCH   5  24
ATOM     24  O   UNL     1       2.013  10.574  17.382  0.00  0.00    +0.000 OA
ATOM     25  H   UNL     1       1.185  10.637  16.861  0.00  0.00    +0.000 HD
ENDBRANCH   5  24
TORSDOF 5
ENDMDL
MODEL 9
REMARK VINA RESULT:      -6.9      4.702      6.924
REMARK  Name = 
REMARK  8 active torsions:
REMARK  status: ('A' for Active; 'I' for Inactive)
REMARK    1  A    between atoms: C_1  and  C_2
REMARK    2  A    between atoms: C_4  and  C_5
REMARK    3  A    between atoms: C_8  and  C_9
REMARK    4  A    between atoms: N_11  and  C_12
REMARK    5  A    between atoms: N_11  and  C_13
REMARK    6  A    between atoms: C_13  and  C_14
REMARK    7  A    between atoms: C_18  and  C_19
REMARK    8  A    between atoms: C_20  and  O_21
REMARK                            x       y       z     vdW  Elec       q    Type
REMARK                         _______ _______ _______ _____ _____    ______ ____
ROOT
ATOM      1  C   UNL     1       8.264   8.690  18.252  0.00  0.00    +0.000 A 
ATOM      2  N   UNL     1       7.370   8.594  17.248  0.00  0.00    +0.000 NA
ATOM      3  C   UNL     1       6.720   7.416  17.121  0.00  0.00    +0.000 A 
ATOM      4  C   UNL     1       6.882   6.353  17.979  0.00  0.00    +0.000 A 
ATOM      5  C   UNL     1       7.895   6.527  18.905  0.00  0.00    +0.000 A 
ATOM      6  N   UNL     1       8.573   7.677  19.083  0.00  0.00    +0.000 NA
ENDROOT
BRANCH   1  10
ATOM      7  C   UNL     1      11.282  12.014  20.398  0.00  0.00    +0.000 C 
ATOM      8  C   UNL     1      10.304  11.430  19.440  0.00  0.00    +0.000 A 
ATOM      9  N   UNL     1       9.841  10.199  19.500  0.00  0.00    +0.000 NA
ATOM     10  C   UNL     1       8.944   9.972  18.456  0.00  0.00    +0.000 A 
ATOM     11  C   UNL     1       8.760  11.058  17.620  0.00  0.00    +0.000 A 
ATOM     12  S   UNL     1       9.704  12.384  18.144  0.00  0.00    +0.000 S 
ENDBRANCH   1  10
BRANCH   4  13
ATOM     13  C   UNL     1       6.156   5.074  17.860  0.00  0.00    +0.000 C 
ATOM     14  O   UNL     1       6.864   4.063  17.866  0.00  0.00    +0.000 OA
ATOM     15  N   UNL     1       4.763   5.004  17.750  0.00  0.00    +0.000 N 
ATOM     16  C   UNL     1       3.815   6.077  18.053  0.00  0.00    +0.000 C 
BRANCH  15  17
ATOM     17  C   UNL     1       4.175   3.692  17.441  0.00  0.00    +0.000 C 
BRANCH  17  18
ATOM     18  C   UNL     1       3.136   3.250  18.417  0.00  0.00    +0.000 A 
ATOM     19  S   UNL     1       1.456   3.381  18.065  0.00  0.00    +0.000 S 
ATOM     20  N   UNL     1       0.991   2.604  19.463  0.00  0.00    +0.000 NA
ATOM     21  N   UNL     1       2.015   2.223  20.203  0.00  0.00    +0.000 NA
ATOM     22  C   UNL     1       3.235   2.568  19.627  0.00  0.00    +0.000 A 
ATOM     23  C   UNL     1       4.468   2.144  20.341  0.00  0.00    +0.000 C 
ENDBRANCH  17  18
ENDBRANCH  15  17
ENDBRANCH   4  13
BRANCH   5  24
ATOM     24  O   UNL     1       8.332   5.512  19.715  0.00  0.00    +0.000 OA
ATOM     25  H   UNL     1       8.058   4.668  19.299  0.00  0.00    +0.000 HD
ENDBRANCH   5  24
TORSDOF 5
ENDMDL
