MODEL 1
REMARK VINA RESULT:      -8.9      0.000      0.000
REMARK  Name = 
REMARK  4 active torsions:
REMARK  status: ('A' for Active; 'I' for Inactive)
REMARK    1  A    between atoms: C_1  and  C_2
REMARK    2  A    between atoms: C_7  and  C_8
REMARK    3  A    between atoms: C_14  and  C_16
REMARK    4  A    between atoms: C_16  and  C_18
REMARK                            x       y       z     vdW  Elec       q    Type
REMARK                         _______ _______ _______ _____ _____    ______ ____
ROOT
ATOM      1  C   UNL     1       3.990   4.212  18.694  0.00  0.00    +0.000 C 
ATOM      2  O   UNL     1       3.946   3.197  19.384  0.00  0.00    +0.000 OA
ATOM      3  N   UNL     1       3.092   5.272  18.864  0.00  0.00    +0.000 N 
ATOM      4  C   UNL     1       2.194   5.273  20.022  0.00  0.00    +0.000 C 
ATOM      5  C   UNL     1       2.107   6.679  20.638  0.00  0.00    +0.000 C 
ATOM      6  N   UNL     1       1.799   7.716  19.642  0.00  0.00    +0.000 N 
ATOM      7  C   UNL     1       1.214   8.904  20.109  0.00  0.00    +0.000 C 
ATOM      8  O   UNL     1       0.856   9.066  21.275  0.00  0.00    +0.000 OA
ATOM      9  C   UNL     1       2.586   7.664  18.401  0.00  0.00    +0.000 C 
ATOM     10  C   UNL     1       2.699   6.241  17.830  0.00  0.00    +0.000 C 
ENDROOT
BRANCH   1  17
ATOM     11  C   UNL     1       6.709   5.509  19.315  0.00  0.00    +0.000 C 
ATOM     12  C   UNL     1       6.352   4.905  17.986  0.00  0.00    +0.000 A 
ATOM     13  C   UNL     1       7.303   4.956  16.953  0.00  0.00    +0.000 A 
ATOM     14  C   UNL     1       6.972   4.474  15.696  0.00  0.00    +0.000 A 
ATOM     15  N   UNL     1       5.753   3.999  15.379  0.00  0.00    +0.000 NA
ATOM     16  C   UNL     1       4.840   3.983  16.379  0.00  0.00    +0.000 A 
ATOM     17  C   UNL     1       5.092   4.348  17.699  0.00  0.00    +0.000 A 
ENDBRANCH   1  17
BRANCH   7  18
ATOM     18  C   UNL     1       0.952  10.032  19.102  0.00  0.00    +0.000 C 
ATOM     19  O   UNL     1       1.838  10.298  18.291  0.00  0.00    +0.000 OA
BRANCH  18  20
ATOM     20  C   UNL     1      -0.341  10.727  19.119  0.00  0.00    +0.000 A 
ATOM     21  C   UNL     1      -0.725  11.682  20.047  0.00  0.00    +0.000 A 
ATOM     22  N   UNL     1      -1.977  12.127  19.726  0.00  0.00    +0.000 N 
ATOM     23  C   UNL     1      -2.443  11.467  18.615  0.00  0.00    +0.000 A 
ATOM     24  C   UNL     1      -3.668  11.594  17.947  0.00  0.00    +0.000 A 
ATOM     25  C   UNL     1      -3.885  10.786  16.827  0.00  0.00    +0.000 A 
ATOM     26  C   UNL     1      -2.910   9.889  16.398  0.00  0.00    +0.000 A 
ATOM     27  C   UNL     1      -1.686   9.781  17.072  0.00  0.00    +0.000 A 
ATOM     28  C   UNL     1      -1.441  10.583  18.208  0.00  0.00    +0.000 A 
ATOM     29  H   UNL     1      -2.490  12.842  20.225  0.00  0.00    +0.000 HD
ENDBRANCH  18  20
ENDBRANCH   7  18
TORSDOF 3
ENDMDL
MODEL 2
REMARK VINA RESULT:      -8.8      1.026      1.529
REMARK  Name = 
REMARK  4 active torsions:
REMARK  status: ('A' for Active; 'I' for Inactive)
REMARK    1  A    between atoms: C_1  and  C_2
REMARK    2  A    between atoms: C_7  and  C_8
REMARK    3  A    between atoms: C_14  and  C_16
REMARK    4  A    between atoms: C_16  and  C_18
REMARK                            x       y       z     vdW  Elec       q    Type
REMARK                         _______ _______ _______ _____ _____    ______ ____
ROOT
ATOM      1  C   UNL     1       3.509   4.674  19.485  0.00  0.00    +0.000 C 
ATOM      2  O   UNL     1       3.393   3.741  20.276  0.00  0.00    +0.000 OA
ATOM      3  N   UNL     1       2.641   5.772  19.490  0.00  0.00    +0.000 N 
ATOM      4  C   UNL     1       1.682   5.924  20.589  0.00  0.00    +0.000 C 
ATOM      5  C   UNL     1       1.612   7.389  21.046  0.00  0.00    +0.000 C 
ATOM      6  N   UNL     1       1.394   8.321  19.929  0.00  0.00    +0.000 N 
ATOM      7  C   UNL     1       0.827   9.569  20.234  0.00  0.00    +0.000 C 
ATOM      8  O   UNL     1       0.412   9.867  21.353  0.00  0.00    +0.000 OA
ATOM      9  C   UNL     1       2.244   8.113  18.748  0.00  0.00    +0.000 C 
ATOM     10  C   UNL     1       2.338   6.634  18.338  0.00  0.00    +0.000 C 
ENDROOT
BRANCH   1  17
ATOM     11  C   UNL     1       3.466   3.333  16.718  0.00  0.00    +0.000 C 
ATOM     12  C   UNL     1       4.643   4.092  17.263  0.00  0.00    +0.000 A 
ATOM     13  C   UNL     1       5.805   4.175  16.478  0.00  0.00    +0.000 A 
ATOM     14  C   UNL     1       6.929   4.805  16.988  0.00  0.00    +0.000 A 
ATOM     15  N   UNL     1       7.000   5.305  18.236  0.00  0.00    +0.000 NA
ATOM     16  C   UNL     1       5.880   5.191  18.989  0.00  0.00    +0.000 A 
ATOM     17  C   UNL     1       4.667   4.670  18.546  0.00  0.00    +0.000 A 
ENDBRANCH   1  17
BRANCH   7  18
ATOM     18  C   UNL     1       0.657  10.589  19.099  0.00  0.00    +0.000 C 
ATOM     19  O   UNL     1       1.638  10.843  18.402  0.00  0.00    +0.000 OA
BRANCH  18  20
ATOM     20  C   UNL     1      -0.658  11.197  18.867  0.00  0.00    +0.000 A 
ATOM     21  C   UNL     1      -1.168  12.288  19.553  0.00  0.00    +0.000 A 
ATOM     22  N   UNL     1      -2.401  12.589  19.043  0.00  0.00    +0.000 N 
ATOM     23  C   UNL     1      -2.730  11.703  18.047  0.00  0.00    +0.000 A 
ATOM     24  C   UNL     1      -3.888  11.628  17.263  0.00  0.00    +0.000 A 
ATOM     25  C   UNL     1      -3.963  10.609  16.308  0.00  0.00    +0.000 A 
ATOM     26  C   UNL     1      -2.915   9.706  16.149  0.00  0.00    +0.000 A 
ATOM     27  C   UNL     1      -1.759   9.801  16.936  0.00  0.00    +0.000 A 
ATOM     28  C   UNL     1      -1.658  10.818  17.910  0.00  0.00    +0.000 A 
ATOM     29  H   UNL     1      -2.988  13.355  19.346  0.00  0.00    +0.000 HD
ENDBRANCH  18  20
ENDBRANCH   7  18
TORSDOF 3
ENDMDL
MODEL 3
REMARK VINA RESULT:      -8.5      0.905      1.691
REMARK  Name = 
REMARK  4 active torsions:
REMARK  status: ('A' for Active; 'I' for Inactive)
REMARK    1  A    between atoms: C_1  and  C_2
REMARK    2  A    between atoms: C_7  and  C_8
REMARK    3  A    between atoms: C_14  and  C_16
REMARK    4  A    between atoms: C_16  and  C_18
REMARK                            x       y       z     vdW  Elec       q    Type
REMARK                         _______ _______ _______ _____ _____    ______ ____
ROOT
ATOM      1  C   UNL     1       4.034   4.281  18.821  0.00  0.00    +0.000 C 
ATOM      2  O   UNL     1       4.017   3.319  19.584  0.00  0.00    +0.000 OA
ATOM      3  N   UNL     1       3.122   5.338  18.928  0.00  0.00    +0.000 N 
ATOM      4  C   UNL     1       2.241   5.410  20.098  0.00  0.00    +0.000 C 
ATOM      5  C   UNL     1       2.142   6.855  20.611  0.00  0.00    +0.000 C 
ATOM      6  N   UNL     1       1.802   7.812  19.547  0.00  0.00    +0.000 N 
ATOM      7  C   UNL     1       1.205   9.022  19.936  0.00  0.00    +0.000 C 
ATOM      8  O   UNL     1       0.862   9.264  21.093  0.00  0.00    +0.000 OA
ATOM      9  C   UNL     1       2.570   7.682  18.300  0.00  0.00    +0.000 C 
ATOM     10  C   UNL     1       2.698   6.222  17.832  0.00  0.00    +0.000 C 
ENDROOT
BRANCH   1  17
ATOM     11  C   UNL     1       6.779   5.570  19.335  0.00  0.00    +0.000 C 
ATOM     12  C   UNL     1       6.390   4.914  18.039  0.00  0.00    +0.000 A 
ATOM     13  C   UNL     1       7.322   4.909  16.988  0.00  0.00    +0.000 A 
ATOM     14  C   UNL     1       6.961   4.378  15.759  0.00  0.00    +0.000 A 
ATOM     15  N   UNL     1       5.731   3.904  15.486  0.00  0.00    +0.000 NA
ATOM     16  C   UNL     1       4.837   3.943  16.502  0.00  0.00    +0.000 A 
ATOM     17  C   UNL     1       5.119   4.361  17.801  0.00  0.00    +0.000 A 
ENDBRANCH   1  17
BRANCH   7  18
ATOM     18  C   UNL     1       0.908  10.069  18.853  0.00  0.00    +0.000 C 
ATOM     19  O   UNL     1       1.864  10.607  18.295  0.00  0.00    +0.000 OA
BRANCH  18  20
ATOM     20  C   UNL     1      -0.485  10.370  18.504  0.00  0.00    +0.000 A 
ATOM     21  C   UNL     1      -1.168   9.850  17.416  0.00  0.00    +0.000 A 
ATOM     22  N   UNL     1      -2.449  10.329  17.433  0.00  0.00    +0.000 N 
ATOM     23  C   UNL     1      -2.623  11.178  18.499  0.00  0.00    +0.000 A 
ATOM     24  C   UNL     1      -3.758  11.896  18.895  0.00  0.00    +0.000 A 
ATOM     25  C   UNL     1      -3.655  12.698  20.036  0.00  0.00    +0.000 A 
ATOM     26  C   UNL     1      -2.460  12.772  20.748  0.00  0.00    +0.000 A 
ATOM     27  C   UNL     1      -1.336  12.040  20.342  0.00  0.00    +0.000 A 
ATOM     28  C   UNL     1      -1.411  11.224  19.192  0.00  0.00    +0.000 A 
ATOM     29  H   UNL     1      -3.171  10.094  16.765  0.00  0.00    +0.000 HD
ENDBRANCH  18  20
ENDBRANCH   7  18
TORSDOF 3
ENDMDL
MODEL 4
REMARK VINA RESULT:      -8.4      1.404      2.221
REMARK  Name = 
REMARK  4 active torsions:
REMARK  status: ('A' for Active; 'I' for Inactive)
REMARK    1  A    between atoms: C_1  and  C_2
REMARK    2  A    between atoms: C_7  and  C_8
REMARK    3  A    between atoms: C_14  and  C_16
REMARK    4  A    between atoms: C_16  and  C_18
REMARK                            x       y       z     vdW  Elec       q    Type
REMARK                         _______ _______ _______ _____ _____    ______ ____
ROOT
ATOM      1  C   UNL     1       3.636   5.106  19.241  0.00  0.00    +0.000 C 
ATOM      2  O   UNL     1       3.678   4.204  20.073  0.00  0.00    +0.000 OA
ATOM      3  N   UNL     1       2.697   6.142  19.308  0.00  0.00    +0.000 N 
ATOM      4  C   UNL     1       1.862   6.278  20.504  0.00  0.00    +0.000 C 
ATOM      5  C   UNL     1       1.739   7.755  20.913  0.00  0.00    +0.000 C 
ATOM      6  N   UNL     1       1.329   8.620  19.796  0.00  0.00    +0.000 N 
ATOM      7  C   UNL     1       0.712   9.839  20.120  0.00  0.00    +0.000 C 
ATOM      8  O   UNL     1       0.408  10.158  21.268  0.00  0.00    +0.000 OA
ATOM      9  C   UNL     1       2.052   8.417  18.532  0.00  0.00    +0.000 C 
ATOM     10  C   UNL     1       2.204   6.930  18.168  0.00  0.00    +0.000 C 
ENDROOT
BRANCH   1  17
ATOM     11  C   UNL     1       3.538   3.375  16.701  0.00  0.00    +0.000 C 
ATOM     12  C   UNL     1       4.620   4.378  16.991  0.00  0.00    +0.000 A 
ATOM     13  C   UNL     1       5.665   4.518  16.063  0.00  0.00    +0.000 A 
ATOM     14  C   UNL     1       6.714   5.382  16.343  0.00  0.00    +0.000 A 
ATOM     15  N   UNL     1       6.825   6.068  17.495  0.00  0.00    +0.000 NA
ATOM     16  C   UNL     1       5.823   5.899  18.390  0.00  0.00    +0.000 A 
ATOM     17  C   UNL     1       4.677   5.138  18.173  0.00  0.00    +0.000 A 
ENDBRANCH   1  17
BRANCH   7  18
ATOM     18  C   UNL     1       0.342  10.794  18.976  0.00  0.00    +0.000 C 
ATOM     19  O   UNL     1       1.205  11.574  18.575  0.00  0.00    +0.000 OA
BRANCH  18  20
ATOM     20  C   UNL     1      -1.000  10.726  18.387  0.00  0.00    +0.000 A 
ATOM     21  C   UNL     1      -1.342  10.006  17.253  0.00  0.00    +0.000 A 
ATOM     22  N   UNL     1      -2.683  10.155  17.027  0.00  0.00    +0.000 N 
ATOM     23  C   UNL     1      -3.233  10.983  17.975  0.00  0.00    +0.000 A 
ATOM     24  C   UNL     1      -4.556  11.416  18.124  0.00  0.00    +0.000 A 
ATOM     25  C   UNL     1      -4.845  12.270  19.193  0.00  0.00    +0.000 A 
ATOM     26  C   UNL     1      -3.843  12.668  20.075  0.00  0.00    +0.000 A 
ATOM     27  C   UNL     1      -2.526  12.217  19.917  0.00  0.00    +0.000 A 
ATOM     28  C   UNL     1      -2.206  11.357  18.844  0.00  0.00    +0.000 A 
ATOM     29  H   UNL     1      -3.201   9.719  16.276  0.00  0.00    +0.000 HD
ENDBRANCH  18  20
ENDBRANCH   7  18
TORSDOF 3
ENDMDL
MODEL 5
REMARK VINA RESULT:      -8.4      2.327      3.348
REMARK  Name = 
REMARK  4 active torsions:
REMARK  status: ('A' for Active; 'I' for Inactive)
REMARK    1  A    between atoms: C_1  and  C_2
REMARK    2  A    between atoms: C_7  and  C_8
REMARK    3  A    between atoms: C_14  and  C_16
REMARK    4  A    between atoms: C_16  and  C_18
REMARK                            x       y       z     vdW  Elec       q    Type
REMARK                         _______ _______ _______ _____ _____    ______ ____
ROOT
ATOM      1  C   UNL     1       3.718   4.861  19.534  0.00  0.00    +0.000 C 
ATOM      2  O   UNL     1       3.675   4.006  20.414  0.00  0.00    +0.000 OA
ATOM      3  N   UNL     1       2.790   5.908  19.461  0.00  0.00    +0.000 N 
ATOM      4  C   UNL     1       1.855   6.116  20.570  0.00  0.00    +0.000 C 
ATOM      5  C   UNL     1       1.717   7.614  20.887  0.00  0.00    +0.000 C 
ATOM      6  N   UNL     1       1.417   8.419  19.693  0.00  0.00    +0.000 N 
ATOM      7  C   UNL     1       0.790   9.660  19.894  0.00  0.00    +0.000 C 
ATOM      8  O   UNL     1       0.391  10.043  20.993  0.00  0.00    +0.000 OA
ATOM      9  C   UNL     1       2.245   8.141  18.510  0.00  0.00    +0.000 C 
ATOM     10  C   UNL     1       2.409   6.636  18.242  0.00  0.00    +0.000 C 
ENDROOT
BRANCH   1  17
ATOM     11  C   UNL     1       3.619   3.373  16.844  0.00  0.00    +0.000 C 
ATOM     12  C   UNL     1       4.798   4.180  17.313  0.00  0.00    +0.000 A 
ATOM     13  C   UNL     1       5.935   4.240  16.491  0.00  0.00    +0.000 A 
ATOM     14  C   UNL     1       7.062   4.915  16.934  0.00  0.00    +0.000 A 
ATOM     15  N   UNL     1       7.159   5.483  18.150  0.00  0.00    +0.000 NA
ATOM     16  C   UNL     1       6.064   5.390  18.941  0.00  0.00    +0.000 A 
ATOM     17  C   UNL     1       4.848   4.826  18.562  0.00  0.00    +0.000 A 
ENDBRANCH   1  17
BRANCH   7  18
ATOM     18  C   UNL     1       0.534  10.553  18.672  0.00  0.00    +0.000 C 
ATOM     19  O   UNL     1      -0.323  10.195  17.867  0.00  0.00    +0.000 OA
BRANCH  18  20
ATOM     20  C   UNL     1       1.290  11.802  18.522  0.00  0.00    +0.000 A 
ATOM     21  C   UNL     1       2.590  11.900  18.053  0.00  0.00    +0.000 A 
ATOM     22  N   UNL     1       2.946  13.221  18.022  0.00  0.00    +0.000 N 
ATOM     23  C   UNL     1       1.915  14.000  18.485  0.00  0.00    +0.000 A 
ATOM     24  C   UNL     1       1.842  15.390  18.636  0.00  0.00    +0.000 A 
ATOM     25  C   UNL     1       0.654  15.929  19.140  0.00  0.00    +0.000 A 
ATOM     26  C   UNL     1      -0.415  15.102  19.476  0.00  0.00    +0.000 A 
ATOM     27  C   UNL     1      -0.329  13.713  19.309  0.00  0.00    +0.000 A 
ATOM     28  C   UNL     1       0.860  13.142  18.806  0.00  0.00    +0.000 A 
ATOM     29  H   UNL     1       3.836  13.579  17.700  0.00  0.00    +0.000 HD
ENDBRANCH  18  20
ENDBRANCH   7  18
TORSDOF 3
ENDMDL
MODEL 6
REMARK VINA RESULT:      -8.2      2.058      2.887
REMARK  Name = 
REMARK  4 active torsions:
REMARK  status: ('A' for Active; 'I' for Inactive)
REMARK    1  A    between atoms: C_1  and  C_2
REMARK    2  A    between atoms: C_7  and  C_8
REMARK    3  A    between atoms: C_14  and  C_16
REMARK    4  A    between atoms: C_16  and  C_18
REMARK                            x       y       z     vdW  Elec       q    Type
REMARK                         _______ _______ _______ _____ _____    ______ ____
ROOT
ATOM      1  C   UNL     1       3.980   4.486  18.960  0.00  0.00    +0.000 C 
ATOM      2  O   UNL     1       4.021   3.602  19.812  0.00  0.00    +0.000 OA
ATOM      3  N   UNL     1       3.046   5.528  19.006  0.00  0.00    +0.000 N 
ATOM      4  C   UNL     1       2.215   5.694  20.202  0.00  0.00    +0.000 C 
ATOM      5  C   UNL     1       2.100   7.180  20.578  0.00  0.00    +0.000 C 
ATOM      6  N   UNL     1       1.690   8.021  19.443  0.00  0.00    +0.000 N 
ATOM      7  C   UNL     1       1.080   9.251  19.741  0.00  0.00    +0.000 C 
ATOM      8  O   UNL     1       0.780   9.596  20.883  0.00  0.00    +0.000 OA
ATOM      9  C   UNL     1       2.407   7.787  18.182  0.00  0.00    +0.000 C 
ATOM     10  C   UNL     1       2.552   6.292  17.851  0.00  0.00    +0.000 C 
ENDROOT
BRANCH   1  17
ATOM     11  C   UNL     1       6.832   5.573  19.339  0.00  0.00    +0.000 C 
ATOM     12  C   UNL     1       6.335   4.949  18.065  0.00  0.00    +0.000 A 
ATOM     13  C   UNL     1       7.212   4.879  16.971  0.00  0.00    +0.000 A 
ATOM     14  C   UNL     1       6.756   4.377  15.762  0.00  0.00    +0.000 A 
ATOM     15  N   UNL     1       5.483   3.994  15.548  0.00  0.00    +0.000 NA
ATOM     16  C   UNL     1       4.644   4.095  16.606  0.00  0.00    +0.000 A 
ATOM     17  C   UNL     1       5.017   4.489  17.889  0.00  0.00    +0.000 A 
ENDBRANCH   1  17
BRANCH   7  18
ATOM     18  C   UNL     1       0.710  10.181  18.577  0.00  0.00    +0.000 C 
ATOM     19  O   UNL     1      -0.150   9.798  17.785  0.00  0.00    +0.000 OA
BRANCH  18  20
ATOM     20  C   UNL     1       1.363  11.490  18.466  0.00  0.00    +0.000 A 
ATOM     21  C   UNL     1       2.639  11.709  17.969  0.00  0.00    +0.000 A 
ATOM     22  N   UNL     1       2.892  13.053  17.989  0.00  0.00    +0.000 N 
ATOM     23  C   UNL     1       1.819  13.729  18.514  0.00  0.00    +0.000 A 
ATOM     24  C   UNL     1       1.645  15.101  18.731  0.00  0.00    +0.000 A 
ATOM     25  C   UNL     1       0.435  15.524  19.289  0.00  0.00    +0.000 A 
ATOM     26  C   UNL     1      -0.559  14.603  19.614  0.00  0.00    +0.000 A 
ATOM     27  C   UNL     1      -0.372  13.234  19.381  0.00  0.00    +0.000 A 
ATOM     28  C   UNL     1       0.842  12.779  18.821  0.00  0.00    +0.000 A 
ATOM     29  H   UNL     1       3.743  13.492  17.662  0.00  0.00    +0.000 HD
ENDBRANCH  18  20
ENDBRANCH   7  18
TORSDOF 3
ENDMDL
MODEL 7
REMARK VINA RESULT:      -8.1      1.771      8.265
REMARK  Name = 
REMARK  4 active torsions:
REMARK  status: ('A' for Active; 'I' for Inactive)
REMARK    1  A    between atoms: C_1  and  C_2
REMARK    2  A    between atoms: C_7  and  C_8
REMARK    3  A    between atoms: C_14  and  C_16
REMARK    4  A    between atoms: C_16  and  C_18
REMARK                            x       y       z     vdW  Elec       q    Type
REMARK                         _______ _______ _______ _____ _____    ______ ____
ROOT
ATOM      1  C   UNL     1       0.489   9.622  20.653  0.00  0.00    +0.000 C 
ATOM      2  O   UNL     1       0.248   9.846  21.836  0.00  0.00    +0.000 OA
ATOM      3  N   UNL     1       1.313   8.567  20.244  0.00  0.00    +0.000 N 
ATOM      4  C   UNL     1       1.750   7.574  21.229  0.00  0.00    +0.000 C 
ATOM      5  C   UNL     1       1.673   6.157  20.639  0.00  0.00    +0.000 C 
ATOM      6  N   UNL     1       2.351   6.047  19.338  0.00  0.00    +0.000 N 
ATOM      7  C   UNL     1       2.783   4.770  18.944  0.00  0.00    +0.000 C 
ATOM      8  O   UNL     1       2.719   3.781  19.672  0.00  0.00    +0.000 OA
ATOM      9  C   UNL     1       2.045   7.107  18.366  0.00  0.00    +0.000 C 
ATOM     10  C   UNL     1       2.081   8.512  18.990  0.00  0.00    +0.000 C 
ENDROOT
BRANCH   1  17
ATOM     11  C   UNL     1       1.308  12.505  19.963  0.00  0.00    +0.000 C 
ATOM     12  C   UNL     1       0.202  11.759  19.271  0.00  0.00    +0.000 A 
ATOM     13  C   UNL     1      -0.522  12.423  18.266  0.00  0.00    +0.000 A 
ATOM     14  C   UNL     1      -1.595  11.784  17.664  0.00  0.00    +0.000 A 
ATOM     15  N   UNL     1      -2.032  10.563  18.025  0.00  0.00    +0.000 NA
ATOM     16  C   UNL     1      -1.341   9.950  19.015  0.00  0.00    +0.000 A 
ATOM     17  C   UNL     1      -0.191  10.454  19.619  0.00  0.00    +0.000 A 
ENDBRANCH   1  17
BRANCH   7  18
ATOM     18  C   UNL     1       3.426   4.615  17.558  0.00  0.00    +0.000 C 
ATOM     19  O   UNL     1       2.948   3.781  16.791  0.00  0.00    +0.000 OA
BRANCH  18  20
ATOM     20  C   UNL     1       4.556   5.475  17.188  0.00  0.00    +0.000 A 
ATOM     21  C   UNL     1       4.654   6.210  16.017  0.00  0.00    +0.000 A 
ATOM     22  N   UNL     1       5.828   6.912  16.037  0.00  0.00    +0.000 N 
ATOM     23  C   UNL     1       6.524   6.638  17.188  0.00  0.00    +0.000 A 
ATOM     24  C   UNL     1       7.766   7.120  17.619  0.00  0.00    +0.000 A 
ATOM     25  C   UNL     1       8.248   6.668  18.851  0.00  0.00    +0.000 A 
ATOM     26  C   UNL     1       7.509   5.770  19.618  0.00  0.00    +0.000 A 
ATOM     27  C   UNL     1       6.263   5.305  19.176  0.00  0.00    +0.000 A 
ATOM     28  C   UNL     1       5.754   5.742  17.934  0.00  0.00    +0.000 A 
ATOM     29  H   UNL     1       6.142   7.546  15.314  0.00  0.00    +0.000 HD
ENDBRANCH  18  20
ENDBRANCH   7  18
TORSDOF 3
ENDMDL
MODEL 8
REMARK VINA RESULT:      -7.9      2.809      4.174
REMARK  Name = 
REMARK  4 active torsions:
REMARK  status: ('A' for Active; 'I' for Inactive)
REMARK    1  A    between atoms: C_1  and  C_2
REMARK    2  A    between atoms: C_7  and  C_8
REMARK    3  A    between atoms: C_14  and  C_16
REMARK    4  A    between atoms: C_16  and  C_18
REMARK                            x       y       z     vdW  Elec       q    Type
REMARK                         _______ _______ _______ _____ _____    ______ ____
ROOT
ATOM      1  C   UNL     1       3.094   5.119  19.582  0.00  0.00    +0.000 C 
ATOM      2  O   UNL     1       2.977   4.221  20.413  0.00  0.00    +0.000 OA
ATOM      3  N   UNL     1       2.322   6.285  19.627  0.00  0.00    +0.000 N 
ATOM      4  C   UNL     1       1.485   6.548  20.802  0.00  0.00    +0.000 C 
ATOM      5  C   UNL     1       1.577   8.026  21.212  0.00  0.00    +0.000 C 
ATOM      6  N   UNL     1       1.332   8.941  20.087  0.00  0.00    +0.000 N 
ATOM      7  C   UNL     1       0.899  10.241  20.397  0.00  0.00    +0.000 C 
ATOM      8  O   UNL     1       0.616  10.604  21.539  0.00  0.00    +0.000 OA
ATOM      9  C   UNL     1       2.048   8.630  18.841  0.00  0.00    +0.000 C 
ATOM     10  C   UNL     1       1.983   7.137  18.477  0.00  0.00    +0.000 C 
ENDROOT
BRANCH   1  17
ATOM     11  C   UNL     1       2.818   3.386  17.056  0.00  0.00    +0.000 C 
ATOM     12  C   UNL     1       4.022   4.232  17.366  0.00  0.00    +0.000 A 
ATOM     13  C   UNL     1       5.099   4.213  16.464  0.00  0.00    +0.000 A 
ATOM     14  C   UNL     1       6.251   4.924  16.764  0.00  0.00    +0.000 A 
ATOM     15  N   UNL     1       6.429   5.603  17.912  0.00  0.00    +0.000 NA
ATOM     16  C   UNL     1       5.391   5.587  18.782  0.00  0.00    +0.000 A 
ATOM     17  C   UNL     1       4.155   4.991  18.542  0.00  0.00    +0.000 A 
ENDBRANCH   1  17
BRANCH   7  18
ATOM     18  C   UNL     1       0.708  11.239  19.247  0.00  0.00    +0.000 C 
ATOM     19  O   UNL     1      -0.319  11.153  18.574  0.00  0.00    +0.000 OA
BRANCH  18  20
ATOM     20  C   UNL     1       1.727  12.267  19.008  0.00  0.00    +0.000 A 
ATOM     21  C   UNL     1       2.571  12.319  17.910  0.00  0.00    +0.000 A 
ATOM     22  N   UNL     1       3.360  13.431  18.015  0.00  0.00    +0.000 N 
ATOM     23  C   UNL     1       3.073  14.107  19.175  0.00  0.00    +0.000 A 
ATOM     24  C   UNL     1       3.637  15.280  19.690  0.00  0.00    +0.000 A 
ATOM     25  C   UNL     1       3.151  15.755  20.912  0.00  0.00    +0.000 A 
ATOM     26  C   UNL     1       2.138  15.076  21.586  0.00  0.00    +0.000 A 
ATOM     27  C   UNL     1       1.578  13.908  21.052  0.00  0.00    +0.000 A 
ATOM     28  C   UNL     1       2.052  13.404  19.821  0.00  0.00    +0.000 A 
ATOM     29  H   UNL     1       4.052  13.723  17.337  0.00  0.00    +0.000 HD
ENDBRANCH  18  20
ENDBRANCH   7  18
TORSDOF 3
ENDMDL
MODEL 9
REMARK VINA RESULT:      -7.9      2.020      3.057
REMARK  Name = 
REMARK  4 active torsions:
REMARK  status: ('A' for Active; 'I' for Inactive)
REMARK    1  A    between atoms: C_1  and  C_2
REMARK    2  A    between atoms: C_7  and  C_8
REMARK    3  A    between atoms: C_14  and  C_16
REMARK    4  A    between atoms: C_16  and  C_18
REMARK                            x       y       z     vdW  Elec       q    Type
REMARK                         _______ _______ _______ _____ _____    ______ ____
ROOT
ATOM      1  C   UNL     1       3.540   5.232  17.947  0.00  0.00    +0.000 C 
ATOM      2  O   UNL     1       4.486   5.024  17.193  0.00  0.00    +0.000 OA
ATOM      3  N   UNL     1       3.200   6.517  18.385  0.00  0.00    +0.000 N 
ATOM      4  C   UNL     1       3.858   7.679  17.779  0.00  0.00    +0.000 C 
ATOM      5  C   UNL     1       2.840   8.800  17.516  0.00  0.00    +0.000 C 
ATOM      6  N   UNL     1       2.032   9.121  18.702  0.00  0.00    +0.000 N 
ATOM      7  C   UNL     1       1.452  10.399  18.758  0.00  0.00    +0.000 C 
ATOM      8  O   UNL     1       1.676  11.280  17.928  0.00  0.00    +0.000 OA
ATOM      9  C   UNL     1       1.467   7.971  19.422  0.00  0.00    +0.000 C 
ATOM     10  C   UNL     1       2.490   6.842  19.631  0.00  0.00    +0.000 C 
ENDROOT
BRANCH   1  17
ATOM     11  C   UNL     1       4.495   2.897  19.708  0.00  0.00    +0.000 C 
ATOM     12  C   UNL     1       3.095   3.029  19.177  0.00  0.00    +0.000 A 
ATOM     13  C   UNL     1       2.171   2.015  19.477  0.00  0.00    +0.000 A 
ATOM     14  C   UNL     1       0.895   2.074  18.937  0.00  0.00    +0.000 A 
ATOM     15  N   UNL     1       0.492   3.032  18.082  0.00  0.00    +0.000 NA
ATOM     16  C   UNL     1       1.406   3.986  17.781  0.00  0.00    +0.000 A 
ATOM     17  C   UNL     1       2.677   4.080  18.341  0.00  0.00    +0.000 A 
ENDBRANCH   1  17
BRANCH   7  18
ATOM     18  C   UNL     1       0.543  10.735  19.949  0.00  0.00    +0.000 C 
ATOM     19  O   UNL     1       1.006  10.606  21.081  0.00  0.00    +0.000 OA
BRANCH  18  20
ATOM     20  C   UNL     1      -0.820  11.218  19.701  0.00  0.00    +0.000 A 
ATOM     21  C   UNL     1      -1.508  12.120  20.498  0.00  0.00    +0.000 A 
ATOM     22  N   UNL     1      -2.732  12.357  19.937  0.00  0.00    +0.000 N 
ATOM     23  C   UNL     1      -2.881  11.609  18.794  0.00  0.00    +0.000 A 
ATOM     24  C   UNL     1      -3.966  11.529  17.913  0.00  0.00    +0.000 A 
ATOM     25  C   UNL     1      -3.849  10.674  16.813  0.00  0.00    +0.000 A 
ATOM     26  C   UNL     1      -2.688   9.933  16.609  0.00  0.00    +0.000 A 
ATOM     27  C   UNL     1      -1.608  10.032  17.495  0.00  0.00    +0.000 A 
ATOM     28  C   UNL     1      -1.699  10.886  18.617  0.00  0.00    +0.000 A 
ATOM     29  H   UNL     1      -3.430  12.992  20.301  0.00  0.00    +0.000 HD
ENDBRANCH  18  20
ENDBRANCH   7  18
TORSDOF 3
ENDMDL
