MODEL 1
REMARK VINA RESULT:      -7.4      0.000      0.000
REMARK  Name = 
REMARK  7 active torsions:
REMARK  status: ('A' for Active; 'I' for Inactive)
REMARK    1  A    between atoms: C_1  and  C_2
REMARK    2  A    between atoms: C_2  and  O_3
REMARK    3  A    between atoms: O_3  and  C_4
REMARK    4  A    between atoms: C_4  and  C_6
REMARK    5  A    between atoms: C_6  and  C_7
REMARK    6  A    between atoms: C_9  and  O_10
REMARK    7  A    between atoms: C_13  and  C_14
REMARK                            x       y       z     vdW  Elec       q    Type
REMARK                         _______ _______ _______ _____ _____    ______ ____
ROOT
ATOM      1  C   UNL     1       4.783   4.939  16.907  0.00  0.00    +0.000 A 
ATOM      2  C   UNL     1       4.729   3.557  16.787  0.00  0.00    +0.000 A 
ATOM      3  C   UNL     1       4.029   2.850  17.751  0.00  0.00    +0.000 A 
ATOM      4  C   UNL     1       3.392   3.511  18.811  0.00  0.00    +0.000 A 
ATOM      5  C   UNL     1       2.678   2.825  19.820  0.00  0.00    +0.000 A 
ATOM      6  C   UNL     1       2.046   3.517  20.853  0.00  0.00    +0.000 A 
ATOM      7  C   UNL     1       1.264   2.780  21.901  0.00  0.00    +0.000 C 
ATOM      8  C   UNL     1       2.122   4.908  20.869  0.00  0.00    +0.000 A 
ATOM      9  C   UNL     1       2.843   5.585  19.876  0.00  0.00    +0.000 A 
ATOM     10  C   UNL     1       3.484   4.914  18.842  0.00  0.00    +0.000 A 
ATOM     11  N   UNL     1       4.165   5.611  17.912  0.00  0.00    +0.000 NA
ENDROOT
BRANCH   3  12
ATOM     12  O   UNL     1       3.962   1.482  17.674  0.00  0.00    +0.000 OA
ATOM     13  H   UNL     1       3.199   1.172  18.190  0.00  0.00    +0.000 HD
ENDBRANCH   3  12
BRANCH   1  14
ATOM     14  C   UNL     1       5.592   5.751  15.931  0.00  0.00    +0.000 C 
BRANCH  14  15
ATOM     15  C   UNL     1       7.071   5.603  16.191  0.00  0.00    +0.000 C 
ATOM     16  O   UNL     1       7.694   4.551  16.185  0.00  0.00    +0.000 OA
BRANCH  15  17
ATOM     17  O   UNL     1       7.615   6.833  16.428  0.00  0.00    +0.000 OA
BRANCH  17  19
ATOM     18  C   UNL     1       7.985   8.709  17.854  0.00  0.00    +0.000 C 
ATOM     19  C   UNL     1       7.640   7.231  17.804  0.00  0.00    +0.000 C 
ENDBRANCH  17  19
ENDBRANCH  15  17
ENDBRANCH  14  15
ENDBRANCH   1  14
TORSDOF 5
ENDMDL
MODEL 2
REMARK VINA RESULT:      -7.1      2.335      6.006
REMARK  Name = 
REMARK  7 active torsions:
REMARK  status: ('A' for Active; 'I' for Inactive)
REMARK    1  A    between atoms: C_1  and  C_2
REMARK    2  A    between atoms: C_2  and  O_3
REMARK    3  A    between atoms: O_3  and  C_4
REMARK    4  A    between atoms: C_4  and  C_6
REMARK    5  A    between atoms: C_6  and  C_7
REMARK    6  A    between atoms: C_9  and  O_10
REMARK    7  A    between atoms: C_13  and  C_14
REMARK                            x       y       z     vdW  Elec       q    Type
REMARK                         _______ _______ _______ _____ _____    ______ ____
ROOT
ATOM      1  C   UNL     1       3.158   3.563  17.653  0.00  0.00    +0.000 A 
ATOM      2  C   UNL     1       2.526   4.787  17.825  0.00  0.00    +0.000 A 
ATOM      3  C   UNL     1       3.313   5.927  17.826  0.00  0.00    +0.000 A 
ATOM      4  C   UNL     1       4.703   5.847  17.654  0.00  0.00    +0.000 A 
ATOM      5  C   UNL     1       5.541   6.984  17.660  0.00  0.00    +0.000 A 
ATOM      6  C   UNL     1       6.918   6.867  17.473  0.00  0.00    +0.000 A 
ATOM      7  C   UNL     1       7.794   8.086  17.450  0.00  0.00    +0.000 C 
ATOM      8  C   UNL     1       7.458   5.599  17.269  0.00  0.00    +0.000 A 
ATOM      9  C   UNL     1       6.627   4.470  17.278  0.00  0.00    +0.000 A 
ATOM     10  C   UNL     1       5.254   4.566  17.468  0.00  0.00    +0.000 A 
ATOM     11  N   UNL     1       4.498   3.450  17.469  0.00  0.00    +0.000 NA
ENDROOT
BRANCH   3  12
ATOM     12  O   UNL     1       2.729   7.155  18.004  0.00  0.00    +0.000 OA
ATOM     13  H   UNL     1       3.279   7.834  17.580  0.00  0.00    +0.000 HD
ENDBRANCH   3  12
BRANCH   1  14
ATOM     14  C   UNL     1       2.363   2.287  17.718  0.00  0.00    +0.000 C 
BRANCH  14  15
ATOM     15  C   UNL     1       1.454   2.270  18.923  0.00  0.00    +0.000 C 
ATOM     16  O   UNL     1       0.234   2.359  18.897  0.00  0.00    +0.000 OA
BRANCH  15  17
ATOM     17  O   UNL     1       2.203   2.132  20.056  0.00  0.00    +0.000 OA
BRANCH  17  19
ATOM     18  C   UNL     1       2.208   4.122  21.372  0.00  0.00    +0.000 C 
ATOM     19  C   UNL     1       1.638   2.721  21.233  0.00  0.00    +0.000 C 
ENDBRANCH  17  19
ENDBRANCH  15  17
ENDBRANCH  14  15
ENDBRANCH   1  14
TORSDOF 5
ENDMDL
MODEL 3
REMARK VINA RESULT:      -7.1      1.222      2.090
REMARK  Name = 
REMARK  7 active torsions:
REMARK  status: ('A' for Active; 'I' for Inactive)
REMARK    1  A    between atoms: C_1  and  C_2
REMARK    2  A    between atoms: C_2  and  O_3
REMARK    3  A    between atoms: O_3  and  C_4
REMARK    4  A    between atoms: C_4  and  C_6
REMARK    5  A    between atoms: C_6  and  C_7
REMARK    6  A    between atoms: C_9  and  O_10
REMARK    7  A    between atoms: C_13  and  C_14
REMARK                            x       y       z     vdW  Elec       q    Type
REMARK                         _______ _______ _______ _____ _____    ______ ____
ROOT
ATOM      1  C   UNL     1       4.662   4.979  16.892  0.00  0.00    +0.000 A 
ATOM      2  C   UNL     1       4.670   3.594  16.790  0.00  0.00    +0.000 A 
ATOM      3  C   UNL     1       4.010   2.868  17.769  0.00  0.00    +0.000 A 
ATOM      4  C   UNL     1       3.351   3.513  18.825  0.00  0.00    +0.000 A 
ATOM      5  C   UNL     1       2.677   2.809  19.848  0.00  0.00    +0.000 A 
ATOM      6  C   UNL     1       2.020   3.484  20.877  0.00  0.00    +0.000 A 
ATOM      7  C   UNL     1       1.281   2.726  21.941  0.00  0.00    +0.000 C 
ATOM      8  C   UNL     1       2.034   4.878  20.876  0.00  0.00    +0.000 A 
ATOM      9  C   UNL     1       2.716   5.574  19.868  0.00  0.00    +0.000 A 
ATOM     10  C   UNL     1       3.379   4.919  18.838  0.00  0.00    +0.000 A 
ATOM     11  N   UNL     1       4.021   5.635  17.893  0.00  0.00    +0.000 NA
ENDROOT
BRANCH   3  12
ATOM     12  O   UNL     1       4.004   1.498  17.709  0.00  0.00    +0.000 OA
ATOM     13  H   UNL     1       4.855   1.163  18.036  0.00  0.00    +0.000 HD
ENDBRANCH   3  12
BRANCH   1  14
ATOM     14  C   UNL     1       5.425   5.814  15.900  0.00  0.00    +0.000 C 
BRANCH  14  15
ATOM     15  C   UNL     1       6.900   5.497  15.939  0.00  0.00    +0.000 C 
ATOM     16  O   UNL     1       7.572   5.355  16.951  0.00  0.00    +0.000 OA
BRANCH  15  17
ATOM     17  O   UNL     1       7.375   5.384  14.664  0.00  0.00    +0.000 OA
BRANCH  17  19
ATOM     18  C   UNL     1       7.306   4.486  12.455  0.00  0.00    +0.000 C 
ATOM     19  C   UNL     1       6.679   4.443  13.838  0.00  0.00    +0.000 C 
ENDBRANCH  17  19
ENDBRANCH  15  17
ENDBRANCH  14  15
ENDBRANCH   1  14
TORSDOF 5
ENDMDL
MODEL 4
REMARK VINA RESULT:      -7.1      2.081      3.348
REMARK  Name = 
REMARK  7 active torsions:
REMARK  status: ('A' for Active; 'I' for Inactive)
REMARK    1  A    between atoms: C_1  and  C_2
REMARK    2  A    between atoms: C_2  and  O_3
REMARK    3  A    between atoms: O_3  and  C_4
REMARK    4  A    between atoms: C_4  and  C_6
REMARK    5  A    between atoms: C_6  and  C_7
REMARK    6  A    between atoms: C_9  and  O_10
REMARK    7  A    between atoms: C_13  and  C_14
REMARK                            x       y       z     vdW  Elec       q    Type
REMARK                         _______ _______ _______ _____ _____    ______ ____
ROOT
ATOM      1  C   UNL     1       4.727   5.370  16.654  0.00  0.00    +0.000 A 
ATOM      2  C   UNL     1       4.164   6.430  17.353  0.00  0.00    +0.000 A 
ATOM      3  C   UNL     1       3.364   6.134  18.445  0.00  0.00    +0.000 A 
ATOM      4  C   UNL     1       3.135   4.806  18.834  0.00  0.00    +0.000 A 
ATOM      5  C   UNL     1       2.318   4.463  19.934  0.00  0.00    +0.000 A 
ATOM      6  C   UNL     1       2.122   3.131  20.300  0.00  0.00    +0.000 A 
ATOM      7  C   UNL     1       1.278   2.779  21.490  0.00  0.00    +0.000 C 
ATOM      8  C   UNL     1       2.760   2.135  19.561  0.00  0.00    +0.000 A 
ATOM      9  C   UNL     1       3.559   2.477  18.461  0.00  0.00    +0.000 A 
ATOM     10  C   UNL     1       3.761   3.798  18.078  0.00  0.00    +0.000 A 
ATOM     11  N   UNL     1       4.537   4.074  17.012  0.00  0.00    +0.000 NA
ENDROOT
BRANCH   3  12
ATOM     12  O   UNL     1       2.782   7.152  19.155  0.00  0.00    +0.000 OA
ATOM     13  H   UNL     1       2.176   7.640  18.572  0.00  0.00    +0.000 HD
ENDBRANCH   3  12
BRANCH   1  14
ATOM     14  C   UNL     1       5.541   5.630  15.416  0.00  0.00    +0.000 C 
BRANCH  14  15
ATOM     15  C   UNL     1       6.810   4.813  15.414  0.00  0.00    +0.000 C 
ATOM     16  O   UNL     1       7.669   4.829  16.285  0.00  0.00    +0.000 OA
BRANCH  15  17
ATOM     17  O   UNL     1       6.853   4.042  14.289  0.00  0.00    +0.000 OA
BRANCH  17  19
ATOM     18  C   UNL     1       5.916   3.262  12.238  0.00  0.00    +0.000 C 
ATOM     19  C   UNL     1       5.633   3.995  13.538  0.00  0.00    +0.000 C 
ENDBRANCH  17  19
ENDBRANCH  15  17
ENDBRANCH  14  15
ENDBRANCH   1  14
TORSDOF 5
ENDMDL
MODEL 5
REMARK VINA RESULT:      -7.0      2.188      3.260
REMARK  Name = 
REMARK  7 active torsions:
REMARK  status: ('A' for Active; 'I' for Inactive)
REMARK    1  A    between atoms: C_1  and  C_2
REMARK    2  A    between atoms: C_2  and  O_3
REMARK    3  A    between atoms: O_3  and  C_4
REMARK    4  A    between atoms: C_4  and  C_6
REMARK    5  A    between atoms: C_6  and  C_7
REMARK    6  A    between atoms: C_9  and  O_10
REMARK    7  A    between atoms: C_13  and  C_14
REMARK                            x       y       z     vdW  Elec       q    Type
REMARK                         _______ _______ _______ _____ _____    ______ ____
ROOT
ATOM      1  C   UNL     1       4.976   5.038  16.566  0.00  0.00    +0.000 A 
ATOM      2  C   UNL     1       5.816   5.117  17.669  0.00  0.00    +0.000 A 
ATOM      3  C   UNL     1       5.331   4.667  18.886  0.00  0.00    +0.000 A 
ATOM      4  C   UNL     1       4.035   4.143  18.998  0.00  0.00    +0.000 A 
ATOM      5  C   UNL     1       3.500   3.684  20.223  0.00  0.00    +0.000 A 
ATOM      6  C   UNL     1       2.210   3.158  20.295  0.00  0.00    +0.000 A 
ATOM      7  C   UNL     1       1.664   2.644  21.595  0.00  0.00    +0.000 C 
ATOM      8  C   UNL     1       1.454   3.083  19.126  0.00  0.00    +0.000 A 
ATOM      9  C   UNL     1       1.981   3.553  17.916  0.00  0.00    +0.000 A 
ATOM     10  C   UNL     1       3.262   4.085  17.825  0.00  0.00    +0.000 A 
ATOM     11  N   UNL     1       3.722   4.524  16.637  0.00  0.00    +0.000 NA
ENDROOT
BRANCH   3  12
ATOM     12  O   UNL     1       6.126   4.737  20.001  0.00  0.00    +0.000 OA
ATOM     13  H   UNL     1       6.879   5.323  19.818  0.00  0.00    +0.000 HD
ENDBRANCH   3  12
BRANCH   1  14
ATOM     14  C   UNL     1       5.423   5.582  15.236  0.00  0.00    +0.000 C 
BRANCH  14  15
ATOM     15  C   UNL     1       6.652   4.864  14.736  0.00  0.00    +0.000 C 
ATOM     16  O   UNL     1       7.808   5.231  14.896  0.00  0.00    +0.000 OA
BRANCH  15  17
ATOM     17  O   UNL     1       6.278   3.727  14.080  0.00  0.00    +0.000 OA
BRANCH  17  19
ATOM     18  C   UNL     1       5.388   2.964  12.002  0.00  0.00    +0.000 C 
ATOM     19  C   UNL     1       6.515   3.736  12.666  0.00  0.00    +0.000 C 
ENDBRANCH  17  19
ENDBRANCH  15  17
ENDBRANCH  14  15
ENDBRANCH   1  14
TORSDOF 5
ENDMDL
MODEL 6
REMARK VINA RESULT:      -6.9      2.197      3.162
REMARK  Name = 
REMARK  7 active torsions:
REMARK  status: ('A' for Active; 'I' for Inactive)
REMARK    1  A    between atoms: C_1  and  C_2
REMARK    2  A    between atoms: C_2  and  O_3
REMARK    3  A    between atoms: O_3  and  C_4
REMARK    4  A    between atoms: C_4  and  C_6
REMARK    5  A    between atoms: C_6  and  C_7
REMARK    6  A    between atoms: C_9  and  O_10
REMARK    7  A    between atoms: C_13  and  C_14
REMARK                            x       y       z     vdW  Elec       q    Type
REMARK                         _______ _______ _______ _____ _____    ______ ____
ROOT
ATOM      1  C   UNL     1       4.922   4.494  16.972  0.00  0.00    +0.000 A 
ATOM      2  C   UNL     1       4.582   3.699  18.058  0.00  0.00    +0.000 A 
ATOM      3  C   UNL     1       3.777   4.254  19.040  0.00  0.00    +0.000 A 
ATOM      4  C   UNL     1       3.317   5.574  18.936  0.00  0.00    +0.000 A 
ATOM      5  C   UNL     1       2.504   6.180  19.921  0.00  0.00    +0.000 A 
ATOM      6  C   UNL     1       2.053   7.492  19.778  0.00  0.00    +0.000 A 
ATOM      7  C   UNL     1       1.164   8.114  20.814  0.00  0.00    +0.000 C 
ATOM      8  C   UNL     1       2.415   8.201  18.633  0.00  0.00    +0.000 A 
ATOM      9  C   UNL     1       3.234   7.604  17.665  0.00  0.00    +0.000 A 
ATOM     10  C   UNL     1       3.697   6.299  17.792  0.00  0.00    +0.000 A 
ATOM     11  N   UNL     1       4.483   5.771  16.833  0.00  0.00    +0.000 NA
ENDROOT
BRANCH   3  12
ATOM     12  O   UNL     1       3.427   3.504  20.134  0.00  0.00    +0.000 OA
ATOM     13  H   UNL     1       3.905   2.659  20.106  0.00  0.00    +0.000 HD
ENDBRANCH   3  12
BRANCH   1  14
ATOM     14  C   UNL     1       5.855   3.969  15.915  0.00  0.00    +0.000 C 
BRANCH  14  15
ATOM     15  C   UNL     1       7.240   4.549  16.069  0.00  0.00    +0.000 C 
ATOM     16  O   UNL     1       7.967   4.409  17.042  0.00  0.00    +0.000 OA
BRANCH  15  17
ATOM     17  O   UNL     1       7.565   5.254  14.946  0.00  0.00    +0.000 OA
BRANCH  17  19
ATOM     18  C   UNL     1       7.780   5.333  12.572  0.00  0.00    +0.000 C 
ATOM     19  C   UNL     1       6.981   4.765  13.732  0.00  0.00    +0.000 C 
ENDBRANCH  17  19
ENDBRANCH  15  17
ENDBRANCH  14  15
ENDBRANCH   1  14
TORSDOF 5
ENDMDL
MODEL 7
REMARK VINA RESULT:      -6.8      2.461      3.840
REMARK  Name = 
REMARK  7 active torsions:
REMARK  status: ('A' for Active; 'I' for Inactive)
REMARK    1  A    between atoms: C_1  and  C_2
REMARK    2  A    between atoms: C_2  and  O_3
REMARK    3  A    between atoms: O_3  and  C_4
REMARK    4  A    between atoms: C_4  and  C_6
REMARK    5  A    between atoms: C_6  and  C_7
REMARK    6  A    between atoms: C_9  and  O_10
REMARK    7  A    between atoms: C_13  and  C_14
REMARK                            x       y       z     vdW  Elec       q    Type
REMARK                         _______ _______ _______ _____ _____    ______ ____
ROOT
ATOM      1  C   UNL     1       5.895   4.653  16.396  0.00  0.00    +0.000 A 
ATOM      2  C   UNL     1       5.295   5.875  16.665  0.00  0.00    +0.000 A 
ATOM      3  C   UNL     1       4.090   5.869  17.350  0.00  0.00    +0.000 A 
ATOM      4  C   UNL     1       3.500   4.665  17.762  0.00  0.00    +0.000 A 
ATOM      5  C   UNL     1       2.268   4.616  18.453  0.00  0.00    +0.000 A 
ATOM      6  C   UNL     1       1.716   3.400  18.859  0.00  0.00    +0.000 A 
ATOM      7  C   UNL     1       0.424   3.362  19.619  0.00  0.00    +0.000 C 
ATOM      8  C   UNL     1       2.411   2.225  18.577  0.00  0.00    +0.000 A 
ATOM      9  C   UNL     1       3.626   2.276  17.879  0.00  0.00    +0.000 A 
ATOM     10  C   UNL     1       4.188   3.476  17.462  0.00  0.00    +0.000 A 
ATOM     11  N   UNL     1       5.358   3.470  16.793  0.00  0.00    +0.000 NA
ENDROOT
BRANCH   3  12
ATOM     12  O   UNL     1       3.460   7.055  17.626  0.00  0.00    +0.000 OA
ATOM     13  H   UNL     1       2.715   7.169  17.014  0.00  0.00    +0.000 HD
ENDBRANCH   3  12
BRANCH   1  14
ATOM     14  C   UNL     1       7.164   4.596  15.589  0.00  0.00    +0.000 C 
BRANCH  14  15
ATOM     15  C   UNL     1       6.888   4.794  14.119  0.00  0.00    +0.000 C 
ATOM     16  O   UNL     1       7.473   5.576  13.383  0.00  0.00    +0.000 OA
BRANCH  15  17
ATOM     17  O   UNL     1       5.883   3.957  13.729  0.00  0.00    +0.000 OA
BRANCH  17  19
ATOM     18  C   UNL     1       4.646   3.305  11.796  0.00  0.00    +0.000 C 
ATOM     19  C   UNL     1       6.029   3.403  12.415  0.00  0.00    +0.000 C 
ENDBRANCH  17  19
ENDBRANCH  15  17
ENDBRANCH  14  15
ENDBRANCH   1  14
TORSDOF 5
ENDMDL
MODEL 8
REMARK VINA RESULT:      -6.8      1.815      2.475
REMARK  Name = 
REMARK  7 active torsions:
REMARK  status: ('A' for Active; 'I' for Inactive)
REMARK    1  A    between atoms: C_1  and  C_2
REMARK    2  A    between atoms: C_2  and  O_3
REMARK    3  A    between atoms: O_3  and  C_4
REMARK    4  A    between atoms: C_4  and  C_6
REMARK    5  A    between atoms: C_6  and  C_7
REMARK    6  A    between atoms: C_9  and  O_10
REMARK    7  A    between atoms: C_13  and  C_14
REMARK                            x       y       z     vdW  Elec       q    Type
REMARK                         _______ _______ _______ _____ _____    ______ ____
ROOT
ATOM      1  C   UNL     1       4.402   5.908  17.083  0.00  0.00    +0.000 A 
ATOM      2  C   UNL     1       3.672   6.849  17.795  0.00  0.00    +0.000 A 
ATOM      3  C   UNL     1       2.906   6.404  18.861  0.00  0.00    +0.000 A 
ATOM      4  C   UNL     1       2.876   5.046  19.212  0.00  0.00    +0.000 A 
ATOM      5  C   UNL     1       2.100   4.551  20.284  0.00  0.00    +0.000 A 
ATOM      6  C   UNL     1       2.104   3.195  20.612  0.00  0.00    +0.000 A 
ATOM      7  C   UNL     1       1.301   2.686  21.773  0.00  0.00    +0.000 C 
ATOM      8  C   UNL     1       2.900   2.330  19.863  0.00  0.00    +0.000 A 
ATOM      9  C   UNL     1       3.657   2.821  18.790  0.00  0.00    +0.000 A 
ATOM     10  C   UNL     1       3.662   4.167  18.445  0.00  0.00    +0.000 A 
ATOM     11  N   UNL     1       4.407   4.588  17.404  0.00  0.00    +0.000 NA
ENDROOT
BRANCH   3  12
ATOM     12  O   UNL     1       2.162   7.301  19.583  0.00  0.00    +0.000 OA
ATOM     13  H   UNL     1       2.521   7.360  20.484  0.00  0.00    +0.000 HD
ENDBRANCH   3  12
BRANCH   1  14
ATOM     14  C   UNL     1       5.191   6.323  15.871  0.00  0.00    +0.000 C 
BRANCH  14  15
ATOM     15  C   UNL     1       6.666   6.403  16.178  0.00  0.00    +0.000 C 
ATOM     16  O   UNL     1       7.542   5.739  15.643  0.00  0.00    +0.000 OA
BRANCH  15  17
ATOM     17  O   UNL     1       6.878   7.342  17.145  0.00  0.00    +0.000 OA
BRANCH  17  19
ATOM     18  C   UNL     1       7.443   5.907  18.965  0.00  0.00    +0.000 C 
ATOM     19  C   UNL     1       7.928   7.035  18.071  0.00  0.00    +0.000 C 
ENDBRANCH  17  19
ENDBRANCH  15  17
ENDBRANCH  14  15
ENDBRANCH   1  14
TORSDOF 5
ENDMDL
MODEL 9
REMARK VINA RESULT:      -6.8      1.955      2.732
REMARK  Name = 
REMARK  7 active torsions:
REMARK  status: ('A' for Active; 'I' for Inactive)
REMARK    1  A    between atoms: C_1  and  C_2
REMARK    2  A    between atoms: C_2  and  O_3
REMARK    3  A    between atoms: O_3  and  C_4
REMARK    4  A    between atoms: C_4  and  C_6
REMARK    5  A    between atoms: C_6  and  C_7
REMARK    6  A    between atoms: C_9  and  O_10
REMARK    7  A    between atoms: C_13  and  C_14
REMARK                            x       y       z     vdW  Elec       q    Type
REMARK                         _______ _______ _______ _____ _____    ______ ____
ROOT
ATOM      1  C   UNL     1       4.220   6.136  17.203  0.00  0.00    +0.000 A 
ATOM      2  C   UNL     1       3.635   7.036  18.083  0.00  0.00    +0.000 A 
ATOM      3  C   UNL     1       2.931   6.524  19.161  0.00  0.00    +0.000 A 
ATOM      4  C   UNL     1       2.820   5.140  19.359  0.00  0.00    +0.000 A 
ATOM      5  C   UNL     1       2.102   4.579  20.439  0.00  0.00    +0.000 A 
ATOM      6  C   UNL     1       2.023   3.197  20.612  0.00  0.00    +0.000 A 
ATOM      7  C   UNL     1       1.285   2.612  21.781  0.00  0.00    +0.000 C 
ATOM      8  C   UNL     1       2.677   2.371  19.699  0.00  0.00    +0.000 A 
ATOM      9  C   UNL     1       3.375   2.930  18.620  0.00  0.00    +0.000 A 
ATOM     10  C   UNL     1       3.461   4.304  18.428  0.00  0.00    +0.000 A 
ATOM     11  N   UNL     1       4.144   4.791  17.373  0.00  0.00    +0.000 NA
ENDROOT
BRANCH   3  12
ATOM     12  O   UNL     1       2.328   7.380  20.046  0.00  0.00    +0.000 OA
ATOM     13  H   UNL     1       2.850   7.409  20.865  0.00  0.00    +0.000 HD
ENDBRANCH   3  12
BRANCH   1  14
ATOM     14  C   UNL     1       4.932   6.635  15.974  0.00  0.00    +0.000 C 
BRANCH  14  15
ATOM     15  C   UNL     1       5.893   5.602  15.441  0.00  0.00    +0.000 C 
ATOM     16  O   UNL     1       5.635   4.756  14.596  0.00  0.00    +0.000 OA
BRANCH  15  17
ATOM     17  O   UNL     1       7.108   5.759  16.043  0.00  0.00    +0.000 OA
BRANCH  17  19
ATOM     18  C   UNL     1       7.605   5.160  18.299  0.00  0.00    +0.000 C 
ATOM     19  C   UNL     1       7.525   4.662  16.866  0.00  0.00    +0.000 C 
ENDBRANCH  17  19
ENDBRANCH  15  17
ENDBRANCH  14  15
ENDBRANCH   1  14
TORSDOF 5
ENDMDL
