MODEL 1
REMARK VINA RESULT:      -8.7      0.000      0.000
REMARK  Name = 
REMARK  6 active torsions:
REMARK  status: ('A' for Active; 'I' for Inactive)
REMARK    1  A    between atoms: C_1  and  C_2
REMARK    2  A    between atoms: C_2  and  O_3
REMARK    3  A    between atoms: O_3  and  C_4
REMARK    4  A    between atoms: C_7  and  N_8
REMARK    5  A    between atoms: C_9  and  C_11
REMARK    6  A    between atoms: N_19  and  C_20
REMARK                            x       y       z     vdW  Elec       q    Type
REMARK                         _______ _______ _______ _____ _____    ______ ____
ROOT
ATOM      1  C   UNL     1       2.762   7.479  18.341  0.00  0.00    +0.000 A 
ATOM      2  C   UNL     1       2.424   6.271  18.998  0.00  0.00    +0.000 A 
ATOM      3  C   UNL     1       3.078   5.059  18.666  0.00  0.00    +0.000 A 
ATOM      4  C   UNL     1       4.090   5.118  17.720  0.00  0.00    +0.000 A 
ATOM      5  C   UNL     1       4.554   6.338  17.314  0.00  0.00    +0.000 A 
ATOM      6  C   UNL     1       3.905   7.523  17.545  0.00  0.00    +0.000 A 
ATOM      7  C   UNL     1       5.671   6.126  16.439  0.00  0.00    +0.000 C 
ATOM      8  O   UNL     1       6.529   6.981  16.328  0.00  0.00    +0.000 OA
ATOM      9  N   UNL     1       5.522   4.860  15.956  0.00  0.00    +0.000 N 
ATOM     10  C   UNL     1       4.707   4.127  16.802  0.00  0.00    +0.000 C 
ATOM     11  O   UNL     1       4.406   2.949  16.817  0.00  0.00    +0.000 OA
ENDROOT
BRANCH   9  12
ATOM     12  C   UNL     1       6.017   4.514  14.657  0.00  0.00    +0.000 A 
ATOM     13  C   UNL     1       7.210   5.110  14.184  0.00  0.00    +0.000 A 
ATOM     14  C   UNL     1       7.682   4.920  12.890  0.00  0.00    +0.000 A 
ATOM     15  C   UNL     1       6.961   4.125  12.019  0.00  0.00    +0.000 A 
ATOM     16  C   UNL     1       5.770   3.538  12.449  0.00  0.00    +0.000 A 
ATOM     17  C   UNL     1       5.297   3.727  13.758  0.00  0.00    +0.000 A 
ENDBRANCH   9  12
BRANCH   1  19
ATOM     18  N   UNL     1       1.201   8.993  19.473  0.00  0.00    +0.000 N 
ATOM     19  C   UNL     1       1.948   8.727  18.341  0.00  0.00    +0.000 C 
ATOM     20  O   UNL     1       1.949   9.391  17.308  0.00  0.00    +0.000 OA
ATOM     21  H   UNL     1       1.258   8.355  20.252  0.00  0.00    +0.000 HD
BRANCH  18  25
ATOM     22  C   UNL     1      -1.527  12.192  19.915  0.00  0.00    +0.000 A 
ATOM     23  C   UNL     1      -0.388  12.150  20.709  0.00  0.00    +0.000 A 
ATOM     24  C   UNL     1       0.535  11.114  20.569  0.00  0.00    +0.000 A 
ATOM     25  C   UNL     1       0.326  10.091  19.642  0.00  0.00    +0.000 A 
ATOM     26  C   UNL     1      -0.822  10.140  18.841  0.00  0.00    +0.000 A 
ATOM     27  C   UNL     1      -1.752  11.178  18.987  0.00  0.00    +0.000 A 
BRANCH  22  28
ATOM     28  O   UNL     1      -2.349  13.254  20.157  0.00  0.00    +0.000 OA
BRANCH  28  30
ATOM     29  C   UNL     1      -3.933  12.872  21.877  0.00  0.00    +0.000 C 
ATOM     30  C   UNL     1      -3.723  12.955  20.376  0.00  0.00    +0.000 C 
ENDBRANCH  28  30
ENDBRANCH  22  28
ENDBRANCH  18  25
ENDBRANCH   1  19
TORSDOF 5
ENDMDL
MODEL 2
REMARK VINA RESULT:      -8.4      0.417      1.319
REMARK  Name = 
REMARK  6 active torsions:
REMARK  status: ('A' for Active; 'I' for Inactive)
REMARK    1  A    between atoms: C_1  and  C_2
REMARK    2  A    between atoms: C_2  and  O_3
REMARK    3  A    between atoms: O_3  and  C_4
REMARK    4  A    between atoms: C_7  and  N_8
REMARK    5  A    between atoms: C_9  and  C_11
REMARK    6  A    between atoms: N_19  and  C_20
REMARK                            x       y       z     vdW  Elec       q    Type
REMARK                         _______ _______ _______ _____ _____    ______ ____
ROOT
ATOM      1  C   UNL     1       2.654   7.540  18.399  0.00  0.00    +0.000 A 
ATOM      2  C   UNL     1       2.340   6.313  19.033  0.00  0.00    +0.000 A 
ATOM      3  C   UNL     1       3.005   5.117  18.666  0.00  0.00    +0.000 A 
ATOM      4  C   UNL     1       4.005   5.211  17.710  0.00  0.00    +0.000 A 
ATOM      5  C   UNL     1       4.448   6.446  17.326  0.00  0.00    +0.000 A 
ATOM      6  C   UNL     1       3.787   7.616  17.591  0.00  0.00    +0.000 A 
ATOM      7  C   UNL     1       5.557   6.268  16.433  0.00  0.00    +0.000 C 
ATOM      8  O   UNL     1       6.403   7.136  16.331  0.00  0.00    +0.000 OA
ATOM      9  N   UNL     1       5.418   5.011  15.923  0.00  0.00    +0.000 N 
ATOM     10  C   UNL     1       4.623   4.249  16.762  0.00  0.00    +0.000 C 
ATOM     11  O   UNL     1       4.337   3.067  16.755  0.00  0.00    +0.000 OA
ENDROOT
BRANCH   9  12
ATOM     12  C   UNL     1       5.902   4.701  14.611  0.00  0.00    +0.000 A 
ATOM     13  C   UNL     1       5.129   3.878  13.759  0.00  0.00    +0.000 A 
ATOM     14  C   UNL     1       5.588   3.433  12.525  0.00  0.00    +0.000 A 
ATOM     15  C   UNL     1       6.854   3.798  12.105  0.00  0.00    +0.000 A 
ATOM     16  C   UNL     1       7.650   4.595  12.931  0.00  0.00    +0.000 A 
ATOM     17  C   UNL     1       7.181   5.046  14.176  0.00  0.00    +0.000 A 
ENDBRANCH   9  12
BRANCH   1  19
ATOM     18  N   UNL     1       0.995   8.948  19.529  0.00  0.00    +0.000 N 
ATOM     19  C   UNL     1       1.824   8.777  18.437  0.00  0.00    +0.000 C 
ATOM     20  O   UNL     1       1.889   9.520  17.461  0.00  0.00    +0.000 OA
ATOM     21  H   UNL     1       1.006   8.251  20.259  0.00  0.00    +0.000 HD
BRANCH  18  25
ATOM     22  C   UNL     1      -1.594  12.224  20.185  0.00  0.00    +0.000 A 
ATOM     23  C   UNL     1      -1.776  11.422  19.065  0.00  0.00    +0.000 A 
ATOM     24  C   UNL     1      -0.946  10.325  18.838  0.00  0.00    +0.000 A 
ATOM     25  C   UNL     1       0.094  10.022  19.719  0.00  0.00    +0.000 A 
ATOM     26  C   UNL     1       0.271  10.830  20.848  0.00  0.00    +0.000 A 
ATOM     27  C   UNL     1      -0.560  11.936  21.073  0.00  0.00    +0.000 A 
BRANCH  22  28
ATOM     28  O   UNL     1      -2.470  13.265  20.286  0.00  0.00    +0.000 OA
BRANCH  28  30
ATOM     29  C   UNL     1      -3.898  13.223  22.175  0.00  0.00    +0.000 C 
ATOM     30  C   UNL     1      -2.639  13.829  21.582  0.00  0.00    +0.000 C 
ENDBRANCH  28  30
ENDBRANCH  22  28
ENDBRANCH  18  25
ENDBRANCH   1  19
TORSDOF 5
ENDMDL
MODEL 3
REMARK VINA RESULT:      -8.4      2.202     10.478
REMARK  Name = 
REMARK  6 active torsions:
REMARK  status: ('A' for Active; 'I' for Inactive)
REMARK    1  A    between atoms: C_1  and  C_2
REMARK    2  A    between atoms: C_2  and  O_3
REMARK    3  A    between atoms: O_3  and  C_4
REMARK    4  A    between atoms: C_7  and  N_8
REMARK    5  A    between atoms: C_9  and  C_11
REMARK    6  A    between atoms: N_19  and  C_20
REMARK                            x       y       z     vdW  Elec       q    Type
REMARK                         _______ _______ _______ _____ _____    ______ ____
ROOT
ATOM      1  C   UNL     1       1.260   8.853  19.256  0.00  0.00    +0.000 A 
ATOM      2  C   UNL     1       1.249   8.648  20.657  0.00  0.00    +0.000 A 
ATOM      3  C   UNL     1       0.633   9.586  21.521  0.00  0.00    +0.000 A 
ATOM      4  C   UNL     1       0.001  10.673  20.936  0.00  0.00    +0.000 A 
ATOM      5  C   UNL     1      -0.188  10.685  19.582  0.00  0.00    +0.000 A 
ATOM      6  C   UNL     1       0.453   9.849  18.708  0.00  0.00    +0.000 A 
ATOM      7  C   UNL     1      -0.968  11.843  19.248  0.00  0.00    +0.000 C 
ATOM      8  O   UNL     1      -1.659  11.845  18.248  0.00  0.00    +0.000 OA
ATOM      9  N   UNL     1      -0.785  12.717  20.279  0.00  0.00    +0.000 N 
ATOM     10  C   UNL     1      -0.366  12.033  21.407  0.00  0.00    +0.000 C 
ATOM     11  O   UNL     1      -0.197  12.392  22.556  0.00  0.00    +0.000 OA
ENDROOT
BRANCH   9  12
ATOM     12  C   UNL     1      -0.853  14.130  20.054  0.00  0.00    +0.000 A 
ATOM     13  C   UNL     1      -1.833  14.897  20.727  0.00  0.00    +0.000 A 
ATOM     14  C   UNL     1      -2.040  16.247  20.465  0.00  0.00    +0.000 A 
ATOM     15  C   UNL     1      -1.267  16.875  19.505  0.00  0.00    +0.000 A 
ATOM     16  C   UNL     1      -0.303  16.141  18.810  0.00  0.00    +0.000 A 
ATOM     17  C   UNL     1      -0.093  14.779  19.080  0.00  0.00    +0.000 A 
ENDBRANCH   9  12
BRANCH   1  19
ATOM     18  N   UNL     1       2.614   6.903  18.643  0.00  0.00    +0.000 N 
ATOM     19  C   UNL     1       2.140   8.149  18.280  0.00  0.00    +0.000 C 
ATOM     20  O   UNL     1       2.432   8.759  17.255  0.00  0.00    +0.000 OA
ATOM     21  H   UNL     1       2.328   6.515  19.528  0.00  0.00    +0.000 HD
BRANCH  18  25
ATOM     22  C   UNL     1       5.155   4.426  16.345  0.00  0.00    +0.000 A 
ATOM     23  C   UNL     1       5.477   5.767  16.513  0.00  0.00    +0.000 A 
ATOM     24  C   UNL     1       4.663   6.599  17.282  0.00  0.00    +0.000 A 
ATOM     25  C   UNL     1       3.503   6.107  17.882  0.00  0.00    +0.000 A 
ATOM     26  C   UNL     1       3.185   4.754  17.713  0.00  0.00    +0.000 A 
ATOM     27  C   UNL     1       4.000   3.920  16.936  0.00  0.00    +0.000 A 
BRANCH  22  28
ATOM     28  O   UNL     1       6.030   3.726  15.567  0.00  0.00    +0.000 OA
BRANCH  28  30
ATOM     29  C   UNL     1       6.097   3.725  13.199  0.00  0.00    +0.000 C 
ATOM     30  C   UNL     1       6.587   4.421  14.456  0.00  0.00    +0.000 C 
ENDBRANCH  28  30
ENDBRANCH  22  28
ENDBRANCH  18  25
ENDBRANCH   1  19
TORSDOF 5
ENDMDL
MODEL 4
REMARK VINA RESULT:      -8.3      5.138      8.166
REMARK  Name = 
REMARK  6 active torsions:
REMARK  status: ('A' for Active; 'I' for Inactive)
REMARK    1  A    between atoms: C_1  and  C_2
REMARK    2  A    between atoms: C_2  and  O_3
REMARK    3  A    between atoms: O_3  and  C_4
REMARK    4  A    between atoms: C_7  and  N_8
REMARK    5  A    between atoms: C_9  and  C_11
REMARK    6  A    between atoms: N_19  and  C_20
REMARK                            x       y       z     vdW  Elec       q    Type
REMARK                         _______ _______ _______ _____ _____    ______ ____
ROOT
ATOM      1  C   UNL     1       7.083   7.371  17.431  0.00  0.00    +0.000 A 
ATOM      2  C   UNL     1       7.442   6.401  16.463  0.00  0.00    +0.000 A 
ATOM      3  C   UNL     1       6.544   5.363  16.113  0.00  0.00    +0.000 A 
ATOM      4  C   UNL     1       5.293   5.372  16.712  0.00  0.00    +0.000 A 
ATOM      5  C   UNL     1       4.905   6.468  17.430  0.00  0.00    +0.000 A 
ATOM      6  C   UNL     1       5.759   7.450  17.857  0.00  0.00    +0.000 A 
ATOM      7  C   UNL     1       3.540   6.281  17.832  0.00  0.00    +0.000 C 
ATOM      8  O   UNL     1       2.830   7.245  18.045  0.00  0.00    +0.000 OA
ATOM      9  N   UNL     1       3.330   4.934  17.801  0.00  0.00    +0.000 N 
ATOM     10  C   UNL     1       4.265   4.332  16.976  0.00  0.00    +0.000 C 
ATOM     11  O   UNL     1       4.378   3.189  16.578  0.00  0.00    +0.000 OA
ENDROOT
BRANCH   9  12
ATOM     12  C   UNL     1       2.383   4.325  18.685  0.00  0.00    +0.000 A 
ATOM     13  C   UNL     1       2.491   4.540  20.079  0.00  0.00    +0.000 A 
ATOM     14  C   UNL     1       1.688   3.884  21.006  0.00  0.00    +0.000 A 
ATOM     15  C   UNL     1       0.746   2.976  20.558  0.00  0.00    +0.000 A 
ATOM     16  C   UNL     1       0.626   2.728  19.189  0.00  0.00    +0.000 A 
ATOM     17  C   UNL     1       1.436   3.395  18.256  0.00  0.00    +0.000 A 
ENDBRANCH   9  12
BRANCH   1  19
ATOM     18  N   UNL     1       7.962   9.632  17.793  0.00  0.00    +0.000 N 
ATOM     19  C   UNL     1       8.024   8.293  18.129  0.00  0.00    +0.000 C 
ATOM     20  O   UNL     1       8.831   7.782  18.902  0.00  0.00    +0.000 OA
ATOM     21  H   UNL     1       7.274   9.931  17.119  0.00  0.00    +0.000 HD
BRANCH  18  25
ATOM     22  C   UNL     1      10.398  12.770  19.238  0.00  0.00    +0.000 A 
ATOM     23  C   UNL     1      10.383  11.552  19.907  0.00  0.00    +0.000 A 
ATOM     24  C   UNL     1       9.602  10.497  19.438  0.00  0.00    +0.000 A 
ATOM     25  C   UNL     1       8.806  10.647  18.301  0.00  0.00    +0.000 A 
ATOM     26  C   UNL     1       8.828  11.875  17.627  0.00  0.00    +0.000 A 
ATOM     27  C   UNL     1       9.610  12.937  18.102  0.00  0.00    +0.000 A 
BRANCH  22  28
ATOM     28  O   UNL     1      11.200  13.718  19.803  0.00  0.00    +0.000 OA
BRANCH  28  30
ATOM     29  C   UNL     1      10.950  15.711  21.058  0.00  0.00    +0.000 C 
ATOM     30  C   UNL     1      10.759  15.067  19.696  0.00  0.00    +0.000 C 
ENDBRANCH  28  30
ENDBRANCH  22  28
ENDBRANCH  18  25
ENDBRANCH   1  19
TORSDOF 5
ENDMDL
MODEL 5
REMARK VINA RESULT:      -8.3      2.274     10.510
REMARK  Name = 
REMARK  6 active torsions:
REMARK  status: ('A' for Active; 'I' for Inactive)
REMARK    1  A    between atoms: C_1  and  C_2
REMARK    2  A    between atoms: C_2  and  O_3
REMARK    3  A    between atoms: O_3  and  C_4
REMARK    4  A    between atoms: C_7  and  N_8
REMARK    5  A    between atoms: C_9  and  C_11
REMARK    6  A    between atoms: N_19  and  C_20
REMARK                            x       y       z     vdW  Elec       q    Type
REMARK                         _______ _______ _______ _____ _____    ______ ____
ROOT
ATOM      1  C   UNL     1       1.166   9.093  19.301  0.00  0.00    +0.000 A 
ATOM      2  C   UNL     1       1.252   8.995  20.711  0.00  0.00    +0.000 A 
ATOM      3  C   UNL     1       0.670   9.984  21.542  0.00  0.00    +0.000 A 
ATOM      4  C   UNL     1      -0.027  11.010  20.921  0.00  0.00    +0.000 A 
ATOM      5  C   UNL     1      -0.303  10.916  19.585  0.00  0.00    +0.000 A 
ATOM      6  C   UNL     1       0.301  10.028  18.736  0.00  0.00    +0.000 A 
ATOM      7  C   UNL     1      -1.132  12.029  19.219  0.00  0.00    +0.000 C 
ATOM      8  O   UNL     1      -1.886  11.940  18.269  0.00  0.00    +0.000 OA
ATOM      9  N   UNL     1      -0.904  12.982  20.167  0.00  0.00    +0.000 N 
ATOM     10  C   UNL     1      -0.397  12.395  21.312  0.00  0.00    +0.000 C 
ATOM     11  O   UNL     1      -0.162  12.843  22.418  0.00  0.00    +0.000 OA
ENDROOT
BRANCH   9  12
ATOM     12  C   UNL     1      -1.022  14.372  19.842  0.00  0.00    +0.000 A 
ATOM     13  C   UNL     1      -0.160  14.938  18.874  0.00  0.00    +0.000 A 
ATOM     14  C   UNL     1      -0.130  16.301  18.599  0.00  0.00    +0.000 A 
ATOM     15  C   UNL     1      -0.968  17.149  19.299  0.00  0.00    +0.000 A 
ATOM     16  C   UNL     1      -1.819  16.624  20.275  0.00  0.00    +0.000 A 
ATOM     17  C   UNL     1      -1.849  15.247  20.547  0.00  0.00    +0.000 A 
ENDBRANCH   9  12
BRANCH   1  19
ATOM     18  N   UNL     1       2.474   7.101  18.724  0.00  0.00    +0.000 N 
ATOM     19  C   UNL     1       1.998   8.335  18.324  0.00  0.00    +0.000 C 
ATOM     20  O   UNL     1       2.256   8.895  17.262  0.00  0.00    +0.000 OA
ATOM     21  H   UNL     1       2.219   6.756  19.637  0.00  0.00    +0.000 HD
BRANCH  18  25
ATOM     22  C   UNL     1       5.122   4.687  16.481  0.00  0.00    +0.000 A 
ATOM     23  C   UNL     1       3.974   4.122  17.023  0.00  0.00    +0.000 A 
ATOM     24  C   UNL     1       3.077   4.903  17.751  0.00  0.00    +0.000 A 
ATOM     25  C   UNL     1       3.322   6.260  17.965  0.00  0.00    +0.000 A 
ATOM     26  C   UNL     1       4.477   6.826  17.413  0.00  0.00    +0.000 A 
ATOM     27  C   UNL     1       5.382   6.040  16.687  0.00  0.00    +0.000 A 
BRANCH  22  28
ATOM     28  O   UNL     1       5.916   3.814  15.797  0.00  0.00    +0.000 OA
BRANCH  28  30
ATOM     29  C   UNL     1       6.039   3.807  13.432  0.00  0.00    +0.000 C 
ATOM     30  C   UNL     1       6.658   4.350  14.707  0.00  0.00    +0.000 C 
ENDBRANCH  28  30
ENDBRANCH  22  28
ENDBRANCH  18  25
ENDBRANCH   1  19
TORSDOF 5
ENDMDL
MODEL 6
REMARK VINA RESULT:      -8.3      5.174      8.455
REMARK  Name = 
REMARK  6 active torsions:
REMARK  status: ('A' for Active; 'I' for Inactive)
REMARK    1  A    between atoms: C_1  and  C_2
REMARK    2  A    between atoms: C_2  and  O_3
REMARK    3  A    between atoms: O_3  and  C_4
REMARK    4  A    between atoms: C_7  and  N_8
REMARK    5  A    between atoms: C_9  and  C_11
REMARK    6  A    between atoms: N_19  and  C_20
REMARK                            x       y       z     vdW  Elec       q    Type
REMARK                         _______ _______ _______ _____ _____    ______ ____
ROOT
ATOM      1  C   UNL     1       7.184   7.360  17.486  0.00  0.00    +0.000 A 
ATOM      2  C   UNL     1       7.484   6.498  16.403  0.00  0.00    +0.000 A 
ATOM      3  C   UNL     1       6.567   5.497  15.999  0.00  0.00    +0.000 A 
ATOM      4  C   UNL     1       5.353   5.436  16.668  0.00  0.00    +0.000 A 
ATOM      5  C   UNL     1       5.009   6.449  17.519  0.00  0.00    +0.000 A 
ATOM      6  C   UNL     1       5.887   7.385  17.996  0.00  0.00    +0.000 A 
ATOM      7  C   UNL     1       3.670   6.213  17.980  0.00  0.00    +0.000 C 
ATOM      8  O   UNL     1       2.974   7.145  18.333  0.00  0.00    +0.000 OA
ATOM      9  N   UNL     1       3.459   4.875  17.819  0.00  0.00    +0.000 N 
ATOM     10  C   UNL     1       4.342   4.369  16.882  0.00  0.00    +0.000 C 
ATOM     11  O   UNL     1       4.431   3.274  16.360  0.00  0.00    +0.000 OA
ENDROOT
BRANCH   9  12
ATOM     12  C   UNL     1       2.565   4.172  18.689  0.00  0.00    +0.000 A 
ATOM     13  C   UNL     1       1.499   3.422  18.137  0.00  0.00    +0.000 A 
ATOM     14  C   UNL     1       0.521   2.818  18.919  0.00  0.00    +0.000 A 
ATOM     15  C   UNL     1       0.578   2.954  20.294  0.00  0.00    +0.000 A 
ATOM     16  C   UNL     1       1.607   3.703  20.869  0.00  0.00    +0.000 A 
ATOM     17  C   UNL     1       2.595   4.308  20.077  0.00  0.00    +0.000 A 
ENDBRANCH   9  12
BRANCH   1  19
ATOM     18  N   UNL     1       8.276   9.528  17.828  0.00  0.00    +0.000 N 
ATOM     19  C   UNL     1       8.165   8.208  18.221  0.00  0.00    +0.000 C 
ATOM     20  O   UNL     1       8.850   7.652  19.075  0.00  0.00    +0.000 OA
ATOM     21  H   UNL     1       7.678   9.866  17.090  0.00  0.00    +0.000 HD
BRANCH  18  25
ATOM     22  C   UNL     1      10.988  12.274  19.555  0.00  0.00    +0.000 A 
ATOM     23  C   UNL     1      10.952  12.124  18.174  0.00  0.00    +0.000 A 
ATOM     24  C   UNL     1      10.054  11.238  17.581  0.00  0.00    +0.000 A 
ATOM     25  C   UNL     1       9.186  10.472  18.362  0.00  0.00    +0.000 A 
ATOM     26  C   UNL     1       9.222  10.629  19.752  0.00  0.00    +0.000 A 
ATOM     27  C   UNL     1      10.129  11.516  20.348  0.00  0.00    +0.000 A 
BRANCH  22  28
ATOM     28  O   UNL     1      11.914  13.168  20.005  0.00  0.00    +0.000 OA
BRANCH  28  30
ATOM     29  C   UNL     1      10.938  15.324  20.091  0.00  0.00    +0.000 C 
ATOM     30  C   UNL     1      11.934  14.439  19.364  0.00  0.00    +0.000 C 
ENDBRANCH  28  30
ENDBRANCH  22  28
ENDBRANCH  18  25
ENDBRANCH   1  19
TORSDOF 5
ENDMDL
MODEL 7
REMARK VINA RESULT:      -8.3      2.547      9.955
REMARK  Name = 
REMARK  6 active torsions:
REMARK  status: ('A' for Active; 'I' for Inactive)
REMARK    1  A    between atoms: C_1  and  C_2
REMARK    2  A    between atoms: C_2  and  O_3
REMARK    3  A    between atoms: O_3  and  C_4
REMARK    4  A    between atoms: C_7  and  N_8
REMARK    5  A    between atoms: C_9  and  C_11
REMARK    6  A    between atoms: N_19  and  C_20
REMARK                            x       y       z     vdW  Elec       q    Type
REMARK                         _______ _______ _______ _____ _____    ______ ____
ROOT
ATOM      1  C   UNL     1       1.314   8.322  20.322  0.00  0.00    +0.000 A 
ATOM      2  C   UNL     1       1.030   8.525  21.695  0.00  0.00    +0.000 A 
ATOM      3  C   UNL     1       0.523   9.766  22.153  0.00  0.00    +0.000 A 
ATOM      4  C   UNL     1       0.270  10.742  21.202  0.00  0.00    +0.000 A 
ATOM      5  C   UNL     1       0.309  10.409  19.877  0.00  0.00    +0.000 A 
ATOM      6  C   UNL     1       0.866   9.256  19.390  0.00  0.00    +0.000 A 
ATOM      7  C   UNL     1      -0.109  11.551  19.114  0.00  0.00    +0.000 C 
ATOM      8  O   UNL     1      -0.609  11.400  18.016  0.00  0.00    +0.000 OA
ATOM      9  N   UNL     1       0.108  12.629  19.920  0.00  0.00    +0.000 N 
ATOM     10  C   UNL     1       0.165  12.224  21.242  0.00  0.00    +0.000 C 
ATOM     11  O   UNL     1       0.228  12.852  22.281  0.00  0.00    +0.000 OA
ENDROOT
BRANCH   9  12
ATOM     12  C   UNL     1       0.415  13.908  19.355  0.00  0.00    +0.000 A 
ATOM     13  C   UNL     1       1.752  14.214  19.005  0.00  0.00    +0.000 A 
ATOM     14  C   UNL     1       2.145  15.476  18.571  0.00  0.00    +0.000 A 
ATOM     15  C   UNL     1       1.201  16.482  18.479  0.00  0.00    +0.000 A 
ATOM     16  C   UNL     1      -0.124  16.217  18.834  0.00  0.00    +0.000 A 
ATOM     17  C   UNL     1      -0.518  14.941  19.269  0.00  0.00    +0.000 A 
ENDBRANCH   9  12
BRANCH   1  19
ATOM     18  N   UNL     1       2.690   7.421  18.504  0.00  0.00    +0.000 N 
ATOM     19  C   UNL     1       2.147   7.222  19.759  0.00  0.00    +0.000 C 
ATOM     20  O   UNL     1       2.230   6.193  20.424  0.00  0.00    +0.000 OA
ATOM     21  H   UNL     1       2.527   8.301  18.039  0.00  0.00    +0.000 HD
BRANCH  18  25
ATOM     22  C   UNL     1       5.099   4.698  16.346  0.00  0.00    +0.000 A 
ATOM     23  C   UNL     1       3.986   4.230  17.034  0.00  0.00    +0.000 A 
ATOM     24  C   UNL     1       3.166   5.112  17.737  0.00  0.00    +0.000 A 
ATOM     25  C   UNL     1       3.457   6.477  17.780  0.00  0.00    +0.000 A 
ATOM     26  C   UNL     1       4.577   6.945  17.081  0.00  0.00    +0.000 A 
ATOM     27  C   UNL     1       5.403   6.057  16.379  0.00  0.00    +0.000 A 
BRANCH  22  28
ATOM     28  O   UNL     1       5.816   3.732  15.704  0.00  0.00    +0.000 OA
BRANCH  28  30
ATOM     29  C   UNL     1       5.976   3.777  13.341  0.00  0.00    +0.000 C 
ATOM     30  C   UNL     1       6.657   4.166  14.641  0.00  0.00    +0.000 C 
ENDBRANCH  28  30
ENDBRANCH  22  28
ENDBRANCH  18  25
ENDBRANCH   1  19
TORSDOF 5
ENDMDL
MODEL 8
REMARK VINA RESULT:      -8.2      2.596     10.086
REMARK  Name = 
REMARK  6 active torsions:
REMARK  status: ('A' for Active; 'I' for Inactive)
REMARK    1  A    between atoms: C_1  and  C_2
REMARK    2  A    between atoms: C_2  and  O_3
REMARK    3  A    between atoms: O_3  and  C_4
REMARK    4  A    between atoms: C_7  and  N_8
REMARK    5  A    between atoms: C_9  and  C_11
REMARK    6  A    between atoms: N_19  and  C_20
REMARK                            x       y       z     vdW  Elec       q    Type
REMARK                         _______ _______ _______ _____ _____    ______ ____
ROOT
ATOM      1  C   UNL     1       0.913   8.728  20.693  0.00  0.00    +0.000 A 
ATOM      2  C   UNL     1       0.583   8.944  22.053  0.00  0.00    +0.000 A 
ATOM      3  C   UNL     1       0.128  10.211  22.495  0.00  0.00    +0.000 A 
ATOM      4  C   UNL     1      -0.031  11.202  21.538  0.00  0.00    +0.000 A 
ATOM      5  C   UNL     1       0.046  10.869  20.214  0.00  0.00    +0.000 A 
ATOM      6  C   UNL     1       0.557   9.688  19.746  0.00  0.00    +0.000 A 
ATOM      7  C   UNL     1      -0.276  12.033  19.439  0.00  0.00    +0.000 C 
ATOM      8  O   UNL     1      -0.737  11.912  18.321  0.00  0.00    +0.000 OA
ATOM      9  N   UNL     1      -0.032  13.096  20.258  0.00  0.00    +0.000 N 
ATOM     10  C   UNL     1      -0.054  12.686  21.580  0.00  0.00    +0.000 C 
ATOM     11  O   UNL     1       0.000  13.309  22.623  0.00  0.00    +0.000 OA
ENDROOT
BRANCH   9  12
ATOM     12  C   UNL     1       0.369  14.357  19.711  0.00  0.00    +0.000 A 
ATOM     13  C   UNL     1      -0.611  15.338  19.426  0.00  0.00    +0.000 A 
ATOM     14  C   UNL     1      -0.312  16.533  18.780  0.00  0.00    +0.000 A 
ATOM     15  C   UNL     1       0.991  16.781  18.390  0.00  0.00    +0.000 A 
ATOM     16  C   UNL     1       1.978  15.825  18.640  0.00  0.00    +0.000 A 
ATOM     17  C   UNL     1       1.674  14.621  19.296  0.00  0.00    +0.000 A 
ENDBRANCH   9  12
BRANCH   1  19
ATOM     18  N   UNL     1       2.220   7.712  18.884  0.00  0.00    +0.000 N 
ATOM     19  C   UNL     1       1.705   7.584  20.160  0.00  0.00    +0.000 C 
ATOM     20  O   UNL     1       1.783   6.584  20.870  0.00  0.00    +0.000 OA
ATOM     21  H   UNL     1       2.064   8.574  18.383  0.00  0.00    +0.000 HD
BRANCH  18  25
ATOM     22  C   UNL     1       4.512   4.835  16.801  0.00  0.00    +0.000 A 
ATOM     23  C   UNL     1       3.374   4.434  17.492  0.00  0.00    +0.000 A 
ATOM     24  C   UNL     1       2.593   5.368  18.171  0.00  0.00    +0.000 A 
ATOM     25  C   UNL     1       2.946   6.719  18.186  0.00  0.00    +0.000 A 
ATOM     26  C   UNL     1       4.090   7.119  17.485  0.00  0.00    +0.000 A 
ATOM     27  C   UNL     1       4.878   6.178  16.807  0.00  0.00    +0.000 A 
BRANCH  22  28
ATOM     28  O   UNL     1       5.187   3.822  16.185  0.00  0.00    +0.000 OA
BRANCH  28  30
ATOM     29  C   UNL     1       6.113   3.996  14.011  0.00  0.00    +0.000 C 
ATOM     30  C   UNL     1       6.378   4.183  15.494  0.00  0.00    +0.000 C 
ENDBRANCH  28  30
ENDBRANCH  22  28
ENDBRANCH  18  25
ENDBRANCH   1  19
TORSDOF 5
ENDMDL
MODEL 9
REMARK VINA RESULT:      -8.1      2.285     10.496
REMARK  Name = 
REMARK  6 active torsions:
REMARK  status: ('A' for Active; 'I' for Inactive)
REMARK    1  A    between atoms: C_1  and  C_2
REMARK    2  A    between atoms: C_2  and  O_3
REMARK    3  A    between atoms: O_3  and  C_4
REMARK    4  A    between atoms: C_7  and  N_8
REMARK    5  A    between atoms: C_9  and  C_11
REMARK    6  A    between atoms: N_19  and  C_20
REMARK                            x       y       z     vdW  Elec       q    Type
REMARK                         _______ _______ _______ _____ _____    ______ ____
ROOT
ATOM      1  C   UNL     1       1.810   8.042  19.290  0.00  0.00    +0.000 A 
ATOM      2  C   UNL     1       1.610   7.284  20.470  0.00  0.00    +0.000 A 
ATOM      3  C   UNL     1       0.924   7.839  21.579  0.00  0.00    +0.000 A 
ATOM      4  C   UNL     1       0.414   9.121  21.437  0.00  0.00    +0.000 A 
ATOM      5  C   UNL     1       0.402   9.702  20.200  0.00  0.00    +0.000 A 
ATOM      6  C   UNL     1       1.119   9.242  19.127  0.00  0.00    +0.000 A 
ATOM      7  C   UNL     1      -0.283  10.959  20.300  0.00  0.00    +0.000 C 
ATOM      8  O   UNL     1      -0.838  11.429  19.326  0.00  0.00    +0.000 OA
ATOM      9  N   UNL     1      -0.201  11.316  21.613  0.00  0.00    +0.000 N 
ATOM     10  C   UNL     1       0.042  10.197  22.391  0.00  0.00    +0.000 C 
ATOM     11  O   UNL     1       0.075  10.039  23.596  0.00  0.00    +0.000 OA
ENDROOT
BRANCH   9  12
ATOM     12  C   UNL     1      -0.185  12.698  21.991  0.00  0.00    +0.000 A 
ATOM     13  C   UNL     1      -1.182  13.194  22.863  0.00  0.00    +0.000 A 
ATOM     14  C   UNL     1      -1.305  14.545  23.172  0.00  0.00    +0.000 A 
ATOM     15  C   UNL     1      -0.426  15.449  22.606  0.00  0.00    +0.000 A 
ATOM     16  C   UNL     1       0.558  14.993  21.726  0.00  0.00    +0.000 A 
ATOM     17  C   UNL     1       0.682  13.629  21.418  0.00  0.00    +0.000 A 
ENDBRANCH   9  12
BRANCH   1  19
ATOM     18  N   UNL     1       3.593   6.620  18.389  0.00  0.00    +0.000 N 
ATOM     19  C   UNL     1       2.781   7.723  18.205  0.00  0.00    +0.000 C 
ATOM     20  O   UNL     1       2.833   8.505  17.260  0.00  0.00    +0.000 OA
ATOM     21  H   UNL     1       3.478   6.068  19.225  0.00  0.00    +0.000 HD
BRANCH  18  25
ATOM     22  C   UNL     1       6.738   5.384  15.848  0.00  0.00    +0.000 A 
ATOM     23  C   UNL     1       5.473   4.829  15.692  0.00  0.00    +0.000 A 
ATOM     24  C   UNL     1       4.417   5.234  16.507  0.00  0.00    +0.000 A 
ATOM     25  C   UNL     1       4.611   6.191  17.505  0.00  0.00    +0.000 A 
ATOM     26  C   UNL     1       5.885   6.751  17.656  0.00  0.00    +0.000 A 
ATOM     27  C   UNL     1       6.948   6.339  16.841  0.00  0.00    +0.000 A 
BRANCH  22  28
ATOM     28  O   UNL     1       7.681   4.897  14.992  0.00  0.00    +0.000 OA
BRANCH  28  30
ATOM     29  C   UNL     1       8.034   5.491  12.726  0.00  0.00    +0.000 C 
ATOM     30  C   UNL     1       7.245   4.601  13.670  0.00  0.00    +0.000 C 
ENDBRANCH  28  30
ENDBRANCH  22  28
ENDBRANCH  18  25
ENDBRANCH   1  19
TORSDOF 5
ENDMDL
