MODEL 1
REMARK VINA RESULT:      -8.6      0.000      0.000
REMARK  Name = 
REMARK  10 active torsions:
REMARK  status: ('A' for Active; 'I' for Inactive)
REMARK    1  A    between atoms: C_1  and  C_2
REMARK    2  A    between atoms: C_6  and  N_7
REMARK    3  A    between atoms: N_10  and  C_11
REMARK    4  A    between atoms: C_11  and  C_12
REMARK    5  A    between atoms: C_12  and  C_13
REMARK    6  A    between atoms: C_13  and  N_14
REMARK    7  A    between atoms: C_15  and  C_17
REMARK    8  A    between atoms: C_19  and  C_20
REMARK    9  A    between atoms: C_27  and  C_28
REMARK   10  A    between atoms: C_31  and  C_32
REMARK                            x       y       z     vdW  Elec       q    Type
REMARK                         _______ _______ _______ _____ _____    ______ ____
ROOT
ATOM      1  C   UNL     1       7.760   8.965  17.447  0.00  0.00    +0.000 C 
ENDROOT
BRANCH   1   2
ATOM      2  N   UNL     1       6.743   7.937  17.482  0.00  0.00    +0.000 N 
ATOM      3  C   UNL     1       6.895   6.757  16.796  0.00  0.00    +0.000 C 
ATOM      4  O   UNL     1       7.890   6.504  16.119  0.00  0.00    +0.000 OA
ATOM      5  H   UNL     1       6.029   7.985  18.192  0.00  0.00    +0.000 HD
BRANCH   3   6
ATOM      6  C   UNL     1       5.812   5.790  16.959  0.00  0.00    +0.000 A 
ATOM      7  C   UNL     1       4.883   5.813  18.043  0.00  0.00    +0.000 A 
ATOM      8  C   UNL     1       4.032   4.732  17.938  0.00  0.00    +0.000 A 
ATOM      9  N   UNL     1       4.412   4.058  16.801  0.00  0.00    +0.000 N 
ATOM     10  C   UNL     1       5.492   4.668  16.200  0.00  0.00    +0.000 A 
ATOM     11  C   UNL     1       6.124   4.053  15.003  0.00  0.00    +0.000 C 
ATOM     12  H   UNL     1       3.997   3.190  16.492  0.00  0.00    +0.000 HD
BRANCH   8  13
ATOM     13  C   UNL     1       2.965   4.278  18.833  0.00  0.00    +0.000 A 
ATOM     14  C   UNL     1       1.958   3.409  18.389  0.00  0.00    +0.000 A 
ATOM     15  C   UNL     1       0.958   2.977  19.264  0.00  0.00    +0.000 A 
ATOM     16  C   UNL     1       0.952   3.406  20.590  0.00  0.00    +0.000 A 
ATOM     17  C   UNL     1       1.941   4.273  21.042  0.00  0.00    +0.000 A 
ATOM     18  C   UNL     1       2.941   4.707  20.168  0.00  0.00    +0.000 A 
ENDBRANCH   8  13
ENDBRANCH   3   6
ENDBRANCH   1   2
BRANCH   1  19
ATOM     19  C   UNL     1       8.701   8.863  18.643  0.00  0.00    +0.000 C 
BRANCH  19  20
ATOM     20  C   UNL     1       8.953  10.226  19.293  0.00  0.00    +0.000 C 
BRANCH  20  24
ATOM     21  N   UNL     1       9.991  13.694  18.653  0.00  0.00    +0.000 N 
ATOM     22  C   UNL     1       9.655  12.727  17.585  0.00  0.00    +0.000 C 
ATOM     23  C   UNL     1      10.470  11.427  17.752  0.00  0.00    +0.000 C 
ATOM     24  N   UNL     1      10.307  10.765  19.068  0.00  0.00    +0.000 NA
ATOM     25  C   UNL     1      10.649  11.769  20.108  0.00  0.00    +0.000 C 
ATOM     26  C   UNL     1       9.868  13.108  20.014  0.00  0.00    +0.000 C 
BRANCH  21  32
ATOM     27  C   UNL     1      10.424  18.546  17.428  0.00  0.00    +0.000 C 
ATOM     28  C   UNL     1       9.632  17.370  17.938  0.00  0.00    +0.000 A 
ATOM     29  C   UNL     1       8.332  17.596  18.406  0.00  0.00    +0.000 A 
ATOM     30  C   UNL     1       7.577  16.548  18.907  0.00  0.00    +0.000 A 
ATOM     31  C   UNL     1       8.128  15.270  18.982  0.00  0.00    +0.000 A 
ATOM     32  C   UNL     1       9.437  14.989  18.540  0.00  0.00    +0.000 A 
ATOM     33  C   UNL     1      10.172  16.056  17.955  0.00  0.00    +0.000 A 
ATOM     34  C   UNL     1      11.525  15.822  17.322  0.00  0.00    +0.000 C 
ENDBRANCH  21  32
ENDBRANCH  20  24
ENDBRANCH  19  20
ENDBRANCH   1  19
TORSDOF 7
ENDMDL
MODEL 2
REMARK VINA RESULT:      -8.5      5.860      8.432
REMARK  Name = 
REMARK  10 active torsions:
REMARK  status: ('A' for Active; 'I' for Inactive)
REMARK    1  A    between atoms: C_1  and  C_2
REMARK    2  A    between atoms: C_6  and  N_7
REMARK    3  A    between atoms: N_10  and  C_11
REMARK    4  A    between atoms: C_11  and  C_12
REMARK    5  A    between atoms: C_12  and  C_13
REMARK    6  A    between atoms: C_13  and  N_14
REMARK    7  A    between atoms: C_15  and  C_17
REMARK    8  A    between atoms: C_19  and  C_20
REMARK    9  A    between atoms: C_27  and  C_28
REMARK   10  A    between atoms: C_31  and  C_32
REMARK                            x       y       z     vdW  Elec       q    Type
REMARK                         _______ _______ _______ _____ _____    ______ ____
ROOT
ATOM      1  C   UNL     1       2.337   3.368  19.574  0.00  0.00    +0.000 C 
ENDROOT
BRANCH   1   2
ATOM      2  N   UNL     1       3.319   3.867  18.636  0.00  0.00    +0.000 N 
ATOM      3  C   UNL     1       4.664   3.778  18.895  0.00  0.00    +0.000 C 
ATOM      4  O   UNL     1       5.114   3.276  19.923  0.00  0.00    +0.000 OA
ATOM      5  H   UNL     1       3.028   4.069  17.692  0.00  0.00    +0.000 HD
BRANCH   3   6
ATOM      6  C   UNL     1       5.542   4.279  17.839  0.00  0.00    +0.000 A 
ATOM      7  C   UNL     1       5.358   3.996  16.452  0.00  0.00    +0.000 A 
ATOM      8  C   UNL     1       6.389   4.561  15.730  0.00  0.00    +0.000 A 
ATOM      9  N   UNL     1       7.191   5.198  16.647  0.00  0.00    +0.000 N 
ATOM     10  C   UNL     1       6.709   5.031  17.928  0.00  0.00    +0.000 A 
ATOM     11  C   UNL     1       7.475   5.563  19.087  0.00  0.00    +0.000 C 
ATOM     12  H   UNL     1       8.057   5.664  16.415  0.00  0.00    +0.000 HD
BRANCH   8  13
ATOM     13  C   UNL     1       6.689   4.494  14.298  0.00  0.00    +0.000 A 
ATOM     14  C   UNL     1       6.036   3.583  13.455  0.00  0.00    +0.000 A 
ATOM     15  C   UNL     1       6.328   3.546  12.089  0.00  0.00    +0.000 A 
ATOM     16  C   UNL     1       7.274   4.416  11.549  0.00  0.00    +0.000 A 
ATOM     17  C   UNL     1       7.934   5.320  12.375  0.00  0.00    +0.000 A 
ATOM     18  C   UNL     1       7.643   5.357  13.741  0.00  0.00    +0.000 A 
ENDBRANCH   8  13
ENDBRANCH   3   6
ENDBRANCH   1   2
BRANCH   1  19
ATOM     19  C   UNL     1       1.710   4.498  20.383  0.00  0.00    +0.000 C 
BRANCH  19  20
ATOM     20  C   UNL     1       1.497   5.758  19.541  0.00  0.00    +0.000 C 
BRANCH  20  24
ATOM     21  N   UNL     1       1.196   9.390  19.053  0.00  0.00    +0.000 N 
ATOM     22  C   UNL     1       1.670   8.456  18.007  0.00  0.00    +0.000 C 
ATOM     23  C   UNL     1       2.828   7.587  18.538  0.00  0.00    +0.000 C 
ATOM     24  N   UNL     1       2.503   6.813  19.761  0.00  0.00    +0.000 NA
ATOM     25  C   UNL     1       2.028   7.784  20.779  0.00  0.00    +0.000 C 
ATOM     26  C   UNL     1       0.859   8.698  20.325  0.00  0.00    +0.000 C 
BRANCH  21  32
ATOM     27  C   UNL     1      -0.275  14.177  18.665  0.00  0.00    +0.000 C 
ATOM     28  C   UNL     1      -0.490  12.700  18.459  0.00  0.00    +0.000 A 
ATOM     29  C   UNL     1      -1.723  12.272  17.952  0.00  0.00    +0.000 A 
ATOM     30  C   UNL     1      -1.974  10.921  17.770  0.00  0.00    +0.000 A 
ATOM     31  C   UNL     1      -1.009   9.982  18.131  0.00  0.00    +0.000 A 
ATOM     32  C   UNL     1       0.242  10.356  18.662  0.00  0.00    +0.000 A 
ATOM     33  C   UNL     1       0.517  11.747  18.768  0.00  0.00    +0.000 A 
ATOM     34  C   UNL     1       1.881  12.247  19.188  0.00  0.00    +0.000 C 
ENDBRANCH  21  32
ENDBRANCH  20  24
ENDBRANCH  19  20
ENDBRANCH   1  19
TORSDOF 7
ENDMDL
MODEL 3
REMARK VINA RESULT:      -8.5      2.807      9.176
REMARK  Name = 
REMARK  10 active torsions:
REMARK  status: ('A' for Active; 'I' for Inactive)
REMARK    1  A    between atoms: C_1  and  C_2
REMARK    2  A    between atoms: C_6  and  N_7
REMARK    3  A    between atoms: N_10  and  C_11
REMARK    4  A    between atoms: C_11  and  C_12
REMARK    5  A    between atoms: C_12  and  C_13
REMARK    6  A    between atoms: C_13  and  N_14
REMARK    7  A    between atoms: C_15  and  C_17
REMARK    8  A    between atoms: C_19  and  C_20
REMARK    9  A    between atoms: C_27  and  C_28
REMARK   10  A    between atoms: C_31  and  C_32
REMARK                            x       y       z     vdW  Elec       q    Type
REMARK                         _______ _______ _______ _____ _____    ______ ____
ROOT
ATOM      1  C   UNL     1       5.396   4.296  15.722  0.00  0.00    +0.000 C 
ENDROOT
BRANCH   1   2
ATOM      2  N   UNL     1       6.276   5.114  16.528  0.00  0.00    +0.000 N 
ATOM      3  C   UNL     1       6.132   6.478  16.585  0.00  0.00    +0.000 C 
ATOM      4  O   UNL     1       5.260   7.083  15.964  0.00  0.00    +0.000 OA
ATOM      5  H   UNL     1       6.847   4.666  17.228  0.00  0.00    +0.000 HD
BRANCH   3   6
ATOM      6  C   UNL     1       7.060   7.172  17.475  0.00  0.00    +0.000 A 
ATOM      7  C   UNL     1       7.338   8.570  17.401  0.00  0.00    +0.000 A 
ATOM      8  C   UNL     1       8.300   8.895  18.335  0.00  0.00    +0.000 A 
ATOM      9  N   UNL     1       8.604   7.725  18.990  0.00  0.00    +0.000 N 
ATOM     10  C   UNL     1       7.880   6.668  18.481  0.00  0.00    +0.000 A 
ATOM     11  C   UNL     1       8.119   5.290  18.985  0.00  0.00    +0.000 C 
ATOM     12  H   UNL     1       9.318   7.643  19.700  0.00  0.00    +0.000 HD
BRANCH   8  13
ATOM     13  C   UNL     1       8.968  10.171  18.600  0.00  0.00    +0.000 A 
ATOM     14  C   UNL     1       8.773  11.285  17.771  0.00  0.00    +0.000 A 
ATOM     15  C   UNL     1       9.410  12.498  18.051  0.00  0.00    +0.000 A 
ATOM     16  C   UNL     1      10.248  12.610  19.159  0.00  0.00    +0.000 A 
ATOM     17  C   UNL     1      10.457  11.511  19.985  0.00  0.00    +0.000 A 
ATOM     18  C   UNL     1       9.821  10.299  19.706  0.00  0.00    +0.000 A 
ENDBRANCH   8  13
ENDBRANCH   3   6
ENDBRANCH   1   2
BRANCH   1  19
ATOM     19  C   UNL     1       4.257   3.713  16.552  0.00  0.00    +0.000 C 
BRANCH  19  20
ATOM     20  C   UNL     1       4.617   3.621  18.037  0.00  0.00    +0.000 C 
BRANCH  20  24
ATOM     21  N   UNL     1       2.289   6.227  19.180  0.00  0.00    +0.000 N 
ATOM     22  C   UNL     1       3.524   5.853  19.905  0.00  0.00    +0.000 C 
ATOM     23  C   UNL     1       3.564   4.332  20.160  0.00  0.00    +0.000 C 
ATOM     24  N   UNL     1       3.455   3.501  18.937  0.00  0.00    +0.000 NA
ATOM     25  C   UNL     1       2.210   3.911  18.240  0.00  0.00    +0.000 C 
ATOM     26  C   UNL     1       2.090   5.430  17.941  0.00  0.00    +0.000 C 
BRANCH  21  32
ATOM     27  C   UNL     1       0.251  10.529  20.782  0.00  0.00    +0.000 C 
ATOM     28  C   UNL     1       1.051   9.727  19.789  0.00  0.00    +0.000 A 
ATOM     29  C   UNL     1       1.476  10.357  18.614  0.00  0.00    +0.000 A 
ATOM     30  C   UNL     1       2.194   9.651  17.662  0.00  0.00    +0.000 A 
ATOM     31  C   UNL     1       2.459   8.297  17.857  0.00  0.00    +0.000 A 
ATOM     32  C   UNL     1       2.040   7.608  19.013  0.00  0.00    +0.000 A 
ATOM     33  C   UNL     1       1.375   8.363  20.018  0.00  0.00    +0.000 A 
ATOM     34  C   UNL     1       1.017   7.749  21.353  0.00  0.00    +0.000 C 
ENDBRANCH  21  32
ENDBRANCH  20  24
ENDBRANCH  19  20
ENDBRANCH   1  19
TORSDOF 7
ENDMDL
MODEL 4
REMARK VINA RESULT:      -8.5      1.909      2.330
REMARK  Name = 
REMARK  10 active torsions:
REMARK  status: ('A' for Active; 'I' for Inactive)
REMARK    1  A    between atoms: C_1  and  C_2
REMARK    2  A    between atoms: C_6  and  N_7
REMARK    3  A    between atoms: N_10  and  C_11
REMARK    4  A    between atoms: C_11  and  C_12
REMARK    5  A    between atoms: C_12  and  C_13
REMARK    6  A    between atoms: C_13  and  N_14
REMARK    7  A    between atoms: C_15  and  C_17
REMARK    8  A    between atoms: C_19  and  C_20
REMARK    9  A    between atoms: C_27  and  C_28
REMARK   10  A    between atoms: C_31  and  C_32
REMARK                            x       y       z     vdW  Elec       q    Type
REMARK                         _______ _______ _______ _____ _____    ______ ____
ROOT
ATOM      1  C   UNL     1       8.117   8.402  17.346  0.00  0.00    +0.000 C 
ENDROOT
BRANCH   1   2
ATOM      2  N   UNL     1       6.966   7.526  17.393  0.00  0.00    +0.000 N 
ATOM      3  C   UNL     1       6.872   6.425  16.578  0.00  0.00    +0.000 C 
ATOM      4  O   UNL     1       7.746   6.118  15.769  0.00  0.00    +0.000 OA
ATOM      5  H   UNL     1       6.341   7.589  18.181  0.00  0.00    +0.000 HD
BRANCH   3   6
ATOM      6  C   UNL     1       5.678   5.604  16.765  0.00  0.00    +0.000 A 
ATOM      7  C   UNL     1       4.903   5.591  17.964  0.00  0.00    +0.000 A 
ATOM      8  C   UNL     1       3.885   4.667  17.840  0.00  0.00    +0.000 A 
ATOM      9  N   UNL     1       4.014   4.127  16.582  0.00  0.00    +0.000 N 
ATOM     10  C   UNL     1       5.095   4.665  15.919  0.00  0.00    +0.000 A 
ATOM     11  C   UNL     1       5.473   4.156  14.573  0.00  0.00    +0.000 C 
ATOM     12  H   UNL     1       3.433   3.382  16.224  0.00  0.00    +0.000 HD
BRANCH   8  13
ATOM     13  C   UNL     1       2.878   4.234  18.810  0.00  0.00    +0.000 A 
ATOM     14  C   UNL     1       1.879   3.312  18.466  0.00  0.00    +0.000 A 
ATOM     15  C   UNL     1       0.935   2.902  19.413  0.00  0.00    +0.000 A 
ATOM     16  C   UNL     1       0.977   3.408  20.710  0.00  0.00    +0.000 A 
ATOM     17  C   UNL     1       1.958   4.329  21.063  0.00  0.00    +0.000 A 
ATOM     18  C   UNL     1       2.902   4.740  20.118  0.00  0.00    +0.000 A 
ENDBRANCH   8  13
ENDBRANCH   3   6
ENDBRANCH   1   2
BRANCH   1  19
ATOM     19  C   UNL     1       7.881   9.681  18.142  0.00  0.00    +0.000 C 
BRANCH  19  20
ATOM     20  C   UNL     1       9.130  10.116  18.913  0.00  0.00    +0.000 C 
BRANCH  20  24
ATOM     21  N   UNL     1      10.123  13.451  20.099  0.00  0.00    +0.000 N 
ATOM     22  C   UNL     1       8.890  13.188  19.324  0.00  0.00    +0.000 C 
ATOM     23  C   UNL     1       9.218  12.423  18.025  0.00  0.00    +0.000 C 
ATOM     24  N   UNL     1       9.938  11.143  18.231  0.00  0.00    +0.000 NA
ATOM     25  C   UNL     1      11.161  11.451  19.014  0.00  0.00    +0.000 C 
ATOM     26  C   UNL     1      10.919  12.219  20.342  0.00  0.00    +0.000 C 
BRANCH  21  32
ATOM     27  C   UNL     1      11.660  17.358  22.857  0.00  0.00    +0.000 C 
ATOM     28  C   UNL     1      10.736  16.197  22.597  0.00  0.00    +0.000 A 
ATOM     29  C   UNL     1       9.785  15.874  23.572  0.00  0.00    +0.000 A 
ATOM     30  C   UNL     1       8.930  14.798  23.386  0.00  0.00    +0.000 A 
ATOM     31  C   UNL     1       9.047  14.009  22.242  0.00  0.00    +0.000 A 
ATOM     32  C   UNL     1       9.998  14.279  21.237  0.00  0.00    +0.000 A 
ATOM     33  C   UNL     1      10.813  15.433  21.402  0.00  0.00    +0.000 A 
ATOM     34  C   UNL     1      11.760  15.886  20.313  0.00  0.00    +0.000 C 
ENDBRANCH  21  32
ENDBRANCH  20  24
ENDBRANCH  19  20
ENDBRANCH   1  19
TORSDOF 7
ENDMDL
MODEL 5
REMARK VINA RESULT:      -8.5      3.044      9.321
REMARK  Name = 
REMARK  10 active torsions:
REMARK  status: ('A' for Active; 'I' for Inactive)
REMARK    1  A    between atoms: C_1  and  C_2
REMARK    2  A    between atoms: C_6  and  N_7
REMARK    3  A    between atoms: N_10  and  C_11
REMARK    4  A    between atoms: C_11  and  C_12
REMARK    5  A    between atoms: C_12  and  C_13
REMARK    6  A    between atoms: C_13  and  N_14
REMARK    7  A    between atoms: C_15  and  C_17
REMARK    8  A    between atoms: C_19  and  C_20
REMARK    9  A    between atoms: C_27  and  C_28
REMARK   10  A    between atoms: C_31  and  C_32
REMARK                            x       y       z     vdW  Elec       q    Type
REMARK                         _______ _______ _______ _____ _____    ______ ____
ROOT
ATOM      1  C   UNL     1       5.711   5.228  15.007  0.00  0.00    +0.000 C 
ENDROOT
BRANCH   1   2
ATOM      2  N   UNL     1       6.595   5.891  15.940  0.00  0.00    +0.000 N 
ATOM      3  C   UNL     1       6.214   7.037  16.595  0.00  0.00    +0.000 C 
ATOM      4  O   UNL     1       5.115   7.563  16.433  0.00  0.00    +0.000 OA
ATOM      5  H   UNL     1       7.399   5.391  16.286  0.00  0.00    +0.000 HD
BRANCH   3   6
ATOM      6  C   UNL     1       7.189   7.572  17.543  0.00  0.00    +0.000 A 
ATOM      7  C   UNL     1       7.620   8.933  17.556  0.00  0.00    +0.000 A 
ATOM      8  C   UNL     1       8.588   9.096  18.526  0.00  0.00    +0.000 A 
ATOM      9  N   UNL     1       8.743   7.865  19.118  0.00  0.00    +0.000 N 
ATOM     10  C   UNL     1       7.921   6.926  18.535  0.00  0.00    +0.000 A 
ATOM     11  C   UNL     1       7.993   5.503  18.962  0.00  0.00    +0.000 C 
ATOM     12  H   UNL     1       9.424   7.665  19.838  0.00  0.00    +0.000 HD
BRANCH   8  13
ATOM     13  C   UNL     1       9.385  10.273  18.879  0.00  0.00    +0.000 A 
ATOM     14  C   UNL     1       9.602  10.636  20.215  0.00  0.00    +0.000 A 
ATOM     15  C   UNL     1      10.378  11.756  20.529  0.00  0.00    +0.000 A 
ATOM     16  C   UNL     1      10.944  12.524  19.514  0.00  0.00    +0.000 A 
ATOM     17  C   UNL     1      10.730  12.180  18.183  0.00  0.00    +0.000 A 
ATOM     18  C   UNL     1       9.954  11.061  17.868  0.00  0.00    +0.000 A 
ENDBRANCH   8  13
ENDBRANCH   3   6
ENDBRANCH   1   2
BRANCH   1  19
ATOM     19  C   UNL     1       4.831   4.196  15.705  0.00  0.00    +0.000 C 
BRANCH  19  20
ATOM     20  C   UNL     1       5.395   3.790  17.069  0.00  0.00    +0.000 C 
BRANCH  20  24
ATOM     21  N   UNL     1       2.863   5.823  18.793  0.00  0.00    +0.000 N 
ATOM     22  C   UNL     1       4.215   5.560  19.336  0.00  0.00    +0.000 C 
ATOM     23  C   UNL     1       4.504   4.044  19.363  0.00  0.00    +0.000 C 
ATOM     24  N   UNL     1       4.375   3.372  18.048  0.00  0.00    +0.000 NA
ATOM     25  C   UNL     1       3.011   3.665  17.539  0.00  0.00    +0.000 C 
ATOM     26  C   UNL     1       2.640   5.171  17.476  0.00  0.00    +0.000 C 
BRANCH  21  32
ATOM     27  C   UNL     1       0.230   9.441  21.074  0.00  0.00    +0.000 C 
ATOM     28  C   UNL     1       1.117   8.943  19.964  0.00  0.00    +0.000 A 
ATOM     29  C   UNL     1       1.408   9.812  18.905  0.00  0.00    +0.000 A 
ATOM     30  C   UNL     1       2.200   9.388  17.850  0.00  0.00    +0.000 A 
ATOM     31  C   UNL     1       2.676   8.078  17.822  0.00  0.00    +0.000 A 
ATOM     32  C   UNL     1       2.400   7.157  18.853  0.00  0.00    +0.000 A 
ATOM     33  C   UNL     1       1.654   7.628  19.968  0.00  0.00    +0.000 A 
ATOM     34  C   UNL     1       1.431   6.760  21.186  0.00  0.00    +0.000 C 
ENDBRANCH  21  32
ENDBRANCH  20  24
ENDBRANCH  19  20
ENDBRANCH   1  19
TORSDOF 7
ENDMDL
MODEL 6
REMARK VINA RESULT:      -8.2      2.995     10.980
REMARK  Name = 
REMARK  10 active torsions:
REMARK  status: ('A' for Active; 'I' for Inactive)
REMARK    1  A    between atoms: C_1  and  C_2
REMARK    2  A    between atoms: C_6  and  N_7
REMARK    3  A    between atoms: N_10  and  C_11
REMARK    4  A    between atoms: C_11  and  C_12
REMARK    5  A    between atoms: C_12  and  C_13
REMARK    6  A    between atoms: C_13  and  N_14
REMARK    7  A    between atoms: C_15  and  C_17
REMARK    8  A    between atoms: C_19  and  C_20
REMARK    9  A    between atoms: C_27  and  C_28
REMARK   10  A    between atoms: C_31  and  C_32
REMARK                            x       y       z     vdW  Elec       q    Type
REMARK                         _______ _______ _______ _____ _____    ______ ____
ROOT
ATOM      1  C   UNL     1       8.862   9.620  18.059  0.00  0.00    +0.000 C 
ENDROOT
BRANCH   1   2
ATOM      2  N   UNL     1       8.803  10.575  19.143  0.00  0.00    +0.000 N 
ATOM      3  C   UNL     1       9.463  11.778  19.073  0.00  0.00    +0.000 C 
ATOM      4  O   UNL     1      10.134  12.114  18.099  0.00  0.00    +0.000 OA
ATOM      5  H   UNL     1       8.094  10.462  19.851  0.00  0.00    +0.000 HD
BRANCH   3   6
ATOM      6  C   UNL     1       9.277  12.665  20.220  0.00  0.00    +0.000 A 
ATOM      7  C   UNL     1       9.060  12.204  21.553  0.00  0.00    +0.000 A 
ATOM      8  C   UNL     1       8.859  13.288  22.384  0.00  0.00    +0.000 A 
ATOM      9  N   UNL     1       8.967  14.403  21.586  0.00  0.00    +0.000 N 
ATOM     10  C   UNL     1       9.206  14.054  20.274  0.00  0.00    +0.000 A 
ATOM     11  C   UNL     1       9.267  15.104  19.223  0.00  0.00    +0.000 C 
ATOM     12  H   UNL     1       8.819  15.348  21.911  0.00  0.00    +0.000 HD
BRANCH   8  13
ATOM     13  C   UNL     1       8.528  13.339  23.809  0.00  0.00    +0.000 A 
ATOM     14  C   UNL     1       8.084  12.201  24.498  0.00  0.00    +0.000 A 
ATOM     15  C   UNL     1       7.787  12.269  25.863  0.00  0.00    +0.000 A 
ATOM     16  C   UNL     1       7.928  13.471  26.552  0.00  0.00    +0.000 A 
ATOM     17  C   UNL     1       8.361  14.610  25.879  0.00  0.00    +0.000 A 
ATOM     18  C   UNL     1       8.658  14.543  24.516  0.00  0.00    +0.000 A 
ENDBRANCH   8  13
ENDBRANCH   3   6
ENDBRANCH   1   2
BRANCH   1  19
ATOM     19  C   UNL     1       8.293   8.267  18.472  0.00  0.00    +0.000 C 
BRANCH  19  20
ATOM     20  C   UNL     1       7.325   7.706  17.427  0.00  0.00    +0.000 C 
BRANCH  20  24
ATOM     21  N   UNL     1       5.034   4.970  18.307  0.00  0.00    +0.000 N 
ATOM     22  C   UNL     1       6.130   5.438  19.184  0.00  0.00    +0.000 C 
ATOM     23  C   UNL     1       7.471   5.446  18.422  0.00  0.00    +0.000 C 
ATOM     24  N   UNL     1       7.467   6.259  17.182  0.00  0.00    +0.000 NA
ATOM     25  C   UNL     1       6.353   5.761  16.336  0.00  0.00    +0.000 C 
ATOM     26  C   UNL     1       4.964   5.724  17.028  0.00  0.00    +0.000 C 
BRANCH  21  32
ATOM     27  C   UNL     1       0.826   2.278  18.842  0.00  0.00    +0.000 C 
ATOM     28  C   UNL     1       1.708   3.448  19.191  0.00  0.00    +0.000 A 
ATOM     29  C   UNL     1       1.213   4.413  20.077  0.00  0.00    +0.000 A 
ATOM     30  C   UNL     1       1.980   5.519  20.407  0.00  0.00    +0.000 A 
ATOM     31  C   UNL     1       3.234   5.693  19.824  0.00  0.00    +0.000 A 
ATOM     32  C   UNL     1       3.774   4.762  18.914  0.00  0.00    +0.000 A 
ATOM     33  C   UNL     1       3.012   3.592  18.645  0.00  0.00    +0.000 A 
ATOM     34  C   UNL     1       3.569   2.470  17.798  0.00  0.00    +0.000 C 
ENDBRANCH  21  32
ENDBRANCH  20  24
ENDBRANCH  19  20
ENDBRANCH   1  19
TORSDOF 7
ENDMDL
MODEL 7
REMARK VINA RESULT:      -8.2      1.191      1.798
REMARK  Name = 
REMARK  10 active torsions:
REMARK  status: ('A' for Active; 'I' for Inactive)
REMARK    1  A    between atoms: C_1  and  C_2
REMARK    2  A    between atoms: C_6  and  N_7
REMARK    3  A    between atoms: N_10  and  C_11
REMARK    4  A    between atoms: C_11  and  C_12
REMARK    5  A    between atoms: C_12  and  C_13
REMARK    6  A    between atoms: C_13  and  N_14
REMARK    7  A    between atoms: C_15  and  C_17
REMARK    8  A    between atoms: C_19  and  C_20
REMARK    9  A    between atoms: C_27  and  C_28
REMARK   10  A    between atoms: C_31  and  C_32
REMARK                            x       y       z     vdW  Elec       q    Type
REMARK                         _______ _______ _______ _____ _____    ______ ____
ROOT
ATOM      1  C   UNL     1       8.539   8.054  18.426  0.00  0.00    +0.000 C 
ENDROOT
BRANCH   1   2
ATOM      2  N   UNL     1       7.414   7.148  18.334  0.00  0.00    +0.000 N 
ATOM      3  C   UNL     1       7.124   6.486  17.166  0.00  0.00    +0.000 C 
ATOM      4  O   UNL     1       7.791   6.618  16.141  0.00  0.00    +0.000 OA
ATOM      5  H   UNL     1       6.982   6.823  19.185  0.00  0.00    +0.000 HD
BRANCH   3   6
ATOM      6  C   UNL     1       5.990   5.566  17.230  0.00  0.00    +0.000 A 
ATOM      7  C   UNL     1       5.018   5.575  18.276  0.00  0.00    +0.000 A 
ATOM      8  C   UNL     1       4.122   4.545  18.075  0.00  0.00    +0.000 A 
ATOM      9  N   UNL     1       4.517   3.918  16.916  0.00  0.00    +0.000 N 
ATOM     10  C   UNL     1       5.649   4.507  16.395  0.00  0.00    +0.000 A 
ATOM     11  C   UNL     1       6.302   3.929  15.189  0.00  0.00    +0.000 C 
ATOM     12  H   UNL     1       4.075   3.091  16.541  0.00  0.00    +0.000 HD
BRANCH   8  13
ATOM     13  C   UNL     1       2.999   4.094  18.899  0.00  0.00    +0.000 A 
ATOM     14  C   UNL     1       2.858   4.505  20.232  0.00  0.00    +0.000 A 
ATOM     15  C   UNL     1       1.769   4.074  20.996  0.00  0.00    +0.000 A 
ATOM     16  C   UNL     1       0.813   3.228  20.439  0.00  0.00    +0.000 A 
ATOM     17  C   UNL     1       0.944   2.807  19.120  0.00  0.00    +0.000 A 
ATOM     18  C   UNL     1       2.031   3.237  18.356  0.00  0.00    +0.000 A 
ENDBRANCH   8  13
ENDBRANCH   3   6
ENDBRANCH   1   2
BRANCH   1  19
ATOM     19  C   UNL     1       8.151   9.472  18.020  0.00  0.00    +0.000 C 
BRANCH  19  20
ATOM     20  C   UNL     1       9.360  10.409  17.982  0.00  0.00    +0.000 C 
BRANCH  20  24
ATOM     21  N   UNL     1      10.470  13.657  19.302  0.00  0.00    +0.000 N 
ATOM     22  C   UNL     1      11.362  12.706  18.602  0.00  0.00    +0.000 C 
ATOM     23  C   UNL     1      11.285  11.308  19.251  0.00  0.00    +0.000 C 
ATOM     24  N   UNL     1       9.919  10.733  19.308  0.00  0.00    +0.000 NA
ATOM     25  C   UNL     1       9.059  11.718  20.011  0.00  0.00    +0.000 C 
ATOM     26  C   UNL     1       9.076  13.152  19.418  0.00  0.00    +0.000 C 
BRANCH  21  32
ATOM     27  C   UNL     1      10.603  18.538  20.476  0.00  0.00    +0.000 C 
ATOM     28  C   UNL     1      10.626  17.411  19.477  0.00  0.00    +0.000 A 
ATOM     29  C   UNL     1      10.630  17.731  18.114  0.00  0.00    +0.000 A 
ATOM     30  C   UNL     1      10.626  16.726  17.159  0.00  0.00    +0.000 A 
ATOM     31  C   UNL     1      10.576  15.391  17.558  0.00  0.00    +0.000 A 
ATOM     32  C   UNL     1      10.553  15.013  18.916  0.00  0.00    +0.000 A 
ATOM     33  C   UNL     1      10.639  16.051  19.885  0.00  0.00    +0.000 A 
ATOM     34  C   UNL     1      10.767  15.738  21.359  0.00  0.00    +0.000 C 
ENDBRANCH  21  32
ENDBRANCH  20  24
ENDBRANCH  19  20
ENDBRANCH   1  19
TORSDOF 7
ENDMDL
MODEL 8
REMARK VINA RESULT:      -8.1      3.158     10.793
REMARK  Name = 
REMARK  10 active torsions:
REMARK  status: ('A' for Active; 'I' for Inactive)
REMARK    1  A    between atoms: C_1  and  C_2
REMARK    2  A    between atoms: C_6  and  N_7
REMARK    3  A    between atoms: N_10  and  C_11
REMARK    4  A    between atoms: C_11  and  C_12
REMARK    5  A    between atoms: C_12  and  C_13
REMARK    6  A    between atoms: C_13  and  N_14
REMARK    7  A    between atoms: C_15  and  C_17
REMARK    8  A    between atoms: C_19  and  C_20
REMARK    9  A    between atoms: C_27  and  C_28
REMARK   10  A    between atoms: C_31  and  C_32
REMARK                            x       y       z     vdW  Elec       q    Type
REMARK                         _______ _______ _______ _____ _____    ______ ____
ROOT
ATOM      1  C   UNL     1       8.473   9.541  17.876  0.00  0.00    +0.000 C 
ENDROOT
BRANCH   1   2
ATOM      2  N   UNL     1       8.508  10.332  19.087  0.00  0.00    +0.000 N 
ATOM      3  C   UNL     1       9.610  11.081  19.420  0.00  0.00    +0.000 C 
ATOM      4  O   UNL     1      10.621  11.126  18.722  0.00  0.00    +0.000 OA
ATOM      5  H   UNL     1       7.642  10.519  19.568  0.00  0.00    +0.000 HD
BRANCH   3   6
ATOM      6  C   UNL     1       9.488  11.868  20.646  0.00  0.00    +0.000 A 
ATOM      7  C   UNL     1       8.790  11.424  21.809  0.00  0.00    +0.000 A 
ATOM      8  C   UNL     1       8.806  12.423  22.761  0.00  0.00    +0.000 A 
ATOM      9  N   UNL     1       9.515  13.463  22.208  0.00  0.00    +0.000 N 
ATOM     10  C   UNL     1       9.926  13.159  20.927  0.00  0.00    +0.000 A 
ATOM     11  C   UNL     1      10.632  14.180  20.109  0.00  0.00    +0.000 C 
ATOM     12  H   UNL     1       9.652  14.357  22.658  0.00  0.00    +0.000 HD
BRANCH   8  13
ATOM     13  C   UNL     1       8.174  12.483  24.080  0.00  0.00    +0.000 A 
ATOM     14  C   UNL     1       7.242  11.519  24.490  0.00  0.00    +0.000 A 
ATOM     15  C   UNL     1       6.661  11.587  25.759  0.00  0.00    +0.000 A 
ATOM     16  C   UNL     1       7.003  12.618  26.632  0.00  0.00    +0.000 A 
ATOM     17  C   UNL     1       7.921  13.585  26.237  0.00  0.00    +0.000 A 
ATOM     18  C   UNL     1       8.502  13.517  24.968  0.00  0.00    +0.000 A 
ENDBRANCH   8  13
ENDBRANCH   3   6
ENDBRANCH   1   2
BRANCH   1  19
ATOM     19  C   UNL     1       8.240   8.064  18.178  0.00  0.00    +0.000 C 
BRANCH  19  20
ATOM     20  C   UNL     1       7.079   7.488  17.365  0.00  0.00    +0.000 C 
BRANCH  20  24
ATOM     21  N   UNL     1       5.140   4.367  17.486  0.00  0.00    +0.000 N 
ATOM     22  C   UNL     1       6.216   4.704  18.445  0.00  0.00    +0.000 C 
ATOM     23  C   UNL     1       7.514   5.076  17.698  0.00  0.00    +0.000 C 
ATOM     24  N   UNL     1       7.367   6.189  16.730  0.00  0.00    +0.000 NA
ATOM     25  C   UNL     1       6.278   5.813  15.793  0.00  0.00    +0.000 C 
ATOM     26  C   UNL     1       4.933   5.427  16.464  0.00  0.00    +0.000 C 
BRANCH  21  32
ATOM     27  C   UNL     1       1.240   4.763  20.625  0.00  0.00    +0.000 C 
ATOM     28  C   UNL     1       2.016   4.039  19.556  0.00  0.00    +0.000 A 
ATOM     29  C   UNL     1       1.578   2.770  19.160  0.00  0.00    +0.000 A 
ATOM     30  C   UNL     1       2.277   2.058  18.198  0.00  0.00    +0.000 A 
ATOM     31  C   UNL     1       3.443   2.590  17.651  0.00  0.00    +0.000 A 
ATOM     32  C   UNL     1       3.939   3.856  18.026  0.00  0.00    +0.000 A 
ATOM     33  C   UNL     1       3.169   4.610  18.954  0.00  0.00    +0.000 A 
ATOM     34  C   UNL     1       3.541   6.033  19.307  0.00  0.00    +0.000 C 
ENDBRANCH  21  32
ENDBRANCH  20  24
ENDBRANCH  19  20
ENDBRANCH   1  19
TORSDOF 7
ENDMDL
MODEL 9
REMARK VINA RESULT:      -8.1      2.732     10.767
REMARK  Name = 
REMARK  10 active torsions:
REMARK  status: ('A' for Active; 'I' for Inactive)
REMARK    1  A    between atoms: C_1  and  C_2
REMARK    2  A    between atoms: C_6  and  N_7
REMARK    3  A    between atoms: N_10  and  C_11
REMARK    4  A    between atoms: C_11  and  C_12
REMARK    5  A    between atoms: C_12  and  C_13
REMARK    6  A    between atoms: C_13  and  N_14
REMARK    7  A    between atoms: C_15  and  C_17
REMARK    8  A    between atoms: C_19  and  C_20
REMARK    9  A    between atoms: C_27  and  C_28
REMARK   10  A    between atoms: C_31  and  C_32
REMARK                            x       y       z     vdW  Elec       q    Type
REMARK                         _______ _______ _______ _____ _____    ______ ____
ROOT
ATOM      1  C   UNL     1       8.590   8.892  17.580  0.00  0.00    +0.000 C 
ENDROOT
BRANCH   1   2
ATOM      2  N   UNL     1       8.516   9.945  18.569  0.00  0.00    +0.000 N 
ATOM      3  C   UNL     1       9.387  11.007  18.549  0.00  0.00    +0.000 C 
ATOM      4  O   UNL     1      10.271  11.128  17.703  0.00  0.00    +0.000 OA
ATOM      5  H   UNL     1       7.685  10.023  19.133  0.00  0.00    +0.000 HD
BRANCH   3   6
ATOM      6  C   UNL     1       9.167  12.020  19.580  0.00  0.00    +0.000 A 
ATOM      7  C   UNL     1       9.167  11.742  20.980  0.00  0.00    +0.000 A 
ATOM      8  C   UNL     1       8.867  12.896  21.674  0.00  0.00    +0.000 A 
ATOM      9  N   UNL     1       8.700  13.877  20.726  0.00  0.00    +0.000 N 
ATOM     10  C   UNL     1       8.862  13.372  19.454  0.00  0.00    +0.000 A 
ATOM     11  C   UNL     1       8.635  14.244  18.271  0.00  0.00    +0.000 C 
ATOM     12  H   UNL     1       8.423  14.827  20.936  0.00  0.00    +0.000 HD
BRANCH   8  13
ATOM     13  C   UNL     1       8.677  13.113  23.110  0.00  0.00    +0.000 A 
ATOM     14  C   UNL     1       8.345  12.059  23.972  0.00  0.00    +0.000 A 
ATOM     15  C   UNL     1       8.182  12.287  25.342  0.00  0.00    +0.000 A 
ATOM     16  C   UNL     1       8.347  13.568  25.864  0.00  0.00    +0.000 A 
ATOM     17  C   UNL     1       8.669  14.625  25.019  0.00  0.00    +0.000 A 
ATOM     18  C   UNL     1       8.832  14.398  23.650  0.00  0.00    +0.000 A 
ENDBRANCH   8  13
ENDBRANCH   3   6
ENDBRANCH   1   2
BRANCH   1  19
ATOM     19  C   UNL     1       7.674   7.725  17.934  0.00  0.00    +0.000 C 
BRANCH  19  20
ATOM     20  C   UNL     1       7.370   6.845  16.719  0.00  0.00    +0.000 C 
BRANCH  20  24
ATOM     21  N   UNL     1       5.097   4.694  18.648  0.00  0.00    +0.000 N 
ATOM     22  C   UNL     1       6.271   5.380  19.231  0.00  0.00    +0.000 C 
ATOM     23  C   UNL     1       7.545   5.059  18.422  0.00  0.00    +0.000 C 
ATOM     24  N   UNL     1       7.458   5.397  16.981  0.00  0.00    +0.000 NA
ATOM     25  C   UNL     1       6.268   4.694  16.439  0.00  0.00    +0.000 C 
ATOM     26  C   UNL     1       4.939   4.966  17.195  0.00  0.00    +0.000 C 
BRANCH  21  32
ATOM     27  C   UNL     1       1.483   2.509  21.369  0.00  0.00    +0.000 C 
ATOM     28  C   UNL     1       2.110   3.713  20.716  0.00  0.00    +0.000 A 
ATOM     29  C   UNL     1       1.413   4.927  20.750  0.00  0.00    +0.000 A 
ATOM     30  C   UNL     1       1.941   6.054  20.140  0.00  0.00    +0.000 A 
ATOM     31  C   UNL     1       3.151   5.970  19.455  0.00  0.00    +0.000 A 
ATOM     32  C   UNL     1       3.886   4.770  19.374  0.00  0.00    +0.000 A 
ATOM     33  C   UNL     1       3.375   3.641  20.072  0.00  0.00    +0.000 A 
ATOM     34  C   UNL     1       4.162   2.353  20.165  0.00  0.00    +0.000 C 
ENDBRANCH  21  32
ENDBRANCH  20  24
ENDBRANCH  19  20
ENDBRANCH   1  19
TORSDOF 7
ENDMDL
