MODEL 1
REMARK VINA RESULT:      -7.2      0.000      0.000
REMARK  Name = 
REMARK  7 active torsions:
REMARK  status: ('A' for Active; 'I' for Inactive)
REMARK    1  A    between atoms: C_1  and  C_2
REMARK    2  A    between atoms: C_2  and  C_3
REMARK    3  A    between atoms: C_2  and  C_4
REMARK    4  A    between atoms: C_2  and  C_5
REMARK    5  A    between atoms: C_9  and  O_10
REMARK    6  A    between atoms: O_10  and  C_11
REMARK    7  A    between atoms: C_11  and  C_12
REMARK                            x       y       z     vdW  Elec       q    Type
REMARK                         _______ _______ _______ _____ _____    ______ ____
ROOT
ATOM      1  C   UNL     1       3.620   4.526  18.924  0.00  0.00    +0.000 C 
ATOM      2  O   UNL     1       3.709   4.926  20.093  0.00  0.00    +0.000 OA
ATOM      3  N   UNL     1       4.537   4.963  17.997  0.00  0.00    +0.000 N 
ATOM      4  C   UNL     1       5.662   5.769  18.439  0.00  0.00    +0.000 C 
ATOM      5  C   UNL     1       6.529   5.994  17.199  0.00  0.00    +0.000 C 
ATOM      6  C   UNL     1       5.490   5.971  16.081  0.00  0.00    +0.000 C 
ATOM      7  F   UNL     1       4.832   7.168  16.041  0.00  0.00    +0.000 F 
ATOM      8  C   UNL     1       4.507   4.901  16.537  0.00  0.00    +0.000 C 
ENDROOT
BRANCH   1  10
ATOM      9  C   UNL     1       1.500   4.125  17.634  0.00  0.00    +0.000 C 
ATOM     10  C   UNL     1       2.559   3.457  18.546  0.00  0.00    +0.000 C 
ATOM     11  C   UNL     1       1.845   2.994  19.823  0.00  0.00    +0.000 C 
ATOM     12  C   UNL     1       3.119   2.265  17.764  0.00  0.00    +0.000 C 
ENDBRANCH   1  10
BRANCH   5  13
ATOM     13  O   UNL     1       7.231   7.233  17.186  0.00  0.00    +0.000 OA
BRANCH  13  14
ATOM     14  C   UNL     1       8.111   7.383  18.298  0.00  0.00    +0.000 C 
BRANCH  14  15
ATOM     15  C   UNL     1       8.434   8.829  18.398  0.00  0.00    +0.000 A 
ATOM     16  N   UNL     1       8.034   9.784  17.584  0.00  0.00    +0.000 NA
ATOM     17  C   UNL     1       8.609  10.929  18.065  0.00  0.00    +0.000 A 
ATOM     18  N   UNL     1       8.464  12.158  17.530  0.00  0.00    +0.000 NA
ATOM     19  C   UNL     1       9.133  13.129  18.180  0.00  0.00    +0.000 A 
ATOM     20  C   UNL     1       9.926  12.953  19.311  0.00  0.00    +0.000 A 
ATOM     21  C   UNL     1      10.070  11.680  19.861  0.00  0.00    +0.000 A 
ATOM     22  C   UNL     1       9.381  10.674  19.193  0.00  0.00    +0.000 A 
ATOM     23  N   UNL     1       9.252   9.327  19.389  0.00  0.00    +0.000 N 
ATOM     24  H   UNL     1       9.650   8.771  20.132  0.00  0.00    +0.000 HD
ENDBRANCH  14  15
ENDBRANCH  13  14
ENDBRANCH   5  13
TORSDOF 4
ENDMDL
MODEL 2
REMARK VINA RESULT:      -7.1      4.957      6.778
REMARK  Name = 
REMARK  7 active torsions:
REMARK  status: ('A' for Active; 'I' for Inactive)
REMARK    1  A    between atoms: C_1  and  C_2
REMARK    2  A    between atoms: C_2  and  C_3
REMARK    3  A    between atoms: C_2  and  C_4
REMARK    4  A    between atoms: C_2  and  C_5
REMARK    5  A    between atoms: C_9  and  O_10
REMARK    6  A    between atoms: O_10  and  C_11
REMARK    7  A    between atoms: C_11  and  C_12
REMARK                            x       y       z     vdW  Elec       q    Type
REMARK                         _______ _______ _______ _____ _____    ______ ____
ROOT
ATOM      1  C   UNL     1       1.360   8.733  19.660  0.00  0.00    +0.000 C 
ATOM      2  O   UNL     1       1.410   9.465  18.661  0.00  0.00    +0.000 OA
ATOM      3  N   UNL     1       2.074   7.558  19.662  0.00  0.00    +0.000 N 
ATOM      4  C   UNL     1       2.971   7.271  18.556  0.00  0.00    +0.000 C 
ATOM      5  C   UNL     1       3.673   5.961  18.915  0.00  0.00    +0.000 C 
ATOM      6  C   UNL     1       2.614   5.257  19.757  0.00  0.00    +0.000 C 
ATOM      7  F   UNL     1       1.663   4.714  18.940  0.00  0.00    +0.000 F 
ATOM      8  C   UNL     1       1.975   6.395  20.542  0.00  0.00    +0.000 C 
ENDROOT
BRANCH   1  10
ATOM      9  C   UNL     1      -0.499   8.154  21.249  0.00  0.00    +0.000 C 
ATOM     10  C   UNL     1       0.598   9.200  20.929  0.00  0.00    +0.000 C 
ATOM     11  C   UNL     1      -0.104  10.530  20.625  0.00  0.00    +0.000 C 
ATOM     12  C   UNL     1       1.473   9.313  22.181  0.00  0.00    +0.000 C 
ENDBRANCH   1  10
BRANCH   5  13
ATOM     13  O   UNL     1       4.022   5.151  17.796  0.00  0.00    +0.000 OA
BRANCH  13  14
ATOM     14  C   UNL     1       5.340   4.615  17.890  0.00  0.00    +0.000 C 
BRANCH  14  15
ATOM     15  C   UNL     1       5.902   4.612  16.516  0.00  0.00    +0.000 A 
ATOM     16  N   UNL     1       6.903   5.344  16.072  0.00  0.00    +0.000 NA
ATOM     17  C   UNL     1       7.029   5.015  14.750  0.00  0.00    +0.000 A 
ATOM     18  N   UNL     1       7.940   5.533  13.901  0.00  0.00    +0.000 NA
ATOM     19  C   UNL     1       7.864   5.054  12.645  0.00  0.00    +0.000 A 
ATOM     20  C   UNL     1       6.949   4.108  12.189  0.00  0.00    +0.000 A 
ATOM     21  C   UNL     1       6.010   3.575  13.072  0.00  0.00    +0.000 A 
ATOM     22  C   UNL     1       6.086   4.067  14.370  0.00  0.00    +0.000 A 
ATOM     23  N   UNL     1       5.379   3.822  15.515  0.00  0.00    +0.000 N 
ATOM     24  H   UNL     1       4.621   3.167  15.644  0.00  0.00    +0.000 HD
ENDBRANCH  14  15
ENDBRANCH  13  14
ENDBRANCH   5  13
TORSDOF 4
ENDMDL
MODEL 3
REMARK VINA RESULT:      -7.0      4.917      6.771
REMARK  Name = 
REMARK  7 active torsions:
REMARK  status: ('A' for Active; 'I' for Inactive)
REMARK    1  A    between atoms: C_1  and  C_2
REMARK    2  A    between atoms: C_2  and  C_3
REMARK    3  A    between atoms: C_2  and  C_4
REMARK    4  A    between atoms: C_2  and  C_5
REMARK    5  A    between atoms: C_9  and  O_10
REMARK    6  A    between atoms: O_10  and  C_11
REMARK    7  A    between atoms: C_11  and  C_12
REMARK                            x       y       z     vdW  Elec       q    Type
REMARK                         _______ _______ _______ _____ _____    ______ ____
ROOT
ATOM      1  C   UNL     1       1.723   8.965  18.514  0.00  0.00    +0.000 C 
ATOM      2  O   UNL     1       2.082   9.225  17.357  0.00  0.00    +0.000 OA
ATOM      3  N   UNL     1       2.181   7.814  19.112  0.00  0.00    +0.000 N 
ATOM      4  C   UNL     1       3.176   7.007  18.428  0.00  0.00    +0.000 C 
ATOM      5  C   UNL     1       3.537   5.878  19.395  0.00  0.00    +0.000 C 
ATOM      6  C   UNL     1       2.234   5.698  20.168  0.00  0.00    +0.000 C 
ATOM      7  F   UNL     1       1.345   4.988  19.411  0.00  0.00    +0.000 F 
ATOM      8  C   UNL     1       1.710   7.121  20.309  0.00  0.00    +0.000 C 
ENDROOT
BRANCH   1  10
ATOM      9  C   UNL     1       0.972   9.637  20.816  0.00  0.00    +0.000 C 
ATOM     10  C   UNL     1       0.866   9.985  19.311  0.00  0.00    +0.000 C 
ATOM     11  C   UNL     1      -0.604   9.824  18.901  0.00  0.00    +0.000 C 
ATOM     12  C   UNL     1       1.323  11.440  19.164  0.00  0.00    +0.000 C 
ENDBRANCH   1  10
BRANCH   5  13
ATOM     13  O   UNL     1       3.902   4.654  18.764  0.00  0.00    +0.000 OA
BRANCH  13  14
ATOM     14  C   UNL     1       5.306   4.406  18.806  0.00  0.00    +0.000 C 
BRANCH  14  15
ATOM     15  C   UNL     1       5.793   4.459  17.404  0.00  0.00    +0.000 A 
ATOM     16  N   UNL     1       6.741   5.239  16.929  0.00  0.00    +0.000 NA
ATOM     17  C   UNL     1       6.809   4.948  15.593  0.00  0.00    +0.000 A 
ATOM     18  N   UNL     1       7.654   5.521  14.712  0.00  0.00    +0.000 NA
ATOM     19  C   UNL     1       7.529   5.071  13.449  0.00  0.00    +0.000 A 
ATOM     20  C   UNL     1       6.626   4.102  13.017  0.00  0.00    +0.000 A 
ATOM     21  C   UNL     1       5.756   3.512  13.933  0.00  0.00    +0.000 A 
ATOM     22  C   UNL     1       5.882   3.974  15.239  0.00  0.00    +0.000 A 
ATOM     23  N   UNL     1       5.247   3.674  16.412  0.00  0.00    +0.000 N 
ATOM     24  H   UNL     1       4.521   2.988  16.563  0.00  0.00    +0.000 HD
ENDBRANCH  14  15
ENDBRANCH  13  14
ENDBRANCH   5  13
TORSDOF 4
ENDMDL
MODEL 4
REMARK VINA RESULT:      -6.9      6.115      8.289
REMARK  Name = 
REMARK  7 active torsions:
REMARK  status: ('A' for Active; 'I' for Inactive)
REMARK    1  A    between atoms: C_1  and  C_2
REMARK    2  A    between atoms: C_2  and  C_3
REMARK    3  A    between atoms: C_2  and  C_4
REMARK    4  A    between atoms: C_2  and  C_5
REMARK    5  A    between atoms: C_9  and  O_10
REMARK    6  A    between atoms: O_10  and  C_11
REMARK    7  A    between atoms: C_11  and  C_12
REMARK                            x       y       z     vdW  Elec       q    Type
REMARK                         _______ _______ _______ _____ _____    ______ ____
ROOT
ATOM      1  C   UNL     1       3.097   5.055  19.615  0.00  0.00    +0.000 C 
ATOM      2  O   UNL     1       2.445   4.526  20.526  0.00  0.00    +0.000 OA
ATOM      3  N   UNL     1       2.855   6.372  19.299  0.00  0.00    +0.000 N 
ATOM      4  C   UNL     1       1.944   7.144  20.127  0.00  0.00    +0.000 C 
ATOM      5  C   UNL     1       1.980   8.569  19.574  0.00  0.00    +0.000 C 
ATOM      6  C   UNL     1       2.275   8.325  18.097  0.00  0.00    +0.000 C 
ATOM      7  F   UNL     1       1.133   7.929  17.459  0.00  0.00    +0.000 F 
ATOM      8  C   UNL     1       3.240   7.147  18.121  0.00  0.00    +0.000 C 
ENDROOT
BRANCH   1  10
ATOM      9  C   UNL     1       4.358   2.882  19.593  0.00  0.00    +0.000 C 
ATOM     10  C   UNL     1       4.248   4.274  18.925  0.00  0.00    +0.000 C 
ATOM     11  C   UNL     1       5.569   5.015  19.175  0.00  0.00    +0.000 C 
ATOM     12  C   UNL     1       4.031   4.026  17.429  0.00  0.00    +0.000 C 
ENDBRANCH   1  10
BRANCH   5  13
ATOM     13  O   UNL     1       0.758   9.288  19.714  0.00  0.00    +0.000 OA
BRANCH  13  14
ATOM     14  C   UNL     1       0.797  10.572  19.094  0.00  0.00    +0.000 C 
BRANCH  14  15
ATOM     15  C   UNL     1      -0.577  10.858  18.613  0.00  0.00    +0.000 A 
ATOM     16  N   UNL     1      -1.566  11.374  19.313  0.00  0.00    +0.000 NA
ATOM     17  C   UNL     1      -2.630  11.417  18.453  0.00  0.00    +0.000 A 
ATOM     18  N   UNL     1      -3.860  11.880  18.758  0.00  0.00    +0.000 NA
ATOM     19  C   UNL     1      -4.744  11.816  17.744  0.00  0.00    +0.000 A 
ATOM     20  C   UNL     1      -4.482  11.326  16.466  0.00  0.00    +0.000 A 
ATOM     21  C   UNL     1      -3.207  10.851  16.157  0.00  0.00    +0.000 A 
ATOM     22  C   UNL     1      -2.292  10.915  17.202  0.00  0.00    +0.000 A 
ATOM     23  N   UNL     1      -0.975  10.567  17.326  0.00  0.00    +0.000 N 
ATOM     24  H   UNL     1      -0.368  10.187  16.614  0.00  0.00    +0.000 HD
ENDBRANCH  14  15
ENDBRANCH  13  14
ENDBRANCH   5  13
TORSDOF 4
ENDMDL
MODEL 5
REMARK VINA RESULT:      -6.9      4.928      7.017
REMARK  Name = 
REMARK  7 active torsions:
REMARK  status: ('A' for Active; 'I' for Inactive)
REMARK    1  A    between atoms: C_1  and  C_2
REMARK    2  A    between atoms: C_2  and  C_3
REMARK    3  A    between atoms: C_2  and  C_4
REMARK    4  A    between atoms: C_2  and  C_5
REMARK    5  A    between atoms: C_9  and  O_10
REMARK    6  A    between atoms: O_10  and  C_11
REMARK    7  A    between atoms: C_11  and  C_12
REMARK                            x       y       z     vdW  Elec       q    Type
REMARK                         _______ _______ _______ _____ _____    ______ ____
ROOT
ATOM      1  C   UNL     1       5.476   5.779  15.996  0.00  0.00    +0.000 C 
ATOM      2  O   UNL     1       5.372   6.872  15.423  0.00  0.00    +0.000 OA
ATOM      3  N   UNL     1       4.633   5.492  17.045  0.00  0.00    +0.000 N 
ATOM      4  C   UNL     1       3.558   6.415  17.363  0.00  0.00    +0.000 C 
ATOM      5  C   UNL     1       2.762   5.757  18.491  0.00  0.00    +0.000 C 
ATOM      6  C   UNL     1       3.838   4.945  19.205  0.00  0.00    +0.000 C 
ATOM      7  F   UNL     1       4.589   5.771  19.993  0.00  0.00    +0.000 F 
ATOM      8  C   UNL     1       4.716   4.448  18.064  0.00  0.00    +0.000 C 
ENDROOT
BRANCH   1  10
ATOM      9  C   UNL     1       5.677   3.397  15.219  0.00  0.00    +0.000 C 
ATOM     10  C   UNL     1       6.464   4.709  15.458  0.00  0.00    +0.000 C 
ATOM     11  C   UNL     1       7.522   4.425  16.534  0.00  0.00    +0.000 C 
ATOM     12  C   UNL     1       7.121   5.075  14.124  0.00  0.00    +0.000 C 
ENDBRANCH   1  10
BRANCH   5  13
ATOM     13  O   UNL     1       2.160   6.673  19.401  0.00  0.00    +0.000 OA
BRANCH  13  14
ATOM     14  C   UNL     1       2.181   8.018  18.928  0.00  0.00    +0.000 C 
BRANCH  14  15
ATOM     15  C   UNL     1       1.322   8.809  19.845  0.00  0.00    +0.000 A 
ATOM     16  N   UNL     1       0.756   9.971  19.590  0.00  0.00    +0.000 NA
ATOM     17  C   UNL     1       0.098  10.310  20.741  0.00  0.00    +0.000 A 
ATOM     18  N   UNL     1      -0.623  11.435  20.923  0.00  0.00    +0.000 NA
ATOM     19  C   UNL     1      -1.174  11.548  22.147  0.00  0.00    +0.000 A 
ATOM     20  C   UNL     1      -1.051  10.626  23.183  0.00  0.00    +0.000 A 
ATOM     21  C   UNL     1      -0.305   9.464  22.987  0.00  0.00    +0.000 A 
ATOM     22  C   UNL     1       0.266   9.343  21.725  0.00  0.00    +0.000 A 
ATOM     23  N   UNL     1       1.048   8.392  21.130  0.00  0.00    +0.000 N 
ATOM     24  H   UNL     1       1.364   7.518  21.525  0.00  0.00    +0.000 HD
ENDBRANCH  14  15
ENDBRANCH  13  14
ENDBRANCH   5  13
TORSDOF 4
ENDMDL
MODEL 6
REMARK VINA RESULT:      -6.9      4.268      5.976
REMARK  Name = 
REMARK  7 active torsions:
REMARK  status: ('A' for Active; 'I' for Inactive)
REMARK    1  A    between atoms: C_1  and  C_2
REMARK    2  A    between atoms: C_2  and  C_3
REMARK    3  A    between atoms: C_2  and  C_4
REMARK    4  A    between atoms: C_2  and  C_5
REMARK    5  A    between atoms: C_9  and  O_10
REMARK    6  A    between atoms: O_10  and  C_11
REMARK    7  A    between atoms: C_11  and  C_12
REMARK                            x       y       z     vdW  Elec       q    Type
REMARK                         _______ _______ _______ _____ _____    ______ ____
ROOT
ATOM      1  C   UNL     1       3.006   3.520  19.983  0.00  0.00    +0.000 C 
ATOM      2  O   UNL     1       3.921   2.917  20.560  0.00  0.00    +0.000 OA
ATOM      3  N   UNL     1       3.322   4.450  19.020  0.00  0.00    +0.000 N 
ATOM      4  C   UNL     1       4.707   4.602  18.609  0.00  0.00    +0.000 C 
ATOM      5  C   UNL     1       4.696   5.624  17.472  0.00  0.00    +0.000 C 
ATOM      6  C   UNL     1       3.497   6.493  17.840  0.00  0.00    +0.000 C 
ATOM      7  F   UNL     1       3.846   7.360  18.837  0.00  0.00    +0.000 F 
ATOM      8  C   UNL     1       2.500   5.491  18.407  0.00  0.00    +0.000 C 
ENDROOT
BRANCH   1  10
ATOM      9  C   UNL     1       0.711   4.449  20.419  0.00  0.00    +0.000 C 
ATOM     10  C   UNL     1       1.526   3.142  20.263  0.00  0.00    +0.000 C 
ATOM     11  C   UNL     1       1.452   2.388  21.598  0.00  0.00    +0.000 C 
ATOM     12  C   UNL     1       0.859   2.341  19.141  0.00  0.00    +0.000 C 
ENDBRANCH   1  10
BRANCH   5  13
ATOM     13  O   UNL     1       5.870   6.427  17.387  0.00  0.00    +0.000 OA
BRANCH  13  14
ATOM     14  C   UNL     1       7.051   5.659  17.164  0.00  0.00    +0.000 C 
BRANCH  14  15
ATOM     15  C   UNL     1       6.984   5.165  15.765  0.00  0.00    +0.000 A 
ATOM     16  N   UNL     1       7.731   5.556  14.754  0.00  0.00    +0.000 NA
ATOM     17  C   UNL     1       7.279   4.843  13.677  0.00  0.00    +0.000 A 
ATOM     18  N   UNL     1       7.767   4.932  12.423  0.00  0.00    +0.000 NA
ATOM     19  C   UNL     1       7.154   4.131  11.531  0.00  0.00    +0.000 A 
ATOM     20  C   UNL     1       6.099   3.264  11.806  0.00  0.00    +0.000 A 
ATOM     21  C   UNL     1       5.599   3.177  13.105  0.00  0.00    +0.000 A 
ATOM     22  C   UNL     1       6.230   4.001  14.030  0.00  0.00    +0.000 A 
ATOM     23  N   UNL     1       6.061   4.221  15.369  0.00  0.00    +0.000 N 
ATOM     24  H   UNL     1       5.405   3.770  15.990  0.00  0.00    +0.000 HD
ENDBRANCH  14  15
ENDBRANCH  13  14
ENDBRANCH   5  13
TORSDOF 4
ENDMDL
MODEL 7
REMARK VINA RESULT:      -6.8      5.753      8.045
REMARK  Name = 
REMARK  7 active torsions:
REMARK  status: ('A' for Active; 'I' for Inactive)
REMARK    1  A    between atoms: C_1  and  C_2
REMARK    2  A    between atoms: C_2  and  C_3
REMARK    3  A    between atoms: C_2  and  C_4
REMARK    4  A    between atoms: C_2  and  C_5
REMARK    5  A    between atoms: C_9  and  O_10
REMARK    6  A    between atoms: O_10  and  C_11
REMARK    7  A    between atoms: C_11  and  C_12
REMARK                            x       y       z     vdW  Elec       q    Type
REMARK                         _______ _______ _______ _____ _____    ______ ____
ROOT
ATOM      1  C   UNL     1       2.915   4.434  19.805  0.00  0.00    +0.000 C 
ATOM      2  O   UNL     1       2.161   3.875  20.614  0.00  0.00    +0.000 OA
ATOM      3  N   UNL     1       2.767   5.783  19.578  0.00  0.00    +0.000 N 
ATOM      4  C   UNL     1       1.829   6.540  20.388  0.00  0.00    +0.000 C 
ATOM      5  C   UNL     1       1.985   7.999  19.955  0.00  0.00    +0.000 C 
ATOM      6  C   UNL     1       2.393   7.851  18.493  0.00  0.00    +0.000 C 
ATOM      7  F   UNL     1       1.292   7.571  17.734  0.00  0.00    +0.000 F 
ATOM      8  C   UNL     1       3.291   6.622  18.502  0.00  0.00    +0.000 C 
ENDROOT
BRANCH   1  10
ATOM      9  C   UNL     1       5.356   4.519  19.212  0.00  0.00    +0.000 C 
ATOM     10  C   UNL     1       4.080   3.643  19.151  0.00  0.00    +0.000 C 
ATOM     11  C   UNL     1       3.749   3.407  17.671  0.00  0.00    +0.000 C 
ATOM     12  C   UNL     1       4.419   2.327  19.856  0.00  0.00    +0.000 C 
ENDBRANCH   1  10
BRANCH   5  13
ATOM     13  O   UNL     1       0.793   8.773  20.052  0.00  0.00    +0.000 OA
BRANCH  13  14
ATOM     14  C   UNL     1       0.937  10.081  19.502  0.00  0.00    +0.000 C 
BRANCH  14  15
ATOM     15  C   UNL     1      -0.344  10.406  18.825  0.00  0.00    +0.000 A 
ATOM     16  N   UNL     1      -1.364  11.061  19.341  0.00  0.00    +0.000 NA
ATOM     17  C   UNL     1      -2.312  11.082  18.355  0.00  0.00    +0.000 A 
ATOM     18  N   UNL     1      -3.528  11.657  18.455  0.00  0.00    +0.000 NA
ATOM     19  C   UNL     1      -4.289  11.543  17.350  0.00  0.00    +0.000 A 
ATOM     20  C   UNL     1      -3.919  10.900  16.170  0.00  0.00    +0.000 A 
ATOM     21  C   UNL     1      -2.659  10.309  16.073  0.00  0.00    +0.000 A 
ATOM     22  C   UNL     1      -1.871  10.425  17.212  0.00  0.00    +0.000 A 
ATOM     23  N   UNL     1      -0.610  10.004  17.534  0.00  0.00    +0.000 N 
ATOM     24  H   UNL     1       0.044   9.508  16.946  0.00  0.00    +0.000 HD
ENDBRANCH  14  15
ENDBRANCH  13  14
ENDBRANCH   5  13
TORSDOF 4
ENDMDL
MODEL 8
REMARK VINA RESULT:      -6.8      4.316      5.972
REMARK  Name = 
REMARK  7 active torsions:
REMARK  status: ('A' for Active; 'I' for Inactive)
REMARK    1  A    between atoms: C_1  and  C_2
REMARK    2  A    between atoms: C_2  and  C_3
REMARK    3  A    between atoms: C_2  and  C_4
REMARK    4  A    between atoms: C_2  and  C_5
REMARK    5  A    between atoms: C_9  and  O_10
REMARK    6  A    between atoms: O_10  and  C_11
REMARK    7  A    between atoms: C_11  and  C_12
REMARK                            x       y       z     vdW  Elec       q    Type
REMARK                         _______ _______ _______ _____ _____    ______ ____
ROOT
ATOM      1  C   UNL     1       2.987   3.411  19.967  0.00  0.00    +0.000 C 
ATOM      2  O   UNL     1       3.894   2.741  20.480  0.00  0.00    +0.000 OA
ATOM      3  N   UNL     1       3.314   4.382  19.048  0.00  0.00    +0.000 N 
ATOM      4  C   UNL     1       4.691   4.503  18.603  0.00  0.00    +0.000 C 
ATOM      5  C   UNL     1       4.690   5.587  17.525  0.00  0.00    +0.000 C 
ATOM      6  C   UNL     1       3.538   6.480  17.979  0.00  0.00    +0.000 C 
ATOM      7  F   UNL     1       3.951   7.274  19.011  0.00  0.00    +0.000 F 
ATOM      8  C   UNL     1       2.518   5.488  18.520  0.00  0.00    +0.000 C 
ENDROOT
BRANCH   1  10
ATOM      9  C   UNL     1       0.731   4.406  20.453  0.00  0.00    +0.000 C 
ATOM     10  C   UNL     1       1.503   3.076  20.271  0.00  0.00    +0.000 C 
ATOM     11  C   UNL     1       1.430   2.312  21.601  0.00  0.00    +0.000 C 
ATOM     12  C   UNL     1       0.790   2.306  19.155  0.00  0.00    +0.000 C 
ENDBRANCH   1  10
BRANCH   5  13
ATOM     13  O   UNL     1       5.893   6.347  17.450  0.00  0.00    +0.000 OA
BRANCH  13  14
ATOM     14  C   UNL     1       7.040   5.542  17.183  0.00  0.00    +0.000 C 
BRANCH  14  15
ATOM     15  C   UNL     1       6.917   5.071  15.781  0.00  0.00    +0.000 A 
ATOM     16  N   UNL     1       6.103   4.139  15.331  0.00  0.00    +0.000 NA
ATOM     17  C   UNL     1       6.377   4.039  13.994  0.00  0.00    +0.000 A 
ATOM     18  N   UNL     1       5.768   3.196  13.134  0.00  0.00    +0.000 NA
ATOM     19  C   UNL     1       6.214   3.278  11.866  0.00  0.00    +0.000 A 
ATOM     20  C   UNL     1       7.215   4.132  11.410  0.00  0.00    +0.000 A 
ATOM     21  C   UNL     1       7.840   5.002  12.304  0.00  0.00    +0.000 A 
ATOM     22  C   UNL     1       7.382   4.920  13.614  0.00  0.00    +0.000 A 
ATOM     23  N   UNL     1       7.710   5.572  14.770  0.00  0.00    +0.000 N 
ATOM     24  H   UNL     1       8.388   6.311  14.892  0.00  0.00    +0.000 HD
ENDBRANCH  14  15
ENDBRANCH  13  14
ENDBRANCH   5  13
TORSDOF 4
ENDMDL
MODEL 9
REMARK VINA RESULT:      -6.8      4.781      6.825
REMARK  Name = 
REMARK  7 active torsions:
REMARK  status: ('A' for Active; 'I' for Inactive)
REMARK    1  A    between atoms: C_1  and  C_2
REMARK    2  A    between atoms: C_2  and  C_3
REMARK    3  A    between atoms: C_2  and  C_4
REMARK    4  A    between atoms: C_2  and  C_5
REMARK    5  A    between atoms: C_9  and  O_10
REMARK    6  A    between atoms: O_10  and  C_11
REMARK    7  A    between atoms: C_11  and  C_12
REMARK                            x       y       z     vdW  Elec       q    Type
REMARK                         _______ _______ _______ _____ _____    ______ ____
ROOT
ATOM      1  C   UNL     1       1.705   9.012  18.332  0.00  0.00    +0.000 C 
ATOM      2  O   UNL     1       1.922   9.413  17.180  0.00  0.00    +0.000 OA
ATOM      3  N   UNL     1       2.362   7.891  18.783  0.00  0.00    +0.000 N 
ATOM      4  C   UNL     1       3.389   7.289  17.951  0.00  0.00    +0.000 C 
ATOM      5  C   UNL     1       3.980   6.146  18.777  0.00  0.00    +0.000 C 
ATOM      6  C   UNL     1       2.787   5.724  19.629  0.00  0.00    +0.000 C 
ATOM      7  F   UNL     1       1.935   4.962  18.881  0.00  0.00    +0.000 F 
ATOM      8  C   UNL     1       2.096   7.044  19.943  0.00  0.00    +0.000 C 
ENDROOT
BRANCH   1  10
ATOM      9  C   UNL     1      -0.579  10.026  18.600  0.00  0.00    +0.000 C 
ATOM     10  C   UNL     1       0.797   9.835  19.285  0.00  0.00    +0.000 C 
ATOM     11  C   UNL     1       1.415  11.227  19.479  0.00  0.00    +0.000 C 
ATOM     12  C   UNL     1       0.526   9.161  20.633  0.00  0.00    +0.000 C 
ENDBRANCH   1  10
BRANCH   5  13
ATOM     13  O   UNL     1       4.445   5.040  18.009  0.00  0.00    +0.000 OA
BRANCH  13  14
ATOM     14  C   UNL     1       5.858   5.051  17.820  0.00  0.00    +0.000 C 
BRANCH  14  15
ATOM     15  C   UNL     1       6.101   4.812  16.375  0.00  0.00    +0.000 A 
ATOM     16  N   UNL     1       5.462   3.962  15.599  0.00  0.00    +0.000 NA
ATOM     17  C   UNL     1       6.057   4.080  14.372  0.00  0.00    +0.000 A 
ATOM     18  N   UNL     1       5.712   3.385  13.268  0.00  0.00    +0.000 NA
ATOM     19  C   UNL     1       6.448   3.674  12.178  0.00  0.00    +0.000 A 
ATOM     20  C   UNL     1       7.491   4.596  12.122  0.00  0.00    +0.000 A 
ATOM     21  C   UNL     1       7.841   5.312  13.266  0.00  0.00    +0.000 A 
ATOM     22  C   UNL     1       7.083   5.017  14.394  0.00  0.00    +0.000 A 
ATOM     23  N   UNL     1       7.091   5.474  15.682  0.00  0.00    +0.000 N 
ATOM     24  H   UNL     1       7.686   6.187  16.081  0.00  0.00    +0.000 HD
ENDBRANCH  14  15
ENDBRANCH  13  14
ENDBRANCH   5  13
TORSDOF 4
ENDMDL
