MODEL 1
REMARK VINA RESULT:      -7.8      0.000      0.000
REMARK  Name = 
REMARK  5 active torsions:
REMARK  status: ('A' for Active; 'I' for Inactive)
REMARK    1  A    between atoms: C_1  and  C_2
REMARK    2  A    between atoms: N_4  and  C_5
REMARK    3  A    between atoms: C_9  and  C_10
REMARK    4  A    between atoms: C_10  and  C_12
REMARK    5  A    between atoms: C_17  and  O_18
REMARK                            x       y       z     vdW  Elec       q    Type
REMARK                         _______ _______ _______ _____ _____    ______ ____
ROOT
ATOM      1  C   UNL     1       5.225   2.631  12.253  0.00  0.00    +0.000 C 
ATOM      2  C   UNL     1       6.117   3.659  12.841  0.00  0.00    +0.000 A 
ATOM      3  N   UNL     1       6.971   4.347  12.067  0.00  0.00    +0.000 NA
ATOM      4  N   UNL     1       7.618   5.149  12.942  0.00  0.00    +0.000 N 
ATOM      5  C   UNL     1       8.621   6.076  12.483  0.00  0.00    +0.000 C 
ATOM      6  C   UNL     1       7.219   4.988  14.240  0.00  0.00    +0.000 A 
ATOM      7  N   UNL     1       7.711   5.621  15.323  0.00  0.00    +0.000 NA
ATOM      8  C   UNL     1       7.081   5.250  16.469  0.00  0.00    +0.000 A 
ATOM      9  C   UNL     1       6.014   4.358  16.571  0.00  0.00    +0.000 A 
ATOM     10  C   UNL     1       5.578   3.703  15.413  0.00  0.00    +0.000 A 
ATOM     11  C   UNL     1       6.208   4.038  14.207  0.00  0.00    +0.000 A 
ENDROOT
BRANCH   9  12
ATOM     12  C   UNL     1       5.347   4.054  17.863  0.00  0.00    +0.000 C 
ATOM     13  O   UNL     1       6.017   4.077  18.895  0.00  0.00    +0.000 OA
BRANCH  12  14
ATOM     14  C   UNL     1       3.892   3.774  17.959  0.00  0.00    +0.000 A 
ATOM     15  C   UNL     1       3.014   4.853  17.784  0.00  0.00    +0.000 A 
ATOM     16  C   UNL     1       1.634   4.646  17.792  0.00  0.00    +0.000 A 
ATOM     17  C   UNL     1       1.123   3.363  17.984  0.00  0.00    +0.000 A 
ATOM     18  C   UNL     1       1.986   2.290  18.205  0.00  0.00    +0.000 A 
ATOM     19  C   UNL     1       3.366   2.500  18.211  0.00  0.00    +0.000 A 
BRANCH  19  20
ATOM     20  O   UNL     1       4.198   1.449  18.475  0.00  0.00    +0.000 OA
ATOM     21  H   UNL     1       5.113   1.767  18.569  0.00  0.00    +0.000 HD
ENDBRANCH  19  20
ENDBRANCH  12  14
ENDBRANCH   9  12
TORSDOF 3
ENDMDL
MODEL 2
REMARK VINA RESULT:      -7.6      3.328      6.446
REMARK  Name = 
REMARK  5 active torsions:
REMARK  status: ('A' for Active; 'I' for Inactive)
REMARK    1  A    between atoms: C_1  and  C_2
REMARK    2  A    between atoms: N_4  and  C_5
REMARK    3  A    between atoms: C_9  and  C_10
REMARK    4  A    between atoms: C_10  and  C_12
REMARK    5  A    between atoms: C_17  and  O_18
REMARK                            x       y       z     vdW  Elec       q    Type
REMARK                         _______ _______ _______ _____ _____    ______ ____
ROOT
ATOM      1  C   UNL     1       2.351   8.717  17.964  0.00  0.00    +0.000 C 
ATOM      2  C   UNL     1       2.737   7.357  18.409  0.00  0.00    +0.000 A 
ATOM      3  N   UNL     1       2.056   6.738  19.386  0.00  0.00    +0.000 NA
ATOM      4  N   UNL     1       2.706   5.561  19.530  0.00  0.00    +0.000 N 
ATOM      5  C   UNL     1       2.251   4.586  20.490  0.00  0.00    +0.000 C 
ATOM      6  C   UNL     1       3.779   5.416  18.696  0.00  0.00    +0.000 A 
ATOM      7  N   UNL     1       4.628   4.370  18.644  0.00  0.00    +0.000 NA
ATOM      8  C   UNL     1       5.580   4.525  17.686  0.00  0.00    +0.000 A 
ATOM      9  C   UNL     1       5.690   5.596  16.799  0.00  0.00    +0.000 A 
ATOM     10  C   UNL     1       4.801   6.669  16.934  0.00  0.00    +0.000 A 
ATOM     11  C   UNL     1       3.810   6.565  17.920  0.00  0.00    +0.000 A 
ENDROOT
BRANCH   9  12
ATOM     12  C   UNL     1       6.732   5.655  15.742  0.00  0.00    +0.000 C 
ATOM     13  O   UNL     1       7.755   6.306  15.955  0.00  0.00    +0.000 OA
BRANCH  12  14
ATOM     14  C   UNL     1       6.607   4.915  14.462  0.00  0.00    +0.000 A 
ATOM     15  C   UNL     1       5.508   4.056  14.317  0.00  0.00    +0.000 A 
ATOM     16  C   UNL     1       5.294   3.384  13.113  0.00  0.00    +0.000 A 
ATOM     17  C   UNL     1       6.179   3.560  12.049  0.00  0.00    +0.000 A 
ATOM     18  C   UNL     1       7.299   4.378  12.197  0.00  0.00    +0.000 A 
ATOM     19  C   UNL     1       7.521   5.037  13.406  0.00  0.00    +0.000 A 
BRANCH  19  20
ATOM     20  O   UNL     1       8.647   5.797  13.553  0.00  0.00    +0.000 OA
ATOM     21  H   UNL     1       8.545   6.636  13.072  0.00  0.00    +0.000 HD
ENDBRANCH  19  20
ENDBRANCH  12  14
ENDBRANCH   9  12
TORSDOF 3
ENDMDL
MODEL 3
REMARK VINA RESULT:      -7.4      3.026      6.153
REMARK  Name = 
REMARK  5 active torsions:
REMARK  status: ('A' for Active; 'I' for Inactive)
REMARK    1  A    between atoms: C_1  and  C_2
REMARK    2  A    between atoms: N_4  and  C_5
REMARK    3  A    between atoms: C_9  and  C_10
REMARK    4  A    between atoms: C_10  and  C_12
REMARK    5  A    between atoms: C_17  and  O_18
REMARK                            x       y       z     vdW  Elec       q    Type
REMARK                         _______ _______ _______ _____ _____    ______ ____
ROOT
ATOM      1  C   UNL     1       1.925   2.994  18.172  0.00  0.00    +0.000 C 
ATOM      2  C   UNL     1       2.431   4.387  18.211  0.00  0.00    +0.000 A 
ATOM      3  N   UNL     1       1.747   5.345  18.857  0.00  0.00    +0.000 NA
ATOM      4  N   UNL     1       2.486   6.457  18.650  0.00  0.00    +0.000 N 
ATOM      5  C   UNL     1       2.085   7.720  19.218  0.00  0.00    +0.000 C 
ATOM      6  C   UNL     1       3.602   6.247  17.888  0.00  0.00    +0.000 A 
ATOM      7  N   UNL     1       4.498   7.173  17.492  0.00  0.00    +0.000 NA
ATOM      8  C   UNL     1       5.507   6.634  16.759  0.00  0.00    +0.000 A 
ATOM      9  C   UNL     1       5.676   5.282  16.457  0.00  0.00    +0.000 A 
ATOM     10  C   UNL     1       4.687   4.378  16.864  0.00  0.00    +0.000 A 
ATOM     11  C   UNL     1       3.615   4.888  17.609  0.00  0.00    +0.000 A 
ENDROOT
BRANCH   9  12
ATOM     12  C   UNL     1       6.845   4.773  15.695  0.00  0.00    +0.000 C 
ATOM     13  O   UNL     1       7.895   4.553  16.299  0.00  0.00    +0.000 OA
BRANCH  12  14
ATOM     14  C   UNL     1       6.777   4.471  14.244  0.00  0.00    +0.000 A 
ATOM     15  C   UNL     1       5.804   3.555  13.819  0.00  0.00    +0.000 A 
ATOM     16  C   UNL     1       5.641   3.280  12.461  0.00  0.00    +0.000 A 
ATOM     17  C   UNL     1       6.453   3.911  11.519  0.00  0.00    +0.000 A 
ATOM     18  C   UNL     1       7.454   4.790  11.934  0.00  0.00    +0.000 A 
ATOM     19  C   UNL     1       7.627   5.053  13.293  0.00  0.00    +0.000 A 
BRANCH  19  20
ATOM     20  O   UNL     1       8.641   5.879  13.687  0.00  0.00    +0.000 OA
ATOM     21  H   UNL     1       9.308   5.371  14.180  0.00  0.00    +0.000 HD
ENDBRANCH  19  20
ENDBRANCH  12  14
ENDBRANCH   9  12
TORSDOF 3
ENDMDL
MODEL 4
REMARK VINA RESULT:      -7.4      3.146      6.220
REMARK  Name = 
REMARK  5 active torsions:
REMARK  status: ('A' for Active; 'I' for Inactive)
REMARK    1  A    between atoms: C_1  and  C_2
REMARK    2  A    between atoms: N_4  and  C_5
REMARK    3  A    between atoms: C_9  and  C_10
REMARK    4  A    between atoms: C_10  and  C_12
REMARK    5  A    between atoms: C_17  and  O_18
REMARK                            x       y       z     vdW  Elec       q    Type
REMARK                         _______ _______ _______ _____ _____    ______ ____
ROOT
ATOM      1  C   UNL     1       3.609   1.334  18.345  0.00  0.00    +0.000 C 
ATOM      2  C   UNL     1       3.435   2.783  18.602  0.00  0.00    +0.000 A 
ATOM      3  N   UNL     1       2.545   3.214  19.510  0.00  0.00    +0.000 NA
ATOM      4  N   UNL     1       2.649   4.560  19.443  0.00  0.00    +0.000 N 
ATOM      5  C   UNL     1       1.852   5.401  20.301  0.00  0.00    +0.000 C 
ATOM      6  C   UNL     1       3.556   5.000  18.520  0.00  0.00    +0.000 A 
ATOM      7  N   UNL     1       3.841   6.282  18.210  0.00  0.00    +0.000 NA
ATOM      8  C   UNL     1       4.809   6.380  17.262  0.00  0.00    +0.000 A 
ATOM      9  C   UNL     1       5.497   5.320  16.672  0.00  0.00    +0.000 A 
ATOM     10  C   UNL     1       5.125   4.013  17.008  0.00  0.00    +0.000 A 
ATOM     11  C   UNL     1       4.117   3.857  17.970  0.00  0.00    +0.000 A 
ENDROOT
BRANCH   9  12
ATOM     12  C   UNL     1       6.585   5.524  15.682  0.00  0.00    +0.000 C 
ATOM     13  O   UNL     1       7.539   6.239  15.990  0.00  0.00    +0.000 OA
BRANCH  12  14
ATOM     14  C   UNL     1       6.588   4.857  14.356  0.00  0.00    +0.000 A 
ATOM     15  C   UNL     1       5.551   3.953  14.085  0.00  0.00    +0.000 A 
ATOM     16  C   UNL     1       5.456   3.345  12.833  0.00  0.00    +0.000 A 
ATOM     17  C   UNL     1       6.401   3.628  11.847  0.00  0.00    +0.000 A 
ATOM     18  C   UNL     1       7.463   4.490  12.121  0.00  0.00    +0.000 A 
ATOM     19  C   UNL     1       7.566   5.087  13.378  0.00  0.00    +0.000 A 
BRANCH  19  20
ATOM     20  O   UNL     1       8.636   5.891  13.647  0.00  0.00    +0.000 OA
ATOM     21  H   UNL     1       9.079   6.142  12.818  0.00  0.00    +0.000 HD
ENDBRANCH  19  20
ENDBRANCH  12  14
ENDBRANCH   9  12
TORSDOF 3
ENDMDL
MODEL 5
REMARK VINA RESULT:      -7.4      5.576      7.797
REMARK  Name = 
REMARK  5 active torsions:
REMARK  status: ('A' for Active; 'I' for Inactive)
REMARK    1  A    between atoms: C_1  and  C_2
REMARK    2  A    between atoms: N_4  and  C_5
REMARK    3  A    between atoms: C_9  and  C_10
REMARK    4  A    between atoms: C_10  and  C_12
REMARK    5  A    between atoms: C_17  and  O_18
REMARK                            x       y       z     vdW  Elec       q    Type
REMARK                         _______ _______ _______ _____ _____    ______ ____
ROOT
ATOM      1  C   UNL     1       0.210   9.407  22.750  0.00  0.00    +0.000 C 
ATOM      2  C   UNL     1       0.537   9.872  21.381  0.00  0.00    +0.000 A 
ATOM      3  N   UNL     1       0.245  11.125  20.996  0.00  0.00    +0.000 NA
ATOM      4  N   UNL     1       0.655  11.165  19.708  0.00  0.00    +0.000 N 
ATOM      5  C   UNL     1       0.529  12.377  18.937  0.00  0.00    +0.000 C 
ATOM      6  C   UNL     1       1.181   9.987  19.257  0.00  0.00    +0.000 A 
ATOM      7  N   UNL     1       1.632   9.725  18.014  0.00  0.00    +0.000 NA
ATOM      8  C   UNL     1       2.114   8.459  17.896  0.00  0.00    +0.000 A 
ATOM      9  C   UNL     1       2.199   7.511  18.916  0.00  0.00    +0.000 A 
ATOM     10  C   UNL     1       1.675   7.834  20.173  0.00  0.00    +0.000 A 
ATOM     11  C   UNL     1       1.150   9.123  20.342  0.00  0.00    +0.000 A 
ENDROOT
BRANCH   9  12
ATOM     12  C   UNL     1       2.795   6.166  18.709  0.00  0.00    +0.000 C 
ATOM     13  O   UNL     1       3.795   6.065  17.999  0.00  0.00    +0.000 OA
BRANCH  12  14
ATOM     14  C   UNL     1       2.259   4.950  19.371  0.00  0.00    +0.000 A 
ATOM     15  C   UNL     1       2.572   4.759  20.724  0.00  0.00    +0.000 A 
ATOM     16  C   UNL     1       2.043   3.674  21.423  0.00  0.00    +0.000 A 
ATOM     17  C   UNL     1       1.205   2.768  20.773  0.00  0.00    +0.000 A 
ATOM     18  C   UNL     1       0.923   2.923  19.416  0.00  0.00    +0.000 A 
ATOM     19  C   UNL     1       1.464   4.000  18.714  0.00  0.00    +0.000 A 
BRANCH  19  20
ATOM     20  O   UNL     1       1.218   4.114  17.374  0.00  0.00    +0.000 OA
ATOM     21  H   UNL     1       1.099   5.050  17.138  0.00  0.00    +0.000 HD
ENDBRANCH  19  20
ENDBRANCH  12  14
ENDBRANCH   9  12
TORSDOF 3
ENDMDL
MODEL 6
REMARK VINA RESULT:      -7.3      0.857      1.529
REMARK  Name = 
REMARK  5 active torsions:
REMARK  status: ('A' for Active; 'I' for Inactive)
REMARK    1  A    between atoms: C_1  and  C_2
REMARK    2  A    between atoms: N_4  and  C_5
REMARK    3  A    between atoms: C_9  and  C_10
REMARK    4  A    between atoms: C_10  and  C_12
REMARK    5  A    between atoms: C_17  and  O_18
REMARK                            x       y       z     vdW  Elec       q    Type
REMARK                         _______ _______ _______ _____ _____    ______ ____
ROOT
ATOM      1  C   UNL     1       5.021   2.872  12.312  0.00  0.00    +0.000 C 
ATOM      2  C   UNL     1       6.000   3.790  12.942  0.00  0.00    +0.000 A 
ATOM      3  N   UNL     1       6.916   4.429  12.197  0.00  0.00    +0.000 NA
ATOM      4  N   UNL     1       7.628   5.133  13.104  0.00  0.00    +0.000 N 
ATOM      5  C   UNL     1       8.713   5.984  12.684  0.00  0.00    +0.000 C 
ATOM      6  C   UNL     1       7.211   4.956  14.394  0.00  0.00    +0.000 A 
ATOM      7  N   UNL     1       7.754   5.499  15.503  0.00  0.00    +0.000 NA
ATOM      8  C   UNL     1       7.088   5.140  16.632  0.00  0.00    +0.000 A 
ATOM      9  C   UNL     1       5.945   4.343  16.697  0.00  0.00    +0.000 A 
ATOM     10  C   UNL     1       5.456   3.778  15.513  0.00  0.00    +0.000 A 
ATOM     11  C   UNL     1       6.119   4.104  14.321  0.00  0.00    +0.000 A 
ENDROOT
BRANCH   9  12
ATOM     12  C   UNL     1       5.247   4.048  17.975  0.00  0.00    +0.000 C 
ATOM     13  O   UNL     1       5.884   4.117  19.026  0.00  0.00    +0.000 OA
BRANCH  12  14
ATOM     14  C   UNL     1       3.799   3.726  18.033  0.00  0.00    +0.000 A 
ATOM     15  C   UNL     1       3.442   2.375  18.144  0.00  0.00    +0.000 A 
ATOM     16  C   UNL     1       2.102   2.009  18.273  0.00  0.00    +0.000 A 
ATOM     17  C   UNL     1       1.110   2.989  18.284  0.00  0.00    +0.000 A 
ATOM     18  C   UNL     1       1.450   4.333  18.130  0.00  0.00    +0.000 A 
ATOM     19  C   UNL     1       2.789   4.697  17.985  0.00  0.00    +0.000 A 
BRANCH  19  20
ATOM     20  O   UNL     1       3.105   6.012  17.787  0.00  0.00    +0.000 OA
ATOM     21  H   UNL     1       4.009   6.186  18.101  0.00  0.00    +0.000 HD
ENDBRANCH  19  20
ENDBRANCH  12  14
ENDBRANCH   9  12
TORSDOF 3
ENDMDL
MODEL 7
REMARK VINA RESULT:      -7.2      1.064      1.315
REMARK  Name = 
REMARK  5 active torsions:
REMARK  status: ('A' for Active; 'I' for Inactive)
REMARK    1  A    between atoms: C_1  and  C_2
REMARK    2  A    between atoms: N_4  and  C_5
REMARK    3  A    between atoms: C_9  and  C_10
REMARK    4  A    between atoms: C_10  and  C_12
REMARK    5  A    between atoms: C_17  and  O_18
REMARK                            x       y       z     vdW  Elec       q    Type
REMARK                         _______ _______ _______ _____ _____    ______ ____
ROOT
ATOM      1  C   UNL     1       4.926   3.090  12.330  0.00  0.00    +0.000 C 
ATOM      2  C   UNL     1       5.915   3.962  13.007  0.00  0.00    +0.000 A 
ATOM      3  N   UNL     1       7.069   4.286  12.401  0.00  0.00    +0.000 NA
ATOM      4  N   UNL     1       7.706   5.048  13.318  0.00  0.00    +0.000 N 
ATOM      5  C   UNL     1       8.997   5.619  13.026  0.00  0.00    +0.000 C 
ATOM      6  C   UNL     1       7.010   5.208  14.484  0.00  0.00    +0.000 A 
ATOM      7  N   UNL     1       7.413   5.882  15.581  0.00  0.00    +0.000 NA
ATOM      8  C   UNL     1       6.477   5.870  16.566  0.00  0.00    +0.000 A 
ATOM      9  C   UNL     1       5.212   5.286  16.494  0.00  0.00    +0.000 A 
ATOM     10  C   UNL     1       4.872   4.567  15.342  0.00  0.00    +0.000 A 
ATOM     11  C   UNL     1       5.812   4.534  14.302  0.00  0.00    +0.000 A 
ENDROOT
BRANCH   9  12
ATOM     12  C   UNL     1       4.227   5.372  17.603  0.00  0.00    +0.000 C 
ATOM     13  O   UNL     1       4.012   6.469  18.120  0.00  0.00    +0.000 OA
BRANCH  12  14
ATOM     14  C   UNL     1       3.458   4.194  18.075  0.00  0.00    +0.000 A 
ATOM     15  C   UNL     1       2.071   4.203  17.868  0.00  0.00    +0.000 A 
ATOM     16  C   UNL     1       1.299   3.097  18.225  0.00  0.00    +0.000 A 
ATOM     17  C   UNL     1       1.905   1.979  18.798  0.00  0.00    +0.000 A 
ATOM     18  C   UNL     1       3.277   1.977  19.050  0.00  0.00    +0.000 A 
ATOM     19  C   UNL     1       4.046   3.089  18.707  0.00  0.00    +0.000 A 
BRANCH  19  20
ATOM     20  O   UNL     1       5.380   3.093  19.002  0.00  0.00    +0.000 OA
ATOM     21  H   UNL     1       5.679   4.004  19.169  0.00  0.00    +0.000 HD
ENDBRANCH  19  20
ENDBRANCH  12  14
ENDBRANCH   9  12
TORSDOF 3
ENDMDL
MODEL 8
REMARK VINA RESULT:      -7.2      2.147      3.418
REMARK  Name = 
REMARK  5 active torsions:
REMARK  status: ('A' for Active; 'I' for Inactive)
REMARK    1  A    between atoms: C_1  and  C_2
REMARK    2  A    between atoms: N_4  and  C_5
REMARK    3  A    between atoms: C_9  and  C_10
REMARK    4  A    between atoms: C_10  and  C_12
REMARK    5  A    between atoms: C_17  and  O_18
REMARK                            x       y       z     vdW  Elec       q    Type
REMARK                         _______ _______ _______ _____ _____    ______ ____
ROOT
ATOM      1  C   UNL     1       6.968   4.557  14.010  0.00  0.00    +0.000 C 
ATOM      2  C   UNL     1       6.887   5.165  15.359  0.00  0.00    +0.000 A 
ATOM      3  N   UNL     1       7.594   6.267  15.656  0.00  0.00    +0.000 NA
ATOM      4  N   UNL     1       7.292   6.498  16.953  0.00  0.00    +0.000 N 
ATOM      5  C   UNL     1       7.849   7.634  17.644  0.00  0.00    +0.000 C 
ATOM      6  C   UNL     1       6.436   5.580  17.495  0.00  0.00    +0.000 A 
ATOM      7  N   UNL     1       5.994   5.537  18.768  0.00  0.00    +0.000 NA
ATOM      8  C   UNL     1       5.133   4.507  18.980  0.00  0.00    +0.000 A 
ATOM      9  C   UNL     1       4.686   3.596  18.024  0.00  0.00    +0.000 A 
ATOM     10  C   UNL     1       5.215   3.671  16.730  0.00  0.00    +0.000 A 
ATOM     11  C   UNL     1       6.122   4.706  16.464  0.00  0.00    +0.000 A 
ENDROOT
BRANCH   9  12
ATOM     12  C   UNL     1       3.696   2.532  18.334  0.00  0.00    +0.000 C 
ATOM     13  O   UNL     1       3.697   1.506  17.656  0.00  0.00    +0.000 OA
BRANCH  12  14
ATOM     14  C   UNL     1       2.740   2.643  19.465  0.00  0.00    +0.000 A 
ATOM     15  C   UNL     1       3.238   2.413  20.756  0.00  0.00    +0.000 A 
ATOM     16  C   UNL     1       2.409   2.569  21.868  0.00  0.00    +0.000 A 
ATOM     17  C   UNL     1       1.078   2.946  21.697  0.00  0.00    +0.000 A 
ATOM     18  C   UNL     1       0.561   3.134  20.416  0.00  0.00    +0.000 A 
ATOM     19  C   UNL     1       1.385   2.963  19.303  0.00  0.00    +0.000 A 
BRANCH  19  20
ATOM     20  O   UNL     1       0.854   3.103  18.052  0.00  0.00    +0.000 OA
ATOM     21  H   UNL     1       0.695   2.227  17.661  0.00  0.00    +0.000 HD
ENDBRANCH  19  20
ENDBRANCH  12  14
ENDBRANCH   9  12
TORSDOF 3
ENDMDL
MODEL 9
REMARK VINA RESULT:      -7.1      3.096      6.235
REMARK  Name = 
REMARK  5 active torsions:
REMARK  status: ('A' for Active; 'I' for Inactive)
REMARK    1  A    between atoms: C_1  and  C_2
REMARK    2  A    between atoms: N_4  and  C_5
REMARK    3  A    between atoms: C_9  and  C_10
REMARK    4  A    between atoms: C_10  and  C_12
REMARK    5  A    between atoms: C_17  and  O_18
REMARK                            x       y       z     vdW  Elec       q    Type
REMARK                         _______ _______ _______ _____ _____    ______ ____
ROOT
ATOM      1  C   UNL     1       1.124   4.388  17.451  0.00  0.00    +0.000 C 
ATOM      2  C   UNL     1       2.325   3.979  18.219  0.00  0.00    +0.000 A 
ATOM      3  N   UNL     1       2.201   3.329  19.387  0.00  0.00    +0.000 NA
ATOM      4  N   UNL     1       3.479   3.157  19.792  0.00  0.00    +0.000 N 
ATOM      5  C   UNL     1       3.770   2.464  21.021  0.00  0.00    +0.000 C 
ATOM      6  C   UNL     1       4.406   3.684  18.936  0.00  0.00    +0.000 A 
ATOM      7  N   UNL     1       5.745   3.694  19.100  0.00  0.00    +0.000 NA
ATOM      8  C   UNL     1       6.388   4.278  18.054  0.00  0.00    +0.000 A 
ATOM      9  C   UNL     1       5.792   4.784  16.899  0.00  0.00    +0.000 A 
ATOM     10  C   UNL     1       4.395   4.779  16.811  0.00  0.00    +0.000 A 
ATOM     11  C   UNL     1       3.684   4.204  17.873  0.00  0.00    +0.000 A 
ENDROOT
BRANCH   9  12
ATOM     12  C   UNL     1       6.581   5.354  15.777  0.00  0.00    +0.000 C 
ATOM     13  O   UNL     1       7.289   6.338  15.991  0.00  0.00    +0.000 OA
BRANCH  12  14
ATOM     14  C   UNL     1       6.586   4.749  14.422  0.00  0.00    +0.000 A 
ATOM     15  C   UNL     1       5.570   3.831  14.120  0.00  0.00    +0.000 A 
ATOM     16  C   UNL     1       5.476   3.279  12.842  0.00  0.00    +0.000 A 
ATOM     17  C   UNL     1       6.401   3.633  11.860  0.00  0.00    +0.000 A 
ATOM     18  C   UNL     1       7.443   4.510  12.162  0.00  0.00    +0.000 A 
ATOM     19  C   UNL     1       7.545   5.051  13.444  0.00  0.00    +0.000 A 
BRANCH  19  20
ATOM     20  O   UNL     1       8.596   5.871  13.740  0.00  0.00    +0.000 OA
ATOM     21  H   UNL     1       9.423   5.358  13.754  0.00  0.00    +0.000 HD
ENDBRANCH  19  20
ENDBRANCH  12  14
ENDBRANCH   9  12
TORSDOF 3
ENDMDL
