MODEL 1
REMARK VINA RESULT:      -8.0      0.000      0.000
REMARK  Name = 
REMARK  6 active torsions:
REMARK  status: ('A' for Active; 'I' for Inactive)
REMARK    1  A    between atoms: C_1  and  C_2
REMARK    2  A    between atoms: C_2  and  N_3
REMARK    3  A    between atoms: C_4  and  C_6
REMARK    4  A    between atoms: N_15  and  C_16
REMARK    5  A    between atoms: C_20  and  O_21
REMARK    6  A    between atoms: C_23  and  O_24
REMARK                            x       y       z     vdW  Elec       q    Type
REMARK                         _______ _______ _______ _____ _____    ______ ____
ROOT
ATOM      1  C   UNL     1       5.988   5.027  17.609  0.00  0.00    +0.000 A 
ATOM      2  N   UNL     1       6.521   4.132  18.473  0.00  0.00    +0.000 NA
ATOM      3  O   UNL     1       5.613   4.014  19.520  0.00  0.00    +0.000 OA
ATOM      4  C   UNL     1       4.566   4.821  19.271  0.00  0.00    +0.000 A 
ATOM      5  C   UNL     1       4.736   5.491  18.090  0.00  0.00    +0.000 A 
ATOM      6  C   UNL     1       3.741   6.454  17.557  0.00  0.00    +0.000 C 
ATOM      7  N   UNL     1       2.753   6.758  18.628  0.00  0.00    +0.000 N 
ATOM      8  C   UNL     1       2.244   8.047  18.649  0.00  0.00    +0.000 C 
ATOM      9  O   UNL     1       2.574   8.849  17.777  0.00  0.00    +0.000 OA
ATOM     10  N   UNL     1       1.394   8.359  19.686  0.00  0.00    +0.000 N 
ATOM     11  C   UNL     1       2.271   5.604  19.426  0.00  0.00    +0.000 C 
ATOM     12  C   UNL     1       3.429   4.941  20.205  0.00  0.00    +0.000 C 
ATOM     13  H   UNL     1       1.436   7.806  20.531  0.00  0.00    +0.000 HD
ENDROOT
BRANCH  10  14
ATOM     14  C   UNL     1       0.715   9.598  19.855  0.00  0.00    +0.000 A 
ATOM     15  C   UNL     1      -0.069  10.181  18.852  0.00  0.00    +0.000 A 
ATOM     16  C   UNL     1      -0.678  11.418  19.059  0.00  0.00    +0.000 A 
ATOM     17 CL   UNL     1      -1.611  12.127  17.793  0.00  0.00    +0.000 Cl
ATOM     18  C   UNL     1      -0.529  12.076  20.279  0.00  0.00    +0.000 A 
ATOM     19  C   UNL     1       0.219  11.503  21.304  0.00  0.00    +0.000 A 
ATOM     20  C   UNL     1       0.832  10.265  21.090  0.00  0.00    +0.000 A 
BRANCH  18  21
ATOM     21  O   UNL     1      -1.108  13.292  20.516  0.00  0.00    +0.000 OA
ATOM     22  H   UNL     1      -0.585  13.957  20.026  0.00  0.00    +0.000 HD
ENDBRANCH  18  21
BRANCH  20  23
ATOM     23  O   UNL     1       1.572   9.687  22.087  0.00  0.00    +0.000 OA
ATOM     24  H   UNL     1       1.790  10.373  22.743  0.00  0.00    +0.000 HD
ENDBRANCH  20  23
ENDBRANCH  10  14
BRANCH   1  26
ATOM     25  N   UNL     1       6.425   4.546  15.304  0.00  0.00    +0.000 N 
ATOM     26  C   UNL     1       6.673   5.396  16.364  0.00  0.00    +0.000 C 
ATOM     27  O   UNL     1       7.392   6.387  16.280  0.00  0.00    +0.000 OA
ATOM     28  H   UNL     1       5.833   3.741  15.494  0.00  0.00    +0.000 HD
BRANCH  25  30
ATOM     29  C   UNL     1       6.326   3.827  12.955  0.00  0.00    +0.000 C 
ATOM     30  C   UNL     1       6.973   4.740  13.980  0.00  0.00    +0.000 C 
ENDBRANCH  25  30
ENDBRANCH   1  26
TORSDOF 5
ENDMDL
MODEL 2
REMARK VINA RESULT:      -7.9      1.437      1.747
REMARK  Name = 
REMARK  6 active torsions:
REMARK  status: ('A' for Active; 'I' for Inactive)
REMARK    1  A    between atoms: C_1  and  C_2
REMARK    2  A    between atoms: C_2  and  N_3
REMARK    3  A    between atoms: C_4  and  C_6
REMARK    4  A    between atoms: N_15  and  C_16
REMARK    5  A    between atoms: C_20  and  O_21
REMARK    6  A    between atoms: C_23  and  O_24
REMARK                            x       y       z     vdW  Elec       q    Type
REMARK                         _______ _______ _______ _____ _____    ______ ____
ROOT
ATOM      1  C   UNL     1       5.881   5.238  17.642  0.00  0.00    +0.000 A 
ATOM      2  N   UNL     1       6.339   4.381  18.583  0.00  0.00    +0.000 NA
ATOM      3  O   UNL     1       5.381   4.361  19.591  0.00  0.00    +0.000 OA
ATOM      4  C   UNL     1       4.377   5.189  19.243  0.00  0.00    +0.000 A 
ATOM      5  C   UNL     1       4.627   5.776  18.032  0.00  0.00    +0.000 A 
ATOM      6  C   UNL     1       3.697   6.739  17.394  0.00  0.00    +0.000 C 
ATOM      7  N   UNL     1       2.673   7.145  18.396  0.00  0.00    +0.000 N 
ATOM      8  C   UNL     1       2.214   8.450  18.314  0.00  0.00    +0.000 C 
ATOM      9  O   UNL     1       2.615   9.184  17.411  0.00  0.00    +0.000 OA
ATOM     10  N   UNL     1       1.331   8.858  19.287  0.00  0.00    +0.000 N 
ATOM     11  C   UNL     1       2.110   6.062  19.239  0.00  0.00    +0.000 C 
ATOM     12  C   UNL     1       3.205   5.408  20.112  0.00  0.00    +0.000 C 
ATOM     13  H   UNL     1       1.312   8.358  20.166  0.00  0.00    +0.000 HD
ENDROOT
BRANCH  10  14
ATOM     14  C   UNL     1       0.694  10.128  19.347  0.00  0.00    +0.000 A 
ATOM     15  C   UNL     1       1.004  11.092  20.313  0.00  0.00    +0.000 A 
ATOM     16  C   UNL     1       0.317  12.305  20.350  0.00  0.00    +0.000 A 
ATOM     17 CL   UNL     1       0.700  13.460  21.573  0.00  0.00    +0.000 Cl
ATOM     18  C   UNL     1      -0.673  12.577  19.407  0.00  0.00    +0.000 A 
ATOM     19  C   UNL     1      -0.980  11.649  18.417  0.00  0.00    +0.000 A 
ATOM     20  C   UNL     1      -0.292  10.432  18.387  0.00  0.00    +0.000 A 
BRANCH  18  21
ATOM     21  O   UNL     1      -1.371  13.754  19.416  0.00  0.00    +0.000 OA
ATOM     22  H   UNL     1      -2.321  13.521  19.389  0.00  0.00    +0.000 HD
ENDBRANCH  18  21
BRANCH  20  23
ATOM     23  O   UNL     1      -0.580   9.507  17.420  0.00  0.00    +0.000 OA
ATOM     24  H   UNL     1      -1.116   9.940  16.731  0.00  0.00    +0.000 HD
ENDBRANCH  20  23
ENDBRANCH  10  14
BRANCH   1  26
ATOM     25  N   UNL     1       6.336   4.652  15.364  0.00  0.00    +0.000 N 
ATOM     26  C   UNL     1       6.636   5.503  16.410  0.00  0.00    +0.000 C 
ATOM     27  O   UNL     1       7.453   6.414  16.325  0.00  0.00    +0.000 OA
ATOM     28  H   UNL     1       5.661   3.916  15.554  0.00  0.00    +0.000 HD
BRANCH  25  30
ATOM     29  C   UNL     1       6.328   3.779  13.066  0.00  0.00    +0.000 C 
ATOM     30  C   UNL     1       6.940   4.755  14.054  0.00  0.00    +0.000 C 
ENDBRANCH  25  30
ENDBRANCH   1  26
TORSDOF 5
ENDMDL
MODEL 3
REMARK VINA RESULT:      -7.5      1.393      1.695
REMARK  Name = 
REMARK  6 active torsions:
REMARK  status: ('A' for Active; 'I' for Inactive)
REMARK    1  A    between atoms: C_1  and  C_2
REMARK    2  A    between atoms: C_2  and  N_3
REMARK    3  A    between atoms: C_4  and  C_6
REMARK    4  A    between atoms: N_15  and  C_16
REMARK    5  A    between atoms: C_20  and  O_21
REMARK    6  A    between atoms: C_23  and  O_24
REMARK                            x       y       z     vdW  Elec       q    Type
REMARK                         _______ _______ _______ _____ _____    ______ ____
ROOT
ATOM      1  C   UNL     1       6.776   4.731  16.178  0.00  0.00    +0.000 A 
ATOM      2  N   UNL     1       7.883   4.351  16.855  0.00  0.00    +0.000 NA
ATOM      3  O   UNL     1       7.557   4.418  18.205  0.00  0.00    +0.000 OA
ATOM      4  C   UNL     1       6.279   4.826  18.316  0.00  0.00    +0.000 A 
ATOM      5  C   UNL     1       5.728   5.045  17.082  0.00  0.00    +0.000 A 
ATOM      6  C   UNL     1       4.330   5.504  16.892  0.00  0.00    +0.000 C 
ATOM      7  N   UNL     1       3.791   5.944  18.208  0.00  0.00    +0.000 N 
ATOM      8  C   UNL     1       2.901   7.006  18.185  0.00  0.00    +0.000 C 
ATOM      9  O   UNL     1       2.556   7.492  17.108  0.00  0.00    +0.000 OA
ATOM     10  N   UNL     1       2.463   7.473  19.403  0.00  0.00    +0.000 N 
ATOM     11  C   UNL     1       4.105   5.079  19.371  0.00  0.00    +0.000 C 
ATOM     12  C   UNL     1       5.628   5.017  19.627  0.00  0.00    +0.000 C 
ATOM     13  H   UNL     1       3.023   7.285  20.224  0.00  0.00    +0.000 HD
ENDROOT
BRANCH  10  14
ATOM     14  C   UNL     1       1.503   8.504  19.598  0.00  0.00    +0.000 A 
ATOM     15  C   UNL     1       0.775   9.077  18.549  0.00  0.00    +0.000 A 
ATOM     16  C   UNL     1      -0.123  10.114  18.794  0.00  0.00    +0.000 A 
ATOM     17 CL   UNL     1      -0.981  10.824  17.476  0.00  0.00    +0.000 Cl
ATOM     18  C   UNL     1      -0.322  10.576  20.094  0.00  0.00    +0.000 A 
ATOM     19  C   UNL     1       0.366  10.002  21.160  0.00  0.00    +0.000 A 
ATOM     20  C   UNL     1       1.269   8.965  20.909  0.00  0.00    +0.000 A 
BRANCH  18  21
ATOM     21  O   UNL     1      -1.191  11.595  20.372  0.00  0.00    +0.000 OA
ATOM     22  H   UNL     1      -1.521  11.930  19.515  0.00  0.00    +0.000 HD
ENDBRANCH  18  21
BRANCH  20  23
ATOM     23  O   UNL     1       1.954   8.389  21.945  0.00  0.00    +0.000 OA
ATOM     24  H   UNL     1       2.877   8.701  21.914  0.00  0.00    +0.000 HD
ENDBRANCH  20  23
ENDBRANCH  10  14
BRANCH   1  26
ATOM     25  N   UNL     1       6.364   3.582  14.117  0.00  0.00    +0.000 N 
ATOM     26  C   UNL     1       6.746   4.770  14.710  0.00  0.00    +0.000 C 
ATOM     27  O   UNL     1       7.027   5.781  14.075  0.00  0.00    +0.000 OA
ATOM     28  H   UNL     1       6.179   2.801  14.739  0.00  0.00    +0.000 HD
BRANCH  25  30
ATOM     29  C   UNL     1       4.807   3.583  12.214  0.00  0.00    +0.000 C 
ATOM     30  C   UNL     1       6.239   3.410  12.686  0.00  0.00    +0.000 C 
ENDBRANCH  25  30
ENDBRANCH   1  26
TORSDOF 5
ENDMDL
MODEL 4
REMARK VINA RESULT:      -7.4      1.875      2.194
REMARK  Name = 
REMARK  6 active torsions:
REMARK  status: ('A' for Active; 'I' for Inactive)
REMARK    1  A    between atoms: C_1  and  C_2
REMARK    2  A    between atoms: C_2  and  N_3
REMARK    3  A    between atoms: C_4  and  C_6
REMARK    4  A    between atoms: N_15  and  C_16
REMARK    5  A    between atoms: C_20  and  O_21
REMARK    6  A    between atoms: C_23  and  O_24
REMARK                            x       y       z     vdW  Elec       q    Type
REMARK                         _______ _______ _______ _____ _____    ______ ____
ROOT
ATOM      1  C   UNL     1       4.783   3.620  19.093  0.00  0.00    +0.000 A 
ATOM      2  N   UNL     1       4.916   2.524  19.875  0.00  0.00    +0.000 NA
ATOM      3  O   UNL     1       3.842   2.542  20.758  0.00  0.00    +0.000 OA
ATOM      4  C   UNL     1       3.090   3.627  20.494  0.00  0.00    +0.000 A 
ATOM      5  C   UNL     1       3.624   4.352  19.463  0.00  0.00    +0.000 A 
ATOM      6  C   UNL     1       3.011   5.602  18.953  0.00  0.00    +0.000 C 
ATOM      7  N   UNL     1       1.962   6.043  19.912  0.00  0.00    +0.000 N 
ATOM      8  C   UNL     1       1.798   7.412  20.060  0.00  0.00    +0.000 C 
ATOM      9  O   UNL     1       2.465   8.185  19.374  0.00  0.00    +0.000 OA
ATOM     10  N   UNL     1       0.889   7.827  21.006  0.00  0.00    +0.000 N 
ATOM     11  C   UNL     1       1.075   4.983  20.452  0.00  0.00    +0.000 C 
ATOM     12  C   UNL     1       1.877   3.947  21.271  0.00  0.00    +0.000 C 
ATOM     13  H   UNL     1       0.644   7.193  21.755  0.00  0.00    +0.000 HD
ENDROOT
BRANCH  10  14
ATOM     14  C   UNL     1       0.524   9.177  21.268  0.00  0.00    +0.000 A 
ATOM     15  C   UNL     1       1.004  10.256  20.516  0.00  0.00    +0.000 A 
ATOM     16  C   UNL     1       0.646  11.562  20.845  0.00  0.00    +0.000 A 
ATOM     17 CL   UNL     1       1.280  12.874  19.920  0.00  0.00    +0.000 Cl
ATOM     18  C   UNL     1      -0.214  11.804  21.914  0.00  0.00    +0.000 A 
ATOM     19  C   UNL     1      -0.731  10.747  22.659  0.00  0.00    +0.000 A 
ATOM     20  C   UNL     1      -0.365   9.439  22.329  0.00  0.00    +0.000 A 
BRANCH  18  21
ATOM     21  O   UNL     1      -0.584  13.073  22.269  0.00  0.00    +0.000 OA
ATOM     22  H   UNL     1      -1.150  12.994  23.063  0.00  0.00    +0.000 HD
ENDBRANCH  18  21
BRANCH  20  23
ATOM     23  O   UNL     1      -0.863   8.387  23.050  0.00  0.00    +0.000 OA
ATOM     24  H   UNL     1      -1.729   8.648  23.413  0.00  0.00    +0.000 HD
ENDBRANCH  20  23
ENDBRANCH  10  14
BRANCH   1  26
ATOM     25  N   UNL     1       5.302   3.602  16.755  0.00  0.00    +0.000 N 
ATOM     26  C   UNL     1       5.742   3.925  18.024  0.00  0.00    +0.000 C 
ATOM     27  O   UNL     1       6.835   4.435  18.249  0.00  0.00    +0.000 OA
ATOM     28  H   UNL     1       4.390   3.159  16.688  0.00  0.00    +0.000 HD
BRANCH  25  30
ATOM     29  C   UNL     1       5.825   5.230  14.988  0.00  0.00    +0.000 C 
ATOM     30  C   UNL     1       6.075   3.845  15.557  0.00  0.00    +0.000 C 
ENDBRANCH  25  30
ENDBRANCH   1  26
TORSDOF 5
ENDMDL
MODEL 5
REMARK VINA RESULT:      -7.4      3.794      8.899
REMARK  Name = 
REMARK  6 active torsions:
REMARK  status: ('A' for Active; 'I' for Inactive)
REMARK    1  A    between atoms: C_1  and  C_2
REMARK    2  A    between atoms: C_2  and  N_3
REMARK    3  A    between atoms: C_4  and  C_6
REMARK    4  A    between atoms: N_15  and  C_16
REMARK    5  A    between atoms: C_20  and  O_21
REMARK    6  A    between atoms: C_23  and  O_24
REMARK                            x       y       z     vdW  Elec       q    Type
REMARK                         _______ _______ _______ _____ _____    ______ ____
ROOT
ATOM      1  C   UNL     1      -0.985  11.938  20.632  0.00  0.00    +0.000 A 
ATOM      2  N   UNL     1      -1.892  12.113  21.620  0.00  0.00    +0.000 NA
ATOM      3  O   UNL     1      -1.621  11.140  22.575  0.00  0.00    +0.000 OA
ATOM      4  C   UNL     1      -0.570  10.411  22.156  0.00  0.00    +0.000 A 
ATOM      5  C   UNL     1      -0.122  10.855  20.941  0.00  0.00    +0.000 A 
ATOM      6  C   UNL     1       1.026  10.240  20.230  0.00  0.00    +0.000 C 
ATOM      7  N   UNL     1       1.364   8.953  20.897  0.00  0.00    +0.000 N 
ATOM      8  C   UNL     1       1.823   7.935  20.076  0.00  0.00    +0.000 C 
ATOM      9  O   UNL     1       1.982   8.143  18.874  0.00  0.00    +0.000 OA
ATOM     10  N   UNL     1       2.059   6.718  20.673  0.00  0.00    +0.000 N 
ATOM     11  C   UNL     1       1.367   8.961  22.381  0.00  0.00    +0.000 C 
ATOM     12  C   UNL     1      -0.038   9.279  22.940  0.00  0.00    +0.000 C 
ATOM     13  H   UNL     1       1.595   6.508  21.547  0.00  0.00    +0.000 HD
ENDROOT
BRANCH  10  14
ATOM     14  C   UNL     1       2.593   5.568  20.028  0.00  0.00    +0.000 A 
ATOM     15  C   UNL     1       3.885   5.526  19.491  0.00  0.00    +0.000 A 
ATOM     16  C   UNL     1       4.340   4.385  18.831  0.00  0.00    +0.000 A 
ATOM     17 CL   UNL     1       5.926   4.374  18.151  0.00  0.00    +0.000 Cl
ATOM     18  C   UNL     1       3.518   3.265  18.720  0.00  0.00    +0.000 A 
ATOM     19  C   UNL     1       2.240   3.270  19.272  0.00  0.00    +0.000 A 
ATOM     20  C   UNL     1       1.786   4.418  19.928  0.00  0.00    +0.000 A 
BRANCH  18  21
ATOM     21  O   UNL     1       3.929   2.130  18.076  0.00  0.00    +0.000 OA
ATOM     22  H   UNL     1       3.141   1.559  17.974  0.00  0.00    +0.000 HD
ENDBRANCH  18  21
BRANCH  20  23
ATOM     23  O   UNL     1       0.531   4.440  20.477  0.00  0.00    +0.000 OA
ATOM     24  H   UNL     1       0.621   4.438  21.448  0.00  0.00    +0.000 HD
ENDBRANCH  20  23
ENDBRANCH  10  14
BRANCH   1  26
ATOM     25  N   UNL     1      -0.323  14.016  19.641  0.00  0.00    +0.000 N 
ATOM     26  C   UNL     1      -0.959  12.806  19.447  0.00  0.00    +0.000 C 
ATOM     27  O   UNL     1      -1.454  12.468  18.376  0.00  0.00    +0.000 OA
ATOM     28  H   UNL     1       0.028  14.202  20.576  0.00  0.00    +0.000 HD
BRANCH  25  30
ATOM     29  C   UNL     1      -0.622  16.382  19.042  0.00  0.00    +0.000 C 
ATOM     30  C   UNL     1      -0.158  15.006  18.600  0.00  0.00    +0.000 C 
ENDBRANCH  25  30
ENDBRANCH   1  26
TORSDOF 5
ENDMDL
MODEL 6
REMARK VINA RESULT:      -7.2      3.463      9.249
REMARK  Name = 
REMARK  6 active torsions:
REMARK  status: ('A' for Active; 'I' for Inactive)
REMARK    1  A    between atoms: C_1  and  C_2
REMARK    2  A    between atoms: C_2  and  N_3
REMARK    3  A    between atoms: C_4  and  C_6
REMARK    4  A    between atoms: N_15  and  C_16
REMARK    5  A    between atoms: C_20  and  O_21
REMARK    6  A    between atoms: C_23  and  O_24
REMARK                            x       y       z     vdW  Elec       q    Type
REMARK                         _______ _______ _______ _____ _____    ______ ____
ROOT
ATOM      1  C   UNL     1       0.251  12.253  20.945  0.00  0.00    +0.000 A 
ATOM      2  N   UNL     1       0.748  13.392  20.411  0.00  0.00    +0.000 NA
ATOM      3  O   UNL     1       1.484  13.010  19.294  0.00  0.00    +0.000 OA
ATOM      4  C   UNL     1       1.415  11.671  19.175  0.00  0.00    +0.000 A 
ATOM      5  C   UNL     1       0.660  11.130  20.180  0.00  0.00    +0.000 A 
ATOM      6  C   UNL     1       0.410   9.673  20.308  0.00  0.00    +0.000 C 
ATOM      7  N   UNL     1       1.326   8.950  19.384  0.00  0.00    +0.000 N 
ATOM      8  C   UNL     1       1.788   7.717  19.814  0.00  0.00    +0.000 C 
ATOM      9  O   UNL     1       1.392   7.254  20.884  0.00  0.00    +0.000 OA
ATOM     10  N   UNL     1       2.701   7.081  19.004  0.00  0.00    +0.000 N 
ATOM     11  C   UNL     1       1.486   9.530  18.027  0.00  0.00    +0.000 C 
ATOM     12  C   UNL     1       2.108  10.943  18.093  0.00  0.00    +0.000 C 
ATOM     13  H   UNL     1       3.238   7.635  18.350  0.00  0.00    +0.000 HD
ENDROOT
BRANCH  10  14
ATOM     14  C   UNL     1       3.246   5.786  19.227  0.00  0.00    +0.000 A 
ATOM     15  C   UNL     1       2.676   4.861  20.110  0.00  0.00    +0.000 A 
ATOM     16  C   UNL     1       3.277   3.621  20.320  0.00  0.00    +0.000 A 
ATOM     17 CL   UNL     1       2.570   2.514  21.439  0.00  0.00    +0.000 Cl
ATOM     18  C   UNL     1       4.443   3.282  19.635  0.00  0.00    +0.000 A 
ATOM     19  C   UNL     1       5.013   4.172  18.728  0.00  0.00    +0.000 A 
ATOM     20  C   UNL     1       4.409   5.416  18.524  0.00  0.00    +0.000 A 
BRANCH  18  21
ATOM     21  O   UNL     1       5.063   2.077  19.820  0.00  0.00    +0.000 OA
ATOM     22  H   UNL     1       4.360   1.399  19.866  0.00  0.00    +0.000 HD
ENDBRANCH  18  21
BRANCH  20  23
ATOM     23  O   UNL     1       4.955   6.304  17.636  0.00  0.00    +0.000 OA
ATOM     24  H   UNL     1       4.280   6.970  17.414  0.00  0.00    +0.000 HD
ENDBRANCH  20  23
ENDBRANCH  10  14
BRANCH   1  26
ATOM     25  N   UNL     1      -1.634  13.182  22.094  0.00  0.00    +0.000 N 
ATOM     26  C   UNL     1      -0.597  12.271  22.145  0.00  0.00    +0.000 C 
ATOM     27  O   UNL     1      -0.398  11.527  23.099  0.00  0.00    +0.000 OA
ATOM     28  H   UNL     1      -1.689  13.765  21.263  0.00  0.00    +0.000 HD
BRANCH  25  30
ATOM     29  C   UNL     1      -3.977  12.830  22.752  0.00  0.00    +0.000 C 
ATOM     30  C   UNL     1      -2.606  13.343  23.153  0.00  0.00    +0.000 C 
ENDBRANCH  25  30
ENDBRANCH   1  26
TORSDOF 5
ENDMDL
MODEL 7
REMARK VINA RESULT:      -7.1      1.480      1.609
REMARK  Name = 
REMARK  6 active torsions:
REMARK  status: ('A' for Active; 'I' for Inactive)
REMARK    1  A    between atoms: C_1  and  C_2
REMARK    2  A    between atoms: C_2  and  N_3
REMARK    3  A    between atoms: C_4  and  C_6
REMARK    4  A    between atoms: N_15  and  C_16
REMARK    5  A    between atoms: C_20  and  O_21
REMARK    6  A    between atoms: C_23  and  O_24
REMARK                            x       y       z     vdW  Elec       q    Type
REMARK                         _______ _______ _______ _____ _____    ______ ____
ROOT
ATOM      1  C   UNL     1       5.234   4.998  17.931  0.00  0.00    +0.000 A 
ATOM      2  N   UNL     1       5.772   3.954  18.602  0.00  0.00    +0.000 NA
ATOM      3  O   UNL     1       4.954   3.736  19.706  0.00  0.00    +0.000 OA
ATOM      4  C   UNL     1       3.951   4.634  19.678  0.00  0.00    +0.000 A 
ATOM      5  C   UNL     1       4.066   5.460  18.592  0.00  0.00    +0.000 A 
ATOM      6  C   UNL     1       3.104   6.551  18.302  0.00  0.00    +0.000 C 
ATOM      7  N   UNL     1       2.238   6.752  19.497  0.00  0.00    +0.000 N 
ATOM      8  C   UNL     1       1.831   8.052  19.751  0.00  0.00    +0.000 C 
ATOM      9  O   UNL     1       2.142   8.953  18.973  0.00  0.00    +0.000 OA
ATOM     10  N   UNL     1       1.101   8.258  20.899  0.00  0.00    +0.000 N 
ATOM     11  C   UNL     1       1.744   5.523  20.166  0.00  0.00    +0.000 C 
ATOM     12  C   UNL     1       2.913   4.682  20.726  0.00  0.00    +0.000 C 
ATOM     13  H   UNL     1       1.175   7.584  21.649  0.00  0.00    +0.000 HD
ENDROOT
BRANCH  10  14
ATOM     14  C   UNL     1       0.533   9.496  21.308  0.00  0.00    +0.000 A 
ATOM     15  C   UNL     1       0.883  10.723  20.732  0.00  0.00    +0.000 A 
ATOM     16  C   UNL     1       0.325  11.911  21.202  0.00  0.00    +0.000 A 
ATOM     17 CL   UNL     1       0.801  13.411  20.494  0.00  0.00    +0.000 Cl
ATOM     18  C   UNL     1      -0.607  11.884  22.238  0.00  0.00    +0.000 A 
ATOM     19  C   UNL     1      -0.996  10.675  22.808  0.00  0.00    +0.000 A 
ATOM     20  C   UNL     1      -0.430   9.487  22.336  0.00  0.00    +0.000 A 
BRANCH  18  21
ATOM     21  O   UNL     1      -1.172  13.030  22.728  0.00  0.00    +0.000 OA
ATOM     22  H   UNL     1      -1.292  12.899  23.690  0.00  0.00    +0.000 HD
ENDBRANCH  18  21
BRANCH  20  23
ATOM     23  O   UNL     1      -0.801   8.288  22.885  0.00  0.00    +0.000 OA
ATOM     24  H   UNL     1      -1.717   8.097  22.612  0.00  0.00    +0.000 HD
ENDBRANCH  20  23
ENDBRANCH  10  14
BRANCH   1  26
ATOM     25  N   UNL     1       5.880   4.584  15.662  0.00  0.00    +0.000 N 
ATOM     26  C   UNL     1       5.832   5.506  16.689  0.00  0.00    +0.000 C 
ATOM     27  O   UNL     1       6.241   6.658  16.582  0.00  0.00    +0.000 OA
ATOM     28  H   UNL     1       5.536   3.651  15.870  0.00  0.00    +0.000 HD
BRANCH  25  30
ATOM     29  C   UNL     1       6.168   3.746  13.368  0.00  0.00    +0.000 C 
ATOM     30  C   UNL     1       6.400   4.883  14.346  0.00  0.00    +0.000 C 
ENDBRANCH  25  30
ENDBRANCH   1  26
TORSDOF 5
ENDMDL
MODEL 8
REMARK VINA RESULT:      -7.1      3.727      8.547
REMARK  Name = 
REMARK  6 active torsions:
REMARK  status: ('A' for Active; 'I' for Inactive)
REMARK    1  A    between atoms: C_1  and  C_2
REMARK    2  A    between atoms: C_2  and  N_3
REMARK    3  A    between atoms: C_4  and  C_6
REMARK    4  A    between atoms: N_15  and  C_16
REMARK    5  A    between atoms: C_20  and  O_21
REMARK    6  A    between atoms: C_23  and  O_24
REMARK                            x       y       z     vdW  Elec       q    Type
REMARK                         _______ _______ _______ _____ _____    ______ ____
ROOT
ATOM      1  C   UNL     1      -1.232  11.420  20.318  0.00  0.00    +0.000 A 
ATOM      2  N   UNL     1      -1.965  11.676  21.426  0.00  0.00    +0.000 NA
ATOM      3  O   UNL     1      -1.407  10.915  22.447  0.00  0.00    +0.000 OA
ATOM      4  C   UNL     1      -0.362  10.228  21.946  0.00  0.00    +0.000 A 
ATOM      5  C   UNL     1      -0.197  10.495  20.614  0.00  0.00    +0.000 A 
ATOM      6  C   UNL     1       0.875   9.879  19.794  0.00  0.00    +0.000 C 
ATOM      7  N   UNL     1       1.488   8.767  20.570  0.00  0.00    +0.000 N 
ATOM      8  C   UNL     1       1.920   7.671  19.841  0.00  0.00    +0.000 C 
ATOM      9  O   UNL     1       1.835   7.682  18.613  0.00  0.00    +0.000 OA
ATOM     10  N   UNL     1       2.411   6.605  20.558  0.00  0.00    +0.000 N 
ATOM     11  C   UNL     1       1.752   9.033  22.006  0.00  0.00    +0.000 C 
ATOM     12  C   UNL     1       0.440   9.307  22.775  0.00  0.00    +0.000 C 
ATOM     13  H   UNL     1       2.140   6.506  21.528  0.00  0.00    +0.000 HD
ENDROOT
BRANCH  10  14
ATOM     14  C   UNL     1       2.963   5.417  20.004  0.00  0.00    +0.000 A 
ATOM     15  C   UNL     1       4.221   5.376  19.389  0.00  0.00    +0.000 A 
ATOM     16  C   UNL     1       4.693   4.192  18.825  0.00  0.00    +0.000 A 
ATOM     17 CL   UNL     1       6.233   4.180  18.045  0.00  0.00    +0.000 Cl
ATOM     18  C   UNL     1       3.926   3.030  18.888  0.00  0.00    +0.000 A 
ATOM     19  C   UNL     1       2.686   3.036  19.521  0.00  0.00    +0.000 A 
ATOM     20  C   UNL     1       2.214   4.227  20.081  0.00  0.00    +0.000 A 
BRANCH  18  21
ATOM     21  O   UNL     1       4.356   1.852  18.342  0.00  0.00    +0.000 OA
ATOM     22  H   UNL     1       3.585   1.446  17.897  0.00  0.00    +0.000 HD
ENDBRANCH  18  21
BRANCH  20  23
ATOM     23  O   UNL     1       0.996   4.252  20.708  0.00  0.00    +0.000 OA
ATOM     24  H   UNL     1       0.335   3.862  20.108  0.00  0.00    +0.000 HD
ENDBRANCH  20  23
ENDBRANCH  10  14
BRANCH   1  26
ATOM     25  N   UNL     1      -2.032  11.214  18.070  0.00  0.00    +0.000 N 
ATOM     26  C   UNL     1      -1.528  12.067  19.033  0.00  0.00    +0.000 C 
ATOM     27  O   UNL     1      -1.350  13.266  18.846  0.00  0.00    +0.000 OA
ATOM     28  H   UNL     1      -2.114  10.234  18.327  0.00  0.00    +0.000 HD
BRANCH  25  30
ATOM     29  C   UNL     1      -2.744  10.477  15.835  0.00  0.00    +0.000 C 
ATOM     30  C   UNL     1      -2.419  11.647  16.746  0.00  0.00    +0.000 C 
ENDBRANCH  25  30
ENDBRANCH   1  26
TORSDOF 5
ENDMDL
MODEL 9
REMARK VINA RESULT:      -7.0      1.315      1.351
REMARK  Name = 
REMARK  6 active torsions:
REMARK  status: ('A' for Active; 'I' for Inactive)
REMARK    1  A    between atoms: C_1  and  C_2
REMARK    2  A    between atoms: C_2  and  N_3
REMARK    3  A    between atoms: C_4  and  C_6
REMARK    4  A    between atoms: N_15  and  C_16
REMARK    5  A    between atoms: C_20  and  O_21
REMARK    6  A    between atoms: C_23  and  O_24
REMARK                            x       y       z     vdW  Elec       q    Type
REMARK                         _______ _______ _______ _____ _____    ______ ____
ROOT
ATOM      1  C   UNL     1       5.918   5.249  17.613  0.00  0.00    +0.000 A 
ATOM      2  N   UNL     1       6.408   4.504  18.630  0.00  0.00    +0.000 NA
ATOM      3  O   UNL     1       5.460   4.557  19.646  0.00  0.00    +0.000 OA
ATOM      4  C   UNL     1       4.430   5.316  19.229  0.00  0.00    +0.000 A 
ATOM      5  C   UNL     1       4.652   5.788  17.963  0.00  0.00    +0.000 A 
ATOM      6  C   UNL     1       3.688   6.656  17.243  0.00  0.00    +0.000 C 
ATOM      7  N   UNL     1       2.661   7.130  18.211  0.00  0.00    +0.000 N 
ATOM      8  C   UNL     1       2.163   8.407  18.005  0.00  0.00    +0.000 C 
ATOM      9  O   UNL     1       2.535   9.058  17.030  0.00  0.00    +0.000 OA
ATOM     10  N   UNL     1       1.276   8.883  18.943  0.00  0.00    +0.000 N 
ATOM     11  C   UNL     1       2.138   6.120  19.164  0.00  0.00    +0.000 C 
ATOM     12  C   UNL     1       3.258   5.587  20.085  0.00  0.00    +0.000 C 
ATOM     13  H   UNL     1       1.280   8.473  19.867  0.00  0.00    +0.000 HD
ENDROOT
BRANCH  10  14
ATOM     14  C   UNL     1       0.602  10.134  18.885  0.00  0.00    +0.000 A 
ATOM     15  C   UNL     1      -0.792  10.253  18.943  0.00  0.00    +0.000 A 
ATOM     16  C   UNL     1      -1.401  11.503  18.839  0.00  0.00    +0.000 A 
ATOM     17 CL   UNL     1      -3.122  11.614  18.882  0.00  0.00    +0.000 Cl
ATOM     18  C   UNL     1      -0.623  12.651  18.698  0.00  0.00    +0.000 A 
ATOM     19  C   UNL     1       0.766  12.564  18.668  0.00  0.00    +0.000 A 
ATOM     20  C   UNL     1       1.372  11.308  18.768  0.00  0.00    +0.000 A 
BRANCH  18  21
ATOM     21  O   UNL     1      -1.186  13.893  18.587  0.00  0.00    +0.000 OA
ATOM     22  H   UNL     1      -1.931  13.814  17.958  0.00  0.00    +0.000 HD
ENDBRANCH  18  21
BRANCH  20  23
ATOM     23  O   UNL     1       2.737  11.204  18.740  0.00  0.00    +0.000 OA
ATOM     24  H   UNL     1       3.044  10.967  19.634  0.00  0.00    +0.000 HD
ENDBRANCH  20  23
ENDBRANCH  10  14
BRANCH   1  26
ATOM     25  N   UNL     1       6.265   4.547  15.350  0.00  0.00    +0.000 N 
ATOM     26  C   UNL     1       6.654   5.413  16.353  0.00  0.00    +0.000 C 
ATOM     27  O   UNL     1       7.531   6.259  16.211  0.00  0.00    +0.000 OA
ATOM     28  H   UNL     1       5.546   3.869  15.587  0.00  0.00    +0.000 HD
BRANCH  25  30
ATOM     29  C   UNL     1       6.079   3.651  13.068  0.00  0.00    +0.000 C 
ATOM     30  C   UNL     1       6.837   4.556  14.022  0.00  0.00    +0.000 C 
ENDBRANCH  25  30
ENDBRANCH   1  26
TORSDOF 5
ENDMDL
