MODEL 1
REMARK VINA RESULT:      -7.1      0.000      0.000
REMARK  Name = 
REMARK  4 active torsions:
REMARK  status: ('A' for Active; 'I' for Inactive)
REMARK    1  A    between atoms: C_1  and  C_2
REMARK    2  A    between atoms: C_5  and  C_6
REMARK    3  A    between atoms: C_7  and  C_8
REMARK    4  A    between atoms: C_13  and  N_14
REMARK                            x       y       z     vdW  Elec       q    Type
REMARK                         _______ _______ _______ _____ _____    ______ ____
ROOT
ATOM      1  C   UNL     1       3.312   4.081  17.219  0.00  0.00    +0.000 C 
ATOM      2  O   UNL     1       2.593   3.499  16.411  0.00  0.00    +0.000 OA
ATOM      3  N   UNL     1       4.617   4.455  16.915  0.00  0.00    +0.000 N 
ATOM      4  C   UNL     1       5.136   4.325  15.563  0.00  0.00    +0.000 C 
ATOM      5  C   UNL     1       6.607   3.982  15.750  0.00  0.00    +0.000 C 
ATOM      6  C   UNL     1       6.987   4.733  17.025  0.00  0.00    +0.000 C 
ATOM      7  C   UNL     1       5.691   4.732  17.860  0.00  0.00    +0.000 C 
ENDROOT
BRANCH   1  14
ATOM      8  C   UNL     1       1.820   2.549  21.716  0.00  0.00    +0.000 C 
ATOM      9  C   UNL     1       2.068   3.689  20.774  0.00  0.00    +0.000 A 
ATOM     10  C   UNL     1       1.798   5.008  21.133  0.00  0.00    +0.000 A 
ATOM     11  C   UNL     1       2.023   6.046  20.225  0.00  0.00    +0.000 A 
ATOM     12  C   UNL     1       2.495   5.788  18.925  0.00  0.00    +0.000 A 
ATOM     13  C   UNL     1       2.722   6.950  17.997  0.00  0.00    +0.000 C 
ATOM     14  C   UNL     1       2.746   4.452  18.551  0.00  0.00    +0.000 A 
ATOM     15  C   UNL     1       2.571   3.426  19.494  0.00  0.00    +0.000 A 
ENDBRANCH   1  14
BRANCH   6  16
ATOM     16  N   UNL     1       8.135   4.117  17.686  0.00  0.00    +0.000 NA
ATOM     17  H   UNL     1       8.563   4.791  18.323  0.00  0.00    +0.000 HD
ATOM     18  H   UNL     1       8.854   3.893  16.998  0.00  0.00    +0.000 HD
ENDBRANCH   6  16
TORSDOF 2
ENDMDL
MODEL 2
REMARK VINA RESULT:      -7.1      1.207      1.418
REMARK  Name = 
REMARK  4 active torsions:
REMARK  status: ('A' for Active; 'I' for Inactive)
REMARK    1  A    between atoms: C_1  and  C_2
REMARK    2  A    between atoms: C_5  and  C_6
REMARK    3  A    between atoms: C_7  and  C_8
REMARK    4  A    between atoms: C_13  and  N_14
REMARK                            x       y       z     vdW  Elec       q    Type
REMARK                         _______ _______ _______ _____ _____    ______ ____
ROOT
ATOM      1  C   UNL     1       4.280   4.351  17.844  0.00  0.00    +0.000 C 
ATOM      2  O   UNL     1       4.015   3.652  16.870  0.00  0.00    +0.000 OA
ATOM      3  N   UNL     1       5.532   4.932  18.021  0.00  0.00    +0.000 N 
ATOM      4  C   UNL     1       6.537   4.876  16.971  0.00  0.00    +0.000 C 
ATOM      5  C   UNL     1       7.861   4.782  17.715  0.00  0.00    +0.000 C 
ATOM      6  C   UNL     1       7.615   5.597  18.984  0.00  0.00    +0.000 C 
ATOM      7  C   UNL     1       6.115   5.391  19.276  0.00  0.00    +0.000 C 
ENDROOT
BRANCH   1  14
ATOM      8  C   UNL     1       1.508   2.667  21.622  0.00  0.00    +0.000 C 
ATOM      9  C   UNL     1       1.890   3.810  20.731  0.00  0.00    +0.000 A 
ATOM     10  C   UNL     1       1.283   5.060  20.842  0.00  0.00    +0.000 A 
ATOM     11  C   UNL     1       1.648   6.100  19.983  0.00  0.00    +0.000 A 
ATOM     12  C   UNL     1       2.606   5.907  18.971  0.00  0.00    +0.000 A 
ATOM     13  C   UNL     1       2.960   7.069  18.083  0.00  0.00    +0.000 C 
ATOM     14  C   UNL     1       3.205   4.637  18.841  0.00  0.00    +0.000 A 
ATOM     15  C   UNL     1       2.869   3.620  19.749  0.00  0.00    +0.000 A 
ENDBRANCH   1  14
BRANCH   6  16
ATOM     16  N   UNL     1       8.506   5.184  20.065  0.00  0.00    +0.000 NA
ATOM     17  H   UNL     1       9.336   4.739  19.672  0.00  0.00    +0.000 HD
ATOM     18  H   UNL     1       8.053   4.470  20.636  0.00  0.00    +0.000 HD
ENDBRANCH   6  16
TORSDOF 2
ENDMDL
MODEL 3
REMARK VINA RESULT:      -6.9      2.180      4.970
REMARK  Name = 
REMARK  4 active torsions:
REMARK  status: ('A' for Active; 'I' for Inactive)
REMARK    1  A    between atoms: C_1  and  C_2
REMARK    2  A    between atoms: C_5  and  C_6
REMARK    3  A    between atoms: C_7  and  C_8
REMARK    4  A    between atoms: C_13  and  N_14
REMARK                            x       y       z     vdW  Elec       q    Type
REMARK                         _______ _______ _______ _____ _____    ______ ____
ROOT
ATOM      1  C   UNL     1       2.111   4.257  17.693  0.00  0.00    +0.000 C 
ATOM      2  O   UNL     1       1.125   4.378  16.971  0.00  0.00    +0.000 OA
ATOM      3  N   UNL     1       2.101   3.464  18.836  0.00  0.00    +0.000 N 
ATOM      4  C   UNL     1       0.968   2.603  19.138  0.00  0.00    +0.000 C 
ATOM      5  C   UNL     1       0.880   2.606  20.657  0.00  0.00    +0.000 C 
ATOM      6  C   UNL     1       2.337   2.730  21.098  0.00  0.00    +0.000 C 
ATOM      7  C   UNL     1       2.996   3.567  19.982  0.00  0.00    +0.000 C 
ENDROOT
BRANCH   1  14
ATOM      8  C   UNL     1       6.430   3.974  15.231  0.00  0.00    +0.000 C 
ATOM      9  C   UNL     1       5.474   4.799  16.039  0.00  0.00    +0.000 A 
ATOM     10  C   UNL     1       5.757   6.120  16.385  0.00  0.00    +0.000 A 
ATOM     11  C   UNL     1       4.853   6.856  17.156  0.00  0.00    +0.000 A 
ATOM     12  C   UNL     1       3.659   6.280  17.627  0.00  0.00    +0.000 A 
ATOM     13  C   UNL     1       2.726   7.128  18.447  0.00  0.00    +0.000 C 
ATOM     14  C   UNL     1       3.382   4.937  17.299  0.00  0.00    +0.000 A 
ATOM     15  C   UNL     1       4.272   4.229  16.475  0.00  0.00    +0.000 A 
ENDBRANCH   1  14
BRANCH   6  16
ATOM     16  N   UNL     1       2.444   3.310  22.434  0.00  0.00    +0.000 NA
ATOM     17  H   UNL     1       2.117   4.277  22.413  0.00  0.00    +0.000 HD
ATOM     18  H   UNL     1       3.424   3.356  22.717  0.00  0.00    +0.000 HD
ENDBRANCH   6  16
TORSDOF 2
ENDMDL
MODEL 4
REMARK VINA RESULT:      -6.9      2.061      5.443
REMARK  Name = 
REMARK  4 active torsions:
REMARK  status: ('A' for Active; 'I' for Inactive)
REMARK    1  A    between atoms: C_1  and  C_2
REMARK    2  A    between atoms: C_5  and  C_6
REMARK    3  A    between atoms: C_7  and  C_8
REMARK    4  A    between atoms: C_13  and  N_14
REMARK                            x       y       z     vdW  Elec       q    Type
REMARK                         _______ _______ _______ _____ _____    ______ ____
ROOT
ATOM      1  C   UNL     1       3.866   5.635  18.233  0.00  0.00    +0.000 C 
ATOM      2  O   UNL     1       3.565   6.823  18.147  0.00  0.00    +0.000 OA
ATOM      3  N   UNL     1       3.111   4.730  18.973  0.00  0.00    +0.000 N 
ATOM      4  C   UNL     1       1.831   5.116  19.543  0.00  0.00    +0.000 C 
ATOM      5  C   UNL     1       1.744   4.339  20.848  0.00  0.00    +0.000 C 
ATOM      6  C   UNL     1       2.482   3.038  20.536  0.00  0.00    +0.000 C 
ATOM      7  C   UNL     1       3.559   3.454  19.515  0.00  0.00    +0.000 C 
ENDROOT
BRANCH   1  14
ATOM      8  C   UNL     1       5.652   3.945  13.903  0.00  0.00    +0.000 C 
ATOM      9  C   UNL     1       5.920   4.356  15.320  0.00  0.00    +0.000 A 
ATOM     10  C   UNL     1       7.196   4.284  15.875  0.00  0.00    +0.000 A 
ATOM     11  C   UNL     1       7.409   4.657  17.206  0.00  0.00    +0.000 A 
ATOM     12  C   UNL     1       6.345   5.082  18.021  0.00  0.00    +0.000 A 
ATOM     13  C   UNL     1       6.641   5.477  19.443  0.00  0.00    +0.000 C 
ATOM     14  C   UNL     1       5.049   5.134  17.469  0.00  0.00    +0.000 A 
ATOM     15  C   UNL     1       4.862   4.811  16.115  0.00  0.00    +0.000 A 
ENDBRANCH   1  14
BRANCH   6  16
ATOM     16  N   UNL     1       3.004   2.415  21.750  0.00  0.00    +0.000 NA
ATOM     17  H   UNL     1       3.659   1.673  21.497  0.00  0.00    +0.000 HD
ATOM     18  H   UNL     1       2.249   1.955  22.259  0.00  0.00    +0.000 HD
ENDBRANCH   6  16
TORSDOF 2
ENDMDL
MODEL 5
REMARK VINA RESULT:      -6.9      0.784      2.189
REMARK  Name = 
REMARK  4 active torsions:
REMARK  status: ('A' for Active; 'I' for Inactive)
REMARK    1  A    between atoms: C_1  and  C_2
REMARK    2  A    between atoms: C_5  and  C_6
REMARK    3  A    between atoms: C_7  and  C_8
REMARK    4  A    between atoms: C_13  and  N_14
REMARK                            x       y       z     vdW  Elec       q    Type
REMARK                         _______ _______ _______ _____ _____    ______ ____
ROOT
ATOM      1  C   UNL     1       3.405   3.851  17.270  0.00  0.00    +0.000 C 
ATOM      2  O   UNL     1       2.688   3.426  16.368  0.00  0.00    +0.000 OA
ATOM      3  N   UNL     1       4.674   4.367  17.027  0.00  0.00    +0.000 N 
ATOM      4  C   UNL     1       5.145   4.583  15.668  0.00  0.00    +0.000 C 
ATOM      5  C   UNL     1       6.639   4.301  15.732  0.00  0.00    +0.000 C 
ATOM      6  C   UNL     1       7.028   4.763  17.136  0.00  0.00    +0.000 C 
ATOM      7  C   UNL     1       5.768   4.488  17.982  0.00  0.00    +0.000 C 
ENDROOT
BRANCH   1  14
ATOM      8  C   UNL     1       1.320   6.511  20.927  0.00  0.00    +0.000 C 
ATOM      9  C   UNL     1       1.801   5.180  20.432  0.00  0.00    +0.000 A 
ATOM     10  C   UNL     1       1.740   4.037  21.228  0.00  0.00    +0.000 A 
ATOM     11  C   UNL     1       2.214   2.814  20.743  0.00  0.00    +0.000 A 
ATOM     12  C   UNL     1       2.789   2.712  19.464  0.00  0.00    +0.000 A 
ATOM     13  C   UNL     1       3.275   1.366  18.999  0.00  0.00    +0.000 C 
ATOM     14  C   UNL     1       2.874   3.871  18.667  0.00  0.00    +0.000 A 
ATOM     15  C   UNL     1       2.340   5.079  19.145  0.00  0.00    +0.000 A 
ENDBRANCH   1  14
BRANCH   6  16
ATOM     16  N   UNL     1       8.234   4.086  17.606  0.00  0.00    +0.000 NA
ATOM     17  H   UNL     1       8.731   4.692  18.260  0.00  0.00    +0.000 HD
ATOM     18  H   UNL     1       8.875   3.934  16.827  0.00  0.00    +0.000 HD
ENDBRANCH   6  16
TORSDOF 2
ENDMDL
MODEL 6
REMARK VINA RESULT:      -6.8      2.287      5.373
REMARK  Name = 
REMARK  4 active torsions:
REMARK  status: ('A' for Active; 'I' for Inactive)
REMARK    1  A    between atoms: C_1  and  C_2
REMARK    2  A    between atoms: C_5  and  C_6
REMARK    3  A    between atoms: C_7  and  C_8
REMARK    4  A    between atoms: C_13  and  N_14
REMARK                            x       y       z     vdW  Elec       q    Type
REMARK                         _______ _______ _______ _____ _____    ______ ____
ROOT
ATOM      1  C   UNL     1       4.645   4.040  18.771  0.00  0.00    +0.000 C 
ATOM      2  O   UNL     1       5.591   3.778  19.510  0.00  0.00    +0.000 OA
ATOM      3  N   UNL     1       3.330   3.742  19.116  0.00  0.00    +0.000 N 
ATOM      4  C   UNL     1       2.998   3.259  20.447  0.00  0.00    +0.000 C 
ATOM      5  C   UNL     1       1.837   2.300  20.226  0.00  0.00    +0.000 C 
ATOM      6  C   UNL     1       1.092   2.911  19.041  0.00  0.00    +0.000 C 
ATOM      7  C   UNL     1       2.201   3.585  18.208  0.00  0.00    +0.000 C 
ENDROOT
BRANCH   1  14
ATOM      8  C   UNL     1       6.307   3.767  14.086  0.00  0.00    +0.000 C 
ATOM      9  C   UNL     1       5.680   4.589  15.171  0.00  0.00    +0.000 A 
ATOM     10  C   UNL     1       5.357   5.932  14.979  0.00  0.00    +0.000 A 
ATOM     11  C   UNL     1       4.790   6.676  16.017  0.00  0.00    +0.000 A 
ATOM     12  C   UNL     1       4.562   6.105  17.282  0.00  0.00    +0.000 A 
ATOM     13  C   UNL     1       3.943   6.959  18.356  0.00  0.00    +0.000 C 
ATOM     14  C   UNL     1       4.910   4.755  17.486  0.00  0.00    +0.000 A 
ATOM     15  C   UNL     1       5.424   4.004  16.416  0.00  0.00    +0.000 A 
ENDBRANCH   1  14
BRANCH   6  16
ATOM     16  N   UNL     1       0.319   1.904  18.318  0.00  0.00    +0.000 NA
ATOM     17  H   UNL     1       0.303   2.135  17.324  0.00  0.00    +0.000 HD
ATOM     18  H   UNL     1      -0.655   1.926  18.623  0.00  0.00    +0.000 HD
ENDBRANCH   6  16
TORSDOF 2
ENDMDL
MODEL 7
REMARK VINA RESULT:      -6.7      1.767      2.250
REMARK  Name = 
REMARK  4 active torsions:
REMARK  status: ('A' for Active; 'I' for Inactive)
REMARK    1  A    between atoms: C_1  and  C_2
REMARK    2  A    between atoms: C_5  and  C_6
REMARK    3  A    between atoms: C_7  and  C_8
REMARK    4  A    between atoms: C_13  and  N_14
REMARK                            x       y       z     vdW  Elec       q    Type
REMARK                         _______ _______ _______ _____ _____    ______ ____
ROOT
ATOM      1  C   UNL     1       5.430   5.092  18.924  0.00  0.00    +0.000 C 
ATOM      2  O   UNL     1       6.228   5.690  19.641  0.00  0.00    +0.000 OA
ATOM      3  N   UNL     1       5.814   4.490  17.730  0.00  0.00    +0.000 N 
ATOM      4  C   UNL     1       7.216   4.395  17.357  0.00  0.00    +0.000 C 
ATOM      5  C   UNL     1       7.218   4.523  15.841  0.00  0.00    +0.000 C 
ATOM      6  C   UNL     1       5.905   3.861  15.426  0.00  0.00    +0.000 C 
ATOM      7  C   UNL     1       4.952   4.151  16.604  0.00  0.00    +0.000 C 
ENDROOT
BRANCH   1  14
ATOM      8  C   UNL     1       2.117   2.527  21.614  0.00  0.00    +0.000 C 
ATOM      9  C   UNL     1       2.411   3.715  20.748  0.00  0.00    +0.000 A 
ATOM     10  C   UNL     1       1.421   4.635  20.404  0.00  0.00    +0.000 A 
ATOM     11  C   UNL     1       1.724   5.722  19.579  0.00  0.00    +0.000 A 
ATOM     12  C   UNL     1       3.016   5.898  19.052  0.00  0.00    +0.000 A 
ATOM     13  C   UNL     1       3.279   7.092  18.175  0.00  0.00    +0.000 C 
ATOM     14  C   UNL     1       4.013   4.956  19.378  0.00  0.00    +0.000 A 
ATOM     15  C   UNL     1       3.707   3.902  20.255  0.00  0.00    +0.000 A 
ENDBRANCH   1  14
BRANCH   6  16
ATOM     16  N   UNL     1       5.441   4.358  14.134  0.00  0.00    +0.000 NA
ATOM     17  H   UNL     1       5.780   3.744  13.391  0.00  0.00    +0.000 HD
ATOM     18  H   UNL     1       5.850   5.273  13.944  0.00  0.00    +0.000 HD
ENDBRANCH   6  16
TORSDOF 2
ENDMDL
MODEL 8
REMARK VINA RESULT:      -6.6      2.931      5.598
REMARK  Name = 
REMARK  4 active torsions:
REMARK  status: ('A' for Active; 'I' for Inactive)
REMARK    1  A    between atoms: C_1  and  C_2
REMARK    2  A    between atoms: C_5  and  C_6
REMARK    3  A    between atoms: C_7  and  C_8
REMARK    4  A    between atoms: C_13  and  N_14
REMARK                            x       y       z     vdW  Elec       q    Type
REMARK                         _______ _______ _______ _____ _____    ______ ____
ROOT
ATOM      1  C   UNL     1       2.504   6.006  19.890  0.00  0.00    +0.000 C 
ATOM      2  O   UNL     1       2.103   5.335  20.838  0.00  0.00    +0.000 OA
ATOM      3  N   UNL     1       2.196   7.356  19.755  0.00  0.00    +0.000 N 
ATOM      4  C   UNL     1       1.523   8.080  20.822  0.00  0.00    +0.000 C 
ATOM      5  C   UNL     1       0.644   9.092  20.102  0.00  0.00    +0.000 C 
ATOM      6  C   UNL     1       1.452   9.440  18.853  0.00  0.00    +0.000 C 
ATOM      7  C   UNL     1       2.214   8.140  18.526  0.00  0.00    +0.000 C 
ENDROOT
BRANCH   1  14
ATOM      8  C   UNL     1       7.164   5.192  18.338  0.00  0.00    +0.000 C 
ATOM      9  C   UNL     1       5.698   4.932  18.164  0.00  0.00    +0.000 A 
ATOM     10  C   UNL     1       5.214   4.132  17.130  0.00  0.00    +0.000 A 
ATOM     11  C   UNL     1       3.839   3.925  16.984  0.00  0.00    +0.000 A 
ATOM     12  C   UNL     1       2.914   4.537  17.849  0.00  0.00    +0.000 A 
ATOM     13  C   UNL     1       1.448   4.269  17.642  0.00  0.00    +0.000 C 
ATOM     14  C   UNL     1       3.400   5.366  18.880  0.00  0.00    +0.000 A 
ATOM     15  C   UNL     1       4.786   5.517  19.050  0.00  0.00    +0.000 A 
ENDBRANCH   1  14
BRANCH   6  16
ATOM     16  N   UNL     1       0.592   9.926  17.778  0.00  0.00    +0.000 NA
ATOM     17  H   UNL     1       0.810  10.905  17.583  0.00  0.00    +0.000 HD
ATOM     18  H   UNL     1      -0.383   9.915  18.079  0.00  0.00    +0.000 HD
ENDBRANCH   6  16
TORSDOF 2
ENDMDL
MODEL 9
REMARK VINA RESULT:      -6.6      1.427      2.562
REMARK  Name = 
REMARK  4 active torsions:
REMARK  status: ('A' for Active; 'I' for Inactive)
REMARK    1  A    between atoms: C_1  and  C_2
REMARK    2  A    between atoms: C_5  and  C_6
REMARK    3  A    between atoms: C_7  and  C_8
REMARK    4  A    between atoms: C_13  and  N_14
REMARK                            x       y       z     vdW  Elec       q    Type
REMARK                         _______ _______ _______ _____ _____    ______ ____
ROOT
ATOM      1  C   UNL     1       4.257   4.283  17.754  0.00  0.00    +0.000 C 
ATOM      2  O   UNL     1       4.055   3.739  16.671  0.00  0.00    +0.000 OA
ATOM      3  N   UNL     1       5.434   4.972  18.029  0.00  0.00    +0.000 N 
ATOM      4  C   UNL     1       6.413   5.225  16.985  0.00  0.00    +0.000 C 
ATOM      5  C   UNL     1       7.756   5.164  17.698  0.00  0.00    +0.000 C 
ATOM      6  C   UNL     1       7.444   5.706  19.091  0.00  0.00    +0.000 C 
ATOM      7  C   UNL     1       5.987   5.270  19.345  0.00  0.00    +0.000 C 
ENDROOT
BRANCH   1  14
ATOM      8  C   UNL     1       1.335   6.880  20.838  0.00  0.00    +0.000 C 
ATOM      9  C   UNL     1       1.714   5.551  20.257  0.00  0.00    +0.000 A 
ATOM     10  C   UNL     1       1.086   4.372  20.654  0.00  0.00    +0.000 A 
ATOM     11  C   UNL     1       1.476   3.146  20.107  0.00  0.00    +0.000 A 
ATOM     12  C   UNL     1       2.525   3.066  19.173  0.00  0.00    +0.000 A 
ATOM     13  C   UNL     1       2.893   1.718  18.617  0.00  0.00    +0.000 C 
ATOM     14  C   UNL     1       3.178   4.255  18.788  0.00  0.00    +0.000 A 
ATOM     15  C   UNL     1       2.736   5.484  19.303  0.00  0.00    +0.000 A 
ENDBRANCH   1  14
BRANCH   6  16
ATOM     16  N   UNL     1       8.403   5.221  20.081  0.00  0.00    +0.000 NA
ATOM     17  H   UNL     1       8.333   5.787  20.928  0.00  0.00    +0.000 HD
ATOM     18  H   UNL     1       9.355   5.352  19.738  0.00  0.00    +0.000 HD
ENDBRANCH   6  16
TORSDOF 2
ENDMDL
