MODEL 1
REMARK VINA RESULT:      -7.8      0.000      0.000
REMARK  Name = 
REMARK  18 active torsions:
REMARK  status: ('A' for Active; 'I' for Inactive)
REMARK    1  A    between atoms: C_1  and  C_2
REMARK    2  A    between atoms: C_2  and  C_3
REMARK    3  A    between atoms: C_3  and  C_4
REMARK    4  A    between atoms: C_3  and  C_5
REMARK    5  A    between atoms: C_3  and  C_6
REMARK    6  A    between atoms: C_9  and  O_10
REMARK    7  A    between atoms: O_10  and  C_11
REMARK    8  A    between atoms: C_11  and  C_12
REMARK    9  A    between atoms: C_12  and  C_13
REMARK   10  A    between atoms: C_13  and  C_14
REMARK   11  A    between atoms: C_14  and  N_15
REMARK   12  A    between atoms: C_19  and  C_20
REMARK   13  A    between atoms: C_21  and  C_22
REMARK   14  A    between atoms: C_23  and  C_24
REMARK   15  A    between atoms: C_24  and  C_25
REMARK   16  A    between atoms: C_24  and  C_26
REMARK   17  A    between atoms: C_24  and  C_27
REMARK   18  A    between atoms: C_27  and  C_28
REMARK                            x       y       z     vdW  Elec       q    Type
REMARK                         _______ _______ _______ _____ _____    ______ ____
ROOT
ATOM      1  C   UNL     1       3.166   4.176  19.502  0.00  0.00    +0.000 A 
ATOM      2  C   UNL     1       2.260   5.193  19.759  0.00  0.00    +0.000 A 
ATOM      3  C   UNL     1       2.387   6.422  19.127  0.00  0.00    +0.000 A 
ATOM      4  C   UNL     1       3.397   6.677  18.182  0.00  0.00    +0.000 A 
ATOM      5  C   UNL     1       4.409   5.708  17.954  0.00  0.00    +0.000 A 
ATOM      6  C   UNL     1       4.256   4.480  18.655  0.00  0.00    +0.000 A 
ENDROOT
BRANCH   1   7
ATOM      7  C   UNL     1       2.985   2.765  20.081  0.00  0.00    +0.000 C 
ATOM      8  C   UNL     1       2.289   2.757  21.466  0.00  0.00    +0.000 C 
ATOM      9  C   UNL     1       4.376   2.125  20.281  0.00  0.00    +0.000 C 
BRANCH   7  11
ATOM     10  C   UNL     1       0.715   2.333  18.868  0.00  0.00    +0.000 C 
ATOM     11  C   UNL     1       2.156   1.877  19.102  0.00  0.00    +0.000 C 
ENDBRANCH   7  11
ENDBRANCH   1   7
BRANCH   5  12
ATOM     12  C   UNL     1       5.696   5.880  17.073  0.00  0.00    +0.000 C 
ATOM     13  C   UNL     1       6.429   7.219  17.307  0.00  0.00    +0.000 C 
ATOM     14  C   UNL     1       6.648   4.705  17.411  0.00  0.00    +0.000 C 
BRANCH  12  15
ATOM     15  C   UNL     1       5.388   5.813  15.520  0.00  0.00    +0.000 C 
ATOM     16  C   UNL     1       5.273   4.417  14.900  0.00  0.00    +0.000 C 
ENDBRANCH  12  15
ENDBRANCH   5  12
BRANCH   4  17
ATOM     17  O   UNL     1       3.406   7.899  17.543  0.00  0.00    +0.000 OA
BRANCH  17  18
ATOM     18  C   UNL     1       2.674   8.942  18.215  0.00  0.00    +0.000 C 
BRANCH  18  19
ATOM     19  C   UNL     1       1.329   9.211  17.540  0.00  0.00    +0.000 C 
BRANCH  19  20
ATOM     20  C   UNL     1       0.327   9.941  18.444  0.00  0.00    +0.000 C 
BRANCH  20  21
ATOM     21  C   UNL     1       0.995  10.904  19.417  0.00  0.00    +0.000 C 
BRANCH  21  22
ATOM     22  N   UNL     1       0.464  10.688  20.788  0.00  0.00    +0.000 N 
ATOM     23  C   UNL     1       0.904   9.597  21.465  0.00  0.00    +0.000 A 
ATOM     24  C   UNL     1       0.381   9.249  22.695  0.00  0.00    +0.000 A 
ATOM     25  C   UNL     1      -0.634  10.012  23.234  0.00  0.00    +0.000 A 
ATOM     26  C   UNL     1      -1.099  11.137  22.552  0.00  0.00    +0.000 A 
ATOM     27  C   UNL     1      -2.250  11.914  23.139  0.00  0.00    +0.000 C 
ATOM     28  C   UNL     1      -0.498  11.508  21.323  0.00  0.00    +0.000 A 
ATOM     29  C   UNL     1      -0.932  12.752  20.588  0.00  0.00    +0.000 C 
ENDBRANCH  21  22
ENDBRANCH  20  21
ENDBRANCH  19  20
ENDBRANCH  18  19
ENDBRANCH  17  18
ENDBRANCH   4  17
TORSDOF 10
ENDMDL
MODEL 2
REMARK VINA RESULT:      -7.6      0.668      1.536
REMARK  Name = 
REMARK  18 active torsions:
REMARK  status: ('A' for Active; 'I' for Inactive)
REMARK    1  A    between atoms: C_1  and  C_2
REMARK    2  A    between atoms: C_2  and  C_3
REMARK    3  A    between atoms: C_3  and  C_4
REMARK    4  A    between atoms: C_3  and  C_5
REMARK    5  A    between atoms: C_3  and  C_6
REMARK    6  A    between atoms: C_9  and  O_10
REMARK    7  A    between atoms: O_10  and  C_11
REMARK    8  A    between atoms: C_11  and  C_12
REMARK    9  A    between atoms: C_12  and  C_13
REMARK   10  A    between atoms: C_13  and  C_14
REMARK   11  A    between atoms: C_14  and  N_15
REMARK   12  A    between atoms: C_19  and  C_20
REMARK   13  A    between atoms: C_21  and  C_22
REMARK   14  A    between atoms: C_23  and  C_24
REMARK   15  A    between atoms: C_24  and  C_25
REMARK   16  A    between atoms: C_24  and  C_26
REMARK   17  A    between atoms: C_24  and  C_27
REMARK   18  A    between atoms: C_27  and  C_28
REMARK                            x       y       z     vdW  Elec       q    Type
REMARK                         _______ _______ _______ _____ _____    ______ ____
ROOT
ATOM      1  C   UNL     1       3.144   4.249  19.321  0.00  0.00    +0.000 A 
ATOM      2  C   UNL     1       2.253   5.245  19.689  0.00  0.00    +0.000 A 
ATOM      3  C   UNL     1       2.331   6.504  19.109  0.00  0.00    +0.000 A 
ATOM      4  C   UNL     1       3.272   6.812  18.110  0.00  0.00    +0.000 A 
ATOM      5  C   UNL     1       4.270   5.863  17.767  0.00  0.00    +0.000 A 
ATOM      6  C   UNL     1       4.171   4.602  18.417  0.00  0.00    +0.000 A 
ENDROOT
BRANCH   1   7
ATOM      7  C   UNL     1       3.009   2.811  19.843  0.00  0.00    +0.000 C 
ATOM      8  C   UNL     1       4.259   1.939  19.564  0.00  0.00    +0.000 C 
ATOM      9  C   UNL     1       1.824   2.129  19.124  0.00  0.00    +0.000 C 
BRANCH   7  11
ATOM     10  C   UNL     1       1.260   2.747  21.779  0.00  0.00    +0.000 C 
ATOM     11  C   UNL     1       2.735   2.812  21.379  0.00  0.00    +0.000 C 
ENDBRANCH   7  11
ENDBRANCH   1   7
BRANCH   5  12
ATOM     12  C   UNL     1       5.492   6.086  16.808  0.00  0.00    +0.000 C 
ATOM     13  C   UNL     1       5.087   6.523  15.383  0.00  0.00    +0.000 C 
ATOM     14  C   UNL     1       6.387   7.179  17.447  0.00  0.00    +0.000 C 
BRANCH  12  15
ATOM     15  C   UNL     1       6.378   4.785  16.633  0.00  0.00    +0.000 C 
ATOM     16  C   UNL     1       7.596   4.652  17.553  0.00  0.00    +0.000 C 
ENDBRANCH  12  15
ENDBRANCH   5  12
BRANCH   4  17
ATOM     17  O   UNL     1       3.231   8.063  17.531  0.00  0.00    +0.000 OA
BRANCH  17  18
ATOM     18  C   UNL     1       2.055   8.837  17.838  0.00  0.00    +0.000 C 
BRANCH  18  19
ATOM     19  C   UNL     1       2.362  10.335  17.876  0.00  0.00    +0.000 C 
BRANCH  19  20
ATOM     20  C   UNL     1       1.315  11.153  18.644  0.00  0.00    +0.000 C 
BRANCH  20  21
ATOM     21  C   UNL     1       0.089  10.336  19.031  0.00  0.00    +0.000 C 
BRANCH  21  22
ATOM     22  N   UNL     1      -0.068  10.326  20.509  0.00  0.00    +0.000 N 
ATOM     23  C   UNL     1       0.603   9.371  21.203  0.00  0.00    +0.000 A 
ATOM     24  C   UNL     1       0.428   9.209  22.563  0.00  0.00    +0.000 A 
ATOM     25  C   UNL     1      -0.472  10.017  23.226  0.00  0.00    +0.000 A 
ATOM     26  C   UNL     1      -1.170  11.003  22.529  0.00  0.00    +0.000 A 
ATOM     27  C   UNL     1      -2.191  11.828  23.271  0.00  0.00    +0.000 C 
ATOM     28  C   UNL     1      -0.921  11.191  21.146  0.00  0.00    +0.000 A 
ATOM     29  C   UNL     1      -1.611  12.287  20.373  0.00  0.00    +0.000 C 
ENDBRANCH  21  22
ENDBRANCH  20  21
ENDBRANCH  19  20
ENDBRANCH  18  19
ENDBRANCH  17  18
ENDBRANCH   4  17
TORSDOF 10
ENDMDL
MODEL 3
REMARK VINA RESULT:      -7.6      1.436      4.657
REMARK  Name = 
REMARK  18 active torsions:
REMARK  status: ('A' for Active; 'I' for Inactive)
REMARK    1  A    between atoms: C_1  and  C_2
REMARK    2  A    between atoms: C_2  and  C_3
REMARK    3  A    between atoms: C_3  and  C_4
REMARK    4  A    between atoms: C_3  and  C_5
REMARK    5  A    between atoms: C_3  and  C_6
REMARK    6  A    between atoms: C_9  and  O_10
REMARK    7  A    between atoms: O_10  and  C_11
REMARK    8  A    between atoms: C_11  and  C_12
REMARK    9  A    between atoms: C_12  and  C_13
REMARK   10  A    between atoms: C_13  and  C_14
REMARK   11  A    between atoms: C_14  and  N_15
REMARK   12  A    between atoms: C_19  and  C_20
REMARK   13  A    between atoms: C_21  and  C_22
REMARK   14  A    between atoms: C_23  and  C_24
REMARK   15  A    between atoms: C_24  and  C_25
REMARK   16  A    between atoms: C_24  and  C_26
REMARK   17  A    between atoms: C_24  and  C_27
REMARK   18  A    between atoms: C_27  and  C_28
REMARK                            x       y       z     vdW  Elec       q    Type
REMARK                         _______ _______ _______ _____ _____    ______ ____
ROOT
ATOM      1  C   UNL     1       5.132   5.919  17.509  0.00  0.00    +0.000 A 
ATOM      2  C   UNL     1       4.508   7.155  17.470  0.00  0.00    +0.000 A 
ATOM      3  C   UNL     1       3.303   7.354  18.129  0.00  0.00    +0.000 A 
ATOM      4  C   UNL     1       2.690   6.341  18.890  0.00  0.00    +0.000 A 
ATOM      5  C   UNL     1       3.233   5.030  18.884  0.00  0.00    +0.000 A 
ATOM      6  C   UNL     1       4.447   4.869  18.161  0.00  0.00    +0.000 A 
ENDROOT
BRANCH   1   7
ATOM      7  C   UNL     1       6.526   5.697  16.902  0.00  0.00    +0.000 C 
ATOM      8  C   UNL     1       7.311   4.545  17.578  0.00  0.00    +0.000 C 
ATOM      9  C   UNL     1       7.365   6.979  17.099  0.00  0.00    +0.000 C 
BRANCH   7  11
ATOM     10  C   UNL     1       5.987   3.971  15.021  0.00  0.00    +0.000 C 
ATOM     11  C   UNL     1       6.414   5.396  15.376  0.00  0.00    +0.000 C 
ENDBRANCH   7  11
ENDBRANCH   1   7
BRANCH   5  12
ATOM     12  C   UNL     1       2.601   3.746  19.527  0.00  0.00    +0.000 C 
ATOM     13  C   UNL     1       1.256   3.334  18.889  0.00  0.00    +0.000 C 
ATOM     14  C   UNL     1       3.625   2.594  19.360  0.00  0.00    +0.000 C 
BRANCH  12  15
ATOM     15  C   UNL     1       2.320   3.913  21.077  0.00  0.00    +0.000 C 
ATOM     16  C   UNL     1       1.713   2.708  21.801  0.00  0.00    +0.000 C 
ENDBRANCH  12  15
ENDBRANCH   5  12
BRANCH   4  17
ATOM     17  O   UNL     1       1.533   6.644  19.577  0.00  0.00    +0.000 OA
BRANCH  17  18
ATOM     18  C   UNL     1       1.720   7.446  20.759  0.00  0.00    +0.000 C 
BRANCH  18  19
ATOM     19  C   UNL     1       0.437   8.182  21.148  0.00  0.00    +0.000 C 
BRANCH  19  20
ATOM     20  C   UNL     1       0.682   9.609  21.657  0.00  0.00    +0.000 C 
BRANCH  20  21
ATOM     21  C   UNL     1       1.034  10.586  20.543  0.00  0.00    +0.000 C 
BRANCH  21  22
ATOM     22  N   UNL     1      -0.197  10.990  19.816  0.00  0.00    +0.000 N 
ATOM     23  C   UNL     1      -1.069  11.803  20.465  0.00  0.00    +0.000 A 
ATOM     24  C   UNL     1      -2.293  12.136  19.917  0.00  0.00    +0.000 A 
ATOM     25  C   UNL     1      -2.648  11.605  18.695  0.00  0.00    +0.000 A 
ATOM     26  C   UNL     1      -1.765  10.768  18.013  0.00  0.00    +0.000 A 
ATOM     27  C   UNL     1      -2.207  10.156  16.709  0.00  0.00    +0.000 C 
ATOM     28  C   UNL     1      -0.488  10.497  18.569  0.00  0.00    +0.000 A 
ATOM     29  C   UNL     1       0.517   9.647  17.833  0.00  0.00    +0.000 C 
ENDBRANCH  21  22
ENDBRANCH  20  21
ENDBRANCH  19  20
ENDBRANCH  18  19
ENDBRANCH  17  18
ENDBRANCH   4  17
TORSDOF 10
ENDMDL
MODEL 4
REMARK VINA RESULT:      -7.5      1.500      4.512
REMARK  Name = 
REMARK  18 active torsions:
REMARK  status: ('A' for Active; 'I' for Inactive)
REMARK    1  A    between atoms: C_1  and  C_2
REMARK    2  A    between atoms: C_2  and  C_3
REMARK    3  A    between atoms: C_3  and  C_4
REMARK    4  A    between atoms: C_3  and  C_5
REMARK    5  A    between atoms: C_3  and  C_6
REMARK    6  A    between atoms: C_9  and  O_10
REMARK    7  A    between atoms: O_10  and  C_11
REMARK    8  A    between atoms: C_11  and  C_12
REMARK    9  A    between atoms: C_12  and  C_13
REMARK   10  A    between atoms: C_13  and  C_14
REMARK   11  A    between atoms: C_14  and  N_15
REMARK   12  A    between atoms: C_19  and  C_20
REMARK   13  A    between atoms: C_21  and  C_22
REMARK   14  A    between atoms: C_23  and  C_24
REMARK   15  A    between atoms: C_24  and  C_25
REMARK   16  A    between atoms: C_24  and  C_26
REMARK   17  A    between atoms: C_24  and  C_27
REMARK   18  A    between atoms: C_27  and  C_28
REMARK                            x       y       z     vdW  Elec       q    Type
REMARK                         _______ _______ _______ _____ _____    ______ ____
ROOT
ATOM      1  C   UNL     1       5.111   5.969  17.669  0.00  0.00    +0.000 A 
ATOM      2  C   UNL     1       4.460   7.186  17.544  0.00  0.00    +0.000 A 
ATOM      3  C   UNL     1       3.252   7.405  18.192  0.00  0.00    +0.000 A 
ATOM      4  C   UNL     1       2.662   6.436  19.024  0.00  0.00    +0.000 A 
ATOM      5  C   UNL     1       3.234   5.139  19.109  0.00  0.00    +0.000 A 
ATOM      6  C   UNL     1       4.450   4.953  18.396  0.00  0.00    +0.000 A 
ENDROOT
BRANCH   1   7
ATOM      7  C   UNL     1       6.508   5.735  17.075  0.00  0.00    +0.000 C 
ATOM      8  C   UNL     1       7.284   4.588  17.770  0.00  0.00    +0.000 C 
ATOM      9  C   UNL     1       7.350   7.016  17.262  0.00  0.00    +0.000 C 
BRANCH   7  11
ATOM     10  C   UNL     1       5.377   4.348  15.176  0.00  0.00    +0.000 C 
ATOM     11  C   UNL     1       6.405   5.416  15.551  0.00  0.00    +0.000 C 
ENDBRANCH   7  11
ENDBRANCH   1   7
BRANCH   5  12
ATOM     12  C   UNL     1       2.631   3.891  19.844  0.00  0.00    +0.000 C 
ATOM     13  C   UNL     1       2.345   4.134  21.342  0.00  0.00    +0.000 C 
ATOM     14  C   UNL     1       1.309   3.522  19.121  0.00  0.00    +0.000 C 
BRANCH  12  15
ATOM     15  C   UNL     1       3.580   2.624  19.777  0.00  0.00    +0.000 C 
ATOM     16  C   UNL     1       3.323   1.629  18.642  0.00  0.00    +0.000 C 
ENDBRANCH  12  15
ENDBRANCH   5  12
BRANCH   4  17
ATOM     17  O   UNL     1       1.500   6.761  19.692  0.00  0.00    +0.000 OA
BRANCH  17  18
ATOM     18  C   UNL     1       1.668   7.672  20.796  0.00  0.00    +0.000 C 
BRANCH  18  19
ATOM     19  C   UNL     1       0.359   8.382  21.143  0.00  0.00    +0.000 C 
BRANCH  19  20
ATOM     20  C   UNL     1       0.556   9.824  21.628  0.00  0.00    +0.000 C 
BRANCH  20  21
ATOM     21  C   UNL     1       0.864  10.796  20.496  0.00  0.00    +0.000 C 
BRANCH  21  22
ATOM     22  N   UNL     1      -0.375  11.088  19.729  0.00  0.00    +0.000 N 
ATOM     23  C   UNL     1      -1.295  11.900  20.309  0.00  0.00    +0.000 A 
ATOM     24  C   UNL     1      -2.525  12.134  19.725  0.00  0.00    +0.000 A 
ATOM     25  C   UNL     1      -2.836  11.502  18.539  0.00  0.00    +0.000 A 
ATOM     26  C   UNL     1      -1.903  10.663  17.928  0.00  0.00    +0.000 A 
ATOM     27  C   UNL     1      -2.297   9.941  16.665  0.00  0.00    +0.000 C 
ATOM     28  C   UNL     1      -0.624  10.495  18.516  0.00  0.00    +0.000 A 
ATOM     29  C   UNL     1       0.432   9.646  17.853  0.00  0.00    +0.000 C 
ENDBRANCH  21  22
ENDBRANCH  20  21
ENDBRANCH  19  20
ENDBRANCH  18  19
ENDBRANCH  17  18
ENDBRANCH   4  17
TORSDOF 10
ENDMDL
MODEL 5
REMARK VINA RESULT:      -7.5      2.246      3.324
REMARK  Name = 
REMARK  18 active torsions:
REMARK  status: ('A' for Active; 'I' for Inactive)
REMARK    1  A    between atoms: C_1  and  C_2
REMARK    2  A    between atoms: C_2  and  C_3
REMARK    3  A    between atoms: C_3  and  C_4
REMARK    4  A    between atoms: C_3  and  C_5
REMARK    5  A    between atoms: C_3  and  C_6
REMARK    6  A    between atoms: C_9  and  O_10
REMARK    7  A    between atoms: O_10  and  C_11
REMARK    8  A    between atoms: C_11  and  C_12
REMARK    9  A    between atoms: C_12  and  C_13
REMARK   10  A    between atoms: C_13  and  C_14
REMARK   11  A    between atoms: C_14  and  N_15
REMARK   12  A    between atoms: C_19  and  C_20
REMARK   13  A    between atoms: C_21  and  C_22
REMARK   14  A    between atoms: C_23  and  C_24
REMARK   15  A    between atoms: C_24  and  C_25
REMARK   16  A    between atoms: C_24  and  C_26
REMARK   17  A    between atoms: C_24  and  C_27
REMARK   18  A    between atoms: C_27  and  C_28
REMARK                            x       y       z     vdW  Elec       q    Type
REMARK                         _______ _______ _______ _____ _____    ______ ____
ROOT
ATOM      1  C   UNL     1       2.783   4.158  19.067  0.00  0.00    +0.000 A 
ATOM      2  C   UNL     1       2.053   5.177  19.657  0.00  0.00    +0.000 A 
ATOM      3  C   UNL     1       2.257   6.496  19.278  0.00  0.00    +0.000 A 
ATOM      4  C   UNL     1       3.168   6.852  18.266  0.00  0.00    +0.000 A 
ATOM      5  C   UNL     1       4.013   5.862  17.700  0.00  0.00    +0.000 A 
ATOM      6  C   UNL     1       3.791   4.532  18.150  0.00  0.00    +0.000 A 
ENDROOT
BRANCH   1   7
ATOM      7  C   UNL     1       2.495   2.679  19.367  0.00  0.00    +0.000 C 
ATOM      8  C   UNL     1       3.349   1.705  18.515  0.00  0.00    +0.000 C 
ATOM      9  C   UNL     1       1.017   2.381  19.031  0.00  0.00    +0.000 C 
BRANCH   7  11
ATOM     10  C   UNL     1       1.522   2.529  21.783  0.00  0.00    +0.000 C 
ATOM     11  C   UNL     1       2.743   2.370  20.876  0.00  0.00    +0.000 C 
ENDBRANCH   7  11
ENDBRANCH   1   7
BRANCH   5  12
ATOM     12  C   UNL     1       5.193   6.096  16.693  0.00  0.00    +0.000 C 
ATOM     13  C   UNL     1       4.791   6.922  15.451  0.00  0.00    +0.000 C 
ATOM     14  C   UNL     1       6.317   6.836  17.462  0.00  0.00    +0.000 C 
BRANCH  12  15
ATOM     15  C   UNL     1       5.804   4.742  16.141  0.00  0.00    +0.000 C 
ATOM     16  C   UNL     1       5.776   4.542  14.623  0.00  0.00    +0.000 C 
ENDBRANCH  12  15
ENDBRANCH   5  12
BRANCH   4  17
ATOM     17  O   UNL     1       3.255   8.178  17.896  0.00  0.00    +0.000 OA
BRANCH  17  18
ATOM     18  C   UNL     1       1.999   8.799  17.559  0.00  0.00    +0.000 C 
BRANCH  18  19
ATOM     19  C   UNL     1       1.447   9.620  18.725  0.00  0.00    +0.000 C 
BRANCH  19  20
ATOM     20  C   UNL     1       0.468  10.718  18.288  0.00  0.00    +0.000 C 
BRANCH  20  21
ATOM     21  C   UNL     1      -0.848  10.681  19.054  0.00  0.00    +0.000 C 
BRANCH  21  22
ATOM     22  N   UNL     1      -1.988  10.619  18.102  0.00  0.00    +0.000 N 
ATOM     23  C   UNL     1      -1.830   9.864  16.985  0.00  0.00    +0.000 A 
ATOM     24  C   UNL     1      -2.785   9.839  15.988  0.00  0.00    +0.000 A 
ATOM     25  C   UNL     1      -3.912  10.625  16.117  0.00  0.00    +0.000 A 
ATOM     26  C   UNL     1      -4.090  11.408  17.257  0.00  0.00    +0.000 A 
ATOM     27  C   UNL     1      -5.302  12.302  17.340  0.00  0.00    +0.000 C 
ATOM     28  C   UNL     1      -3.125  11.362  18.295  0.00  0.00    +0.000 A 
ATOM     29  C   UNL     1      -3.314  12.147  19.569  0.00  0.00    +0.000 C 
ENDBRANCH  21  22
ENDBRANCH  20  21
ENDBRANCH  19  20
ENDBRANCH  18  19
ENDBRANCH  17  18
ENDBRANCH   4  17
TORSDOF 10
ENDMDL
MODEL 6
REMARK VINA RESULT:      -7.4      0.647      1.009
REMARK  Name = 
REMARK  18 active torsions:
REMARK  status: ('A' for Active; 'I' for Inactive)
REMARK    1  A    between atoms: C_1  and  C_2
REMARK    2  A    between atoms: C_2  and  C_3
REMARK    3  A    between atoms: C_3  and  C_4
REMARK    4  A    between atoms: C_3  and  C_5
REMARK    5  A    between atoms: C_3  and  C_6
REMARK    6  A    between atoms: C_9  and  O_10
REMARK    7  A    between atoms: O_10  and  C_11
REMARK    8  A    between atoms: C_11  and  C_12
REMARK    9  A    between atoms: C_12  and  C_13
REMARK   10  A    between atoms: C_13  and  C_14
REMARK   11  A    between atoms: C_14  and  N_15
REMARK   12  A    between atoms: C_19  and  C_20
REMARK   13  A    between atoms: C_21  and  C_22
REMARK   14  A    between atoms: C_23  and  C_24
REMARK   15  A    between atoms: C_24  and  C_25
REMARK   16  A    between atoms: C_24  and  C_26
REMARK   17  A    between atoms: C_24  and  C_27
REMARK   18  A    between atoms: C_27  and  C_28
REMARK                            x       y       z     vdW  Elec       q    Type
REMARK                         _______ _______ _______ _____ _____    ______ ____
ROOT
ATOM      1  C   UNL     1       3.172   4.261  19.489  0.00  0.00    +0.000 A 
ATOM      2  C   UNL     1       2.292   5.288  19.790  0.00  0.00    +0.000 A 
ATOM      3  C   UNL     1       2.383   6.506  19.131  0.00  0.00    +0.000 A 
ATOM      4  C   UNL     1       3.328   6.739  18.115  0.00  0.00    +0.000 A 
ATOM      5  C   UNL     1       4.316   5.760  17.836  0.00  0.00    +0.000 A 
ATOM      6  C   UNL     1       4.204   4.544  18.566  0.00  0.00    +0.000 A 
ENDROOT
BRANCH   1   7
ATOM      7  C   UNL     1       3.022   2.861  20.102  0.00  0.00    +0.000 C 
ATOM      8  C   UNL     1       2.465   2.883  21.548  0.00  0.00    +0.000 C 
ATOM      9  C   UNL     1       4.414   2.196  20.174  0.00  0.00    +0.000 C 
BRANCH   7  11
ATOM     10  C   UNL     1       2.359   2.035  17.717  0.00  0.00    +0.000 C 
ATOM     11  C   UNL     1       2.085   1.978  19.221  0.00  0.00    +0.000 C 
ENDBRANCH   7  11
ENDBRANCH   1   7
BRANCH   5  12
ATOM     12  C   UNL     1       5.541   5.908  16.867  0.00  0.00    +0.000 C 
ATOM     13  C   UNL     1       5.155   6.399  15.454  0.00  0.00    +0.000 C 
ATOM     14  C   UNL     1       6.522   6.921  17.513  0.00  0.00    +0.000 C 
BRANCH  12  15
ATOM     15  C   UNL     1       6.327   4.548  16.660  0.00  0.00    +0.000 C 
ATOM     16  C   UNL     1       5.999   3.748  15.396  0.00  0.00    +0.000 C 
ENDBRANCH  12  15
ENDBRANCH   5  12
BRANCH   4  17
ATOM     17  O   UNL     1       3.300   7.951  17.457  0.00  0.00    +0.000 OA
BRANCH  17  18
ATOM     18  C   UNL     1       2.685   9.027  18.190  0.00  0.00    +0.000 C 
BRANCH  18  19
ATOM     19  C   UNL     1       1.246   9.268  17.734  0.00  0.00    +0.000 C 
BRANCH  19  20
ATOM     20  C   UNL     1       0.622  10.539  18.327  0.00  0.00    +0.000 C 
BRANCH  20  21
ATOM     21  C   UNL     1      -0.756  10.298  18.932  0.00  0.00    +0.000 C 
BRANCH  21  22
ATOM     22  N   UNL     1      -0.681  10.386  20.414  0.00  0.00    +0.000 N 
ATOM     23  C   UNL     1      -0.236   9.292  21.084  0.00  0.00    +0.000 A 
ATOM     24  C   UNL     1      -0.243   9.237  22.464  0.00  0.00    +0.000 A 
ATOM     25  C   UNL     1      -0.742  10.308  23.176  0.00  0.00    +0.000 A 
ATOM     26  C   UNL     1      -1.204  11.439  22.505  0.00  0.00    +0.000 A 
ATOM     27  C   UNL     1      -1.800  12.567  23.309  0.00  0.00    +0.000 C 
ATOM     28  C   UNL     1      -1.123  11.495  21.090  0.00  0.00    +0.000 A 
ATOM     29  C   UNL     1      -1.555  12.726  20.333  0.00  0.00    +0.000 C 
ENDBRANCH  21  22
ENDBRANCH  20  21
ENDBRANCH  19  20
ENDBRANCH  18  19
ENDBRANCH  17  18
ENDBRANCH   4  17
TORSDOF 10
ENDMDL
MODEL 7
REMARK VINA RESULT:      -7.4      1.562      4.693
REMARK  Name = 
REMARK  18 active torsions:
REMARK  status: ('A' for Active; 'I' for Inactive)
REMARK    1  A    between atoms: C_1  and  C_2
REMARK    2  A    between atoms: C_2  and  C_3
REMARK    3  A    between atoms: C_3  and  C_4
REMARK    4  A    between atoms: C_3  and  C_5
REMARK    5  A    between atoms: C_3  and  C_6
REMARK    6  A    between atoms: C_9  and  O_10
REMARK    7  A    between atoms: O_10  and  C_11
REMARK    8  A    between atoms: C_11  and  C_12
REMARK    9  A    between atoms: C_12  and  C_13
REMARK   10  A    between atoms: C_13  and  C_14
REMARK   11  A    between atoms: C_14  and  N_15
REMARK   12  A    between atoms: C_19  and  C_20
REMARK   13  A    between atoms: C_21  and  C_22
REMARK   14  A    between atoms: C_23  and  C_24
REMARK   15  A    between atoms: C_24  and  C_25
REMARK   16  A    between atoms: C_24  and  C_26
REMARK   17  A    between atoms: C_24  and  C_27
REMARK   18  A    between atoms: C_27  and  C_28
REMARK                            x       y       z     vdW  Elec       q    Type
REMARK                         _______ _______ _______ _____ _____    ______ ____
ROOT
ATOM      1  C   UNL     1       4.505   6.005  17.668  0.00  0.00    +0.000 A 
ATOM      2  C   UNL     1       3.862   7.231  17.729  0.00  0.00    +0.000 A 
ATOM      3  C   UNL     1       2.794   7.421  18.595  0.00  0.00    +0.000 A 
ATOM      4  C   UNL     1       2.347   6.410  19.466  0.00  0.00    +0.000 A 
ATOM      5  C   UNL     1       2.903   5.107  19.376  0.00  0.00    +0.000 A 
ATOM      6  C   UNL     1       3.968   4.954  18.446  0.00  0.00    +0.000 A 
ENDROOT
BRANCH   1   7
ATOM      7  C   UNL     1       5.768   5.795  16.820  0.00  0.00    +0.000 C 
ATOM      8  C   UNL     1       5.470   5.641  15.307  0.00  0.00    +0.000 C 
ATOM      9  C   UNL     1       6.460   4.490  17.270  0.00  0.00    +0.000 C 
BRANCH   7  11
ATOM     10  C   UNL     1       7.740   6.834  18.177  0.00  0.00    +0.000 C 
ATOM     11  C   UNL     1       6.758   6.985  17.014  0.00  0.00    +0.000 C 
ENDBRANCH   7  11
ENDBRANCH   1   7
BRANCH   5  12
ATOM     12  C   UNL     1       2.421   3.824  20.139  0.00  0.00    +0.000 C 
ATOM     13  C   UNL     1       3.300   2.582  19.874  0.00  0.00    +0.000 C 
ATOM     14  C   UNL     1       2.438   4.152  21.654  0.00  0.00    +0.000 C 
BRANCH  12  15
ATOM     15  C   UNL     1       0.942   3.404  19.758  0.00  0.00    +0.000 C 
ATOM     16  C   UNL     1       0.787   2.329  18.678  0.00  0.00    +0.000 C 
ENDBRANCH  12  15
ENDBRANCH   5  12
BRANCH   4  17
ATOM     17  O   UNL     1       1.330   6.706  20.349  0.00  0.00    +0.000 OA
BRANCH  17  18
ATOM     18  C   UNL     1       1.485   7.948  21.062  0.00  0.00    +0.000 C 
BRANCH  18  19
ATOM     19  C   UNL     1       0.140   8.489  21.548  0.00  0.00    +0.000 C 
BRANCH  19  20
ATOM     20  C   UNL     1      -0.112   9.949  21.149  0.00  0.00    +0.000 C 
BRANCH  20  21
ATOM     21  C   UNL     1      -0.470  10.111  19.677  0.00  0.00    +0.000 C 
BRANCH  21  22
ATOM     22  N   UNL     1       0.232  11.292  19.111  0.00  0.00    +0.000 N 
ATOM     23  C   UNL     1       1.516  11.121  18.705  0.00  0.00    +0.000 A 
ATOM     24  C   UNL     1       2.287  12.184  18.276  0.00  0.00    +0.000 A 
ATOM     25  C   UNL     1       1.747  13.453  18.290  0.00  0.00    +0.000 A 
ATOM     26  C   UNL     1       0.429  13.648  18.704  0.00  0.00    +0.000 A 
ATOM     27  C   UNL     1      -0.111  15.054  18.766  0.00  0.00    +0.000 C 
ATOM     28  C   UNL     1      -0.359  12.529  19.076  0.00  0.00    +0.000 A 
ATOM     29  C   UNL     1      -1.806  12.693  19.470  0.00  0.00    +0.000 C 
ENDBRANCH  21  22
ENDBRANCH  20  21
ENDBRANCH  19  20
ENDBRANCH  18  19
ENDBRANCH  17  18
ENDBRANCH   4  17
TORSDOF 10
ENDMDL
MODEL 8
REMARK VINA RESULT:      -7.4      0.844      1.661
REMARK  Name = 
REMARK  18 active torsions:
REMARK  status: ('A' for Active; 'I' for Inactive)
REMARK    1  A    between atoms: C_1  and  C_2
REMARK    2  A    between atoms: C_2  and  C_3
REMARK    3  A    between atoms: C_3  and  C_4
REMARK    4  A    between atoms: C_3  and  C_5
REMARK    5  A    between atoms: C_3  and  C_6
REMARK    6  A    between atoms: C_9  and  O_10
REMARK    7  A    between atoms: O_10  and  C_11
REMARK    8  A    between atoms: C_11  and  C_12
REMARK    9  A    between atoms: C_12  and  C_13
REMARK   10  A    between atoms: C_13  and  C_14
REMARK   11  A    between atoms: C_14  and  N_15
REMARK   12  A    between atoms: C_19  and  C_20
REMARK   13  A    between atoms: C_21  and  C_22
REMARK   14  A    between atoms: C_23  and  C_24
REMARK   15  A    between atoms: C_24  and  C_25
REMARK   16  A    between atoms: C_24  and  C_26
REMARK   17  A    between atoms: C_24  and  C_27
REMARK   18  A    between atoms: C_27  and  C_28
REMARK                            x       y       z     vdW  Elec       q    Type
REMARK                         _______ _______ _______ _____ _____    ______ ____
ROOT
ATOM      1  C   UNL     1       2.790   4.486  19.588  0.00  0.00    +0.000 A 
ATOM      2  C   UNL     1       2.054   5.556  20.073  0.00  0.00    +0.000 A 
ATOM      3  C   UNL     1       2.255   6.832  19.567  0.00  0.00    +0.000 A 
ATOM      4  C   UNL     1       3.169   7.091  18.529  0.00  0.00    +0.000 A 
ATOM      5  C   UNL     1       4.019   6.053  18.065  0.00  0.00    +0.000 A 
ATOM      6  C   UNL     1       3.800   4.772  18.642  0.00  0.00    +0.000 A 
ENDROOT
BRANCH   1   7
ATOM      7  C   UNL     1       2.505   3.043  20.030  0.00  0.00    +0.000 C 
ATOM      8  C   UNL     1       1.219   2.453  19.398  0.00  0.00    +0.000 C 
ATOM      9  C   UNL     1       2.298   3.021  21.560  0.00  0.00    +0.000 C 
BRANCH   7  11
ATOM     10  C   UNL     1       3.611   1.419  18.312  0.00  0.00    +0.000 C 
ATOM     11  C   UNL     1       3.708   2.116  19.669  0.00  0.00    +0.000 C 
ENDBRANCH   7  11
ENDBRANCH   1   7
BRANCH   5  12
ATOM     12  C   UNL     1       5.202   6.192  17.044  0.00  0.00    +0.000 C 
ATOM     13  C   UNL     1       5.772   4.836  16.572  0.00  0.00    +0.000 C 
ATOM     14  C   UNL     1       4.668   6.980  15.821  0.00  0.00    +0.000 C 
BRANCH  12  15
ATOM     15  C   UNL     1       6.429   7.002  17.635  0.00  0.00    +0.000 C 
ATOM     16  C   UNL     1       7.589   6.179  18.203  0.00  0.00    +0.000 C 
ENDBRANCH  12  15
ENDBRANCH   5  12
BRANCH   4  17
ATOM     17  O   UNL     1       3.253   8.375  18.032  0.00  0.00    +0.000 OA
BRANCH  17  18
ATOM     18  C   UNL     1       1.990   8.981  17.696  0.00  0.00    +0.000 C 
BRANCH  18  19
ATOM     19  C   UNL     1       2.021  10.496  17.899  0.00  0.00    +0.000 C 
BRANCH  19  20
ATOM     20  C   UNL     1       0.848  11.024  18.736  0.00  0.00    +0.000 C 
BRANCH  20  21
ATOM     21  C   UNL     1       1.298  11.775  19.983  0.00  0.00    +0.000 C 
BRANCH  21  22
ATOM     22  N   UNL     1       0.591  11.243  21.177  0.00  0.00    +0.000 N 
ATOM     23  C   UNL     1       0.946  10.009  21.617  0.00  0.00    +0.000 A 
ATOM     24  C   UNL     1       0.267   9.384  22.645  0.00  0.00    +0.000 A 
ATOM     25  C   UNL     1      -0.817  10.017  23.216  0.00  0.00    +0.000 A 
ATOM     26  C   UNL     1      -1.197  11.285  22.776  0.00  0.00    +0.000 A 
ATOM     27  C   UNL     1      -2.423  11.924  23.379  0.00  0.00    +0.000 C 
ATOM     28  C   UNL     1      -0.440  11.931  21.766  0.00  0.00    +0.000 A 
ATOM     29  C   UNL     1      -0.783  13.327  21.309  0.00  0.00    +0.000 C 
ENDBRANCH  21  22
ENDBRANCH  20  21
ENDBRANCH  19  20
ENDBRANCH  18  19
ENDBRANCH  17  18
ENDBRANCH   4  17
TORSDOF 10
ENDMDL
MODEL 9
REMARK VINA RESULT:      -7.3      0.949      2.147
REMARK  Name = 
REMARK  18 active torsions:
REMARK  status: ('A' for Active; 'I' for Inactive)
REMARK    1  A    between atoms: C_1  and  C_2
REMARK    2  A    between atoms: C_2  and  C_3
REMARK    3  A    between atoms: C_3  and  C_4
REMARK    4  A    between atoms: C_3  and  C_5
REMARK    5  A    between atoms: C_3  and  C_6
REMARK    6  A    between atoms: C_9  and  O_10
REMARK    7  A    between atoms: O_10  and  C_11
REMARK    8  A    between atoms: C_11  and  C_12
REMARK    9  A    between atoms: C_12  and  C_13
REMARK   10  A    between atoms: C_13  and  C_14
REMARK   11  A    between atoms: C_14  and  N_15
REMARK   12  A    between atoms: C_19  and  C_20
REMARK   13  A    between atoms: C_21  and  C_22
REMARK   14  A    between atoms: C_23  and  C_24
REMARK   15  A    between atoms: C_24  and  C_25
REMARK   16  A    between atoms: C_24  and  C_26
REMARK   17  A    between atoms: C_24  and  C_27
REMARK   18  A    between atoms: C_27  and  C_28
REMARK                            x       y       z     vdW  Elec       q    Type
REMARK                         _______ _______ _______ _____ _____    ______ ____
ROOT
ATOM      1  C   UNL     1       2.819   4.146  19.060  0.00  0.00    +0.000 A 
ATOM      2  C   UNL     1       2.094   5.173  19.644  0.00  0.00    +0.000 A 
ATOM      3  C   UNL     1       2.299   6.488  19.251  0.00  0.00    +0.000 A 
ATOM      4  C   UNL     1       3.203   6.832  18.230  0.00  0.00    +0.000 A 
ATOM      5  C   UNL     1       4.042   5.835  17.667  0.00  0.00    +0.000 A 
ATOM      6  C   UNL     1       3.821   4.509  18.132  0.00  0.00    +0.000 A 
ENDROOT
BRANCH   1   7
ATOM      7  C   UNL     1       2.530   2.671  19.376  0.00  0.00    +0.000 C 
ATOM      8  C   UNL     1       3.405   1.688  18.558  0.00  0.00    +0.000 C 
ATOM      9  C   UNL     1       1.060   2.362  19.013  0.00  0.00    +0.000 C 
BRANCH   7  11
ATOM     10  C   UNL     1       1.516   2.591  21.779  0.00  0.00    +0.000 C 
ATOM     11  C   UNL     1       2.746   2.387  20.894  0.00  0.00    +0.000 C 
ENDBRANCH   7  11
ENDBRANCH   1   7
BRANCH   5  12
ATOM     12  C   UNL     1       5.216   6.056  16.650  0.00  0.00    +0.000 C 
ATOM     13  C   UNL     1       4.828   6.935  15.442  0.00  0.00    +0.000 C 
ATOM     14  C   UNL     1       6.378   6.729  17.425  0.00  0.00    +0.000 C 
BRANCH  12  15
ATOM     15  C   UNL     1       5.768   4.699  16.048  0.00  0.00    +0.000 C 
ATOM     16  C   UNL     1       6.885   4.811  15.005  0.00  0.00    +0.000 C 
ENDBRANCH  12  15
ENDBRANCH   5  12
BRANCH   4  17
ATOM     17  O   UNL     1       3.290   8.154  17.846  0.00  0.00    +0.000 OA
BRANCH  17  18
ATOM     18  C   UNL     1       2.031   8.782  17.539  0.00  0.00    +0.000 C 
BRANCH  18  19
ATOM     19  C   UNL     1       1.778  10.001  18.427  0.00  0.00    +0.000 C 
BRANCH  19  20
ATOM     20  C   UNL     1       0.842   9.712  19.608  0.00  0.00    +0.000 C 
BRANCH  20  21
ATOM     21  C   UNL     1       0.960  10.740  20.726  0.00  0.00    +0.000 C 
BRANCH  21  22
ATOM     22  N   UNL     1      -0.331  11.458  20.893  0.00  0.00    +0.000 N 
ATOM     23  C   UNL     1      -0.695  12.326  19.916  0.00  0.00    +0.000 A 
ATOM     24  C   UNL     1      -1.816  13.124  20.037  0.00  0.00    +0.000 A 
ATOM     25  C   UNL     1      -2.565  13.058  21.194  0.00  0.00    +0.000 A 
ATOM     26  C   UNL     1      -2.206  12.172  22.209  0.00  0.00    +0.000 A 
ATOM     27  C   UNL     1      -3.010  12.167  23.484  0.00  0.00    +0.000 C 
ATOM     28  C   UNL     1      -1.089  11.317  22.028  0.00  0.00    +0.000 A 
ATOM     29  C   UNL     1      -0.707  10.302  23.077  0.00  0.00    +0.000 C 
ENDBRANCH  21  22
ENDBRANCH  20  21
ENDBRANCH  19  20
ENDBRANCH  18  19
ENDBRANCH  17  18
ENDBRANCH   4  17
TORSDOF 10
ENDMDL
