MODEL 1
REMARK VINA RESULT:      -6.1      0.000      0.000
REMARK  Name = 
REMARK  5 active torsions:
REMARK  status: ('A' for Active; 'I' for Inactive)
REMARK    1  A    between atoms: C_1  and  C_2
REMARK    2  A    between atoms: C_6  and  C_7
REMARK    3  A    between atoms: C_8  and  C_9
REMARK    4  A    between atoms: N_11  and  C_12
REMARK    5  A    between atoms: C_16  and  O_17
REMARK                            x       y       z     vdW  Elec       q    Type
REMARK                         _______ _______ _______ _____ _____    ______ ____
ROOT
ATOM      1  C   UNL     1       2.785   7.164  18.311  0.00  0.00    +0.000 C 
ATOM      2  O   UNL     1       2.629   7.153  19.528  0.00  0.00    +0.000 OA
ATOM      3  N   UNL     1       2.309   8.152  17.466  0.00  0.00    +0.000 N 
ATOM      4  H   UNL     1       2.429   8.000  16.468  0.00  0.00    +0.000 HD
ENDROOT
BRANCH   1  12
ATOM      5  C   UNL     1       5.684   7.383  17.355  0.00  0.00    +0.000 C 
ATOM      6  C   UNL     1       4.879   6.114  17.295  0.00  0.00    +0.000 A 
ATOM      7  C   UNL     1       5.545   4.959  16.835  0.00  0.00    +0.000 A 
ATOM      8  C   UNL     1       4.903   3.724  16.793  0.00  0.00    +0.000 A 
ATOM      9  C   UNL     1       3.573   3.623  17.178  0.00  0.00    +0.000 A 
ATOM     10  C   UNL     1       2.865   4.757  17.615  0.00  0.00    +0.000 A 
ATOM     11  C   UNL     1       1.420   4.559  18.007  0.00  0.00    +0.000 C 
ATOM     12  C   UNL     1       3.522   6.014  17.692  0.00  0.00    +0.000 A 
ENDBRANCH   1  12
BRANCH   3  13
ATOM     13  C   UNL     1       1.580   9.313  17.839  0.00  0.00    +0.000 A 
ATOM     14  C   UNL     1       2.177  10.484  18.318  0.00  0.00    +0.000 A 
ATOM     15  C   UNL     1       1.399  11.567  18.736  0.00  0.00    +0.000 A 
ATOM     16 BR   UNL     1       2.267  13.114  19.410  0.00  0.00    +0.000 Br
ATOM     17  C   UNL     1       0.008  11.505  18.672  0.00  0.00    +0.000 A 
ATOM     18  C   UNL     1      -0.598  10.356  18.163  0.00  0.00    +0.000 A 
ATOM     19 BR   UNL     1      -2.487  10.208  18.043  0.00  0.00    +0.000 Br
ATOM     20  C   UNL     1       0.182   9.268  17.744  0.00  0.00    +0.000 A 
BRANCH  17  21
ATOM     21  O   UNL     1      -0.765  12.551  19.106  0.00  0.00    +0.000 OA
ATOM     22  H   UNL     1      -0.231  13.077  19.727  0.00  0.00    +0.000 HD
ENDBRANCH  17  21
ENDBRANCH   3  13
TORSDOF 3
ENDMDL
MODEL 2
REMARK VINA RESULT:      -6.1      3.464      6.939
REMARK  Name = 
REMARK  5 active torsions:
REMARK  status: ('A' for Active; 'I' for Inactive)
REMARK    1  A    between atoms: C_1  and  C_2
REMARK    2  A    between atoms: C_6  and  C_7
REMARK    3  A    between atoms: C_8  and  C_9
REMARK    4  A    between atoms: N_11  and  C_12
REMARK    5  A    between atoms: C_16  and  O_17
REMARK                            x       y       z     vdW  Elec       q    Type
REMARK                         _______ _______ _______ _____ _____    ______ ____
ROOT
ATOM      1  C   UNL     1       1.238   9.136  19.155  0.00  0.00    +0.000 C 
ATOM      2  O   UNL     1       0.829   9.156  17.998  0.00  0.00    +0.000 OA
ATOM      3  N   UNL     1       2.040   8.142  19.689  0.00  0.00    +0.000 N 
ATOM      4  H   UNL     1       2.238   8.196  20.685  0.00  0.00    +0.000 HD
ENDROOT
BRANCH   1  12
ATOM      5  C   UNL     1       1.938  12.064  18.600  0.00  0.00    +0.000 C 
ATOM      6  C   UNL     1       1.110  11.611  19.772  0.00  0.00    +0.000 A 
ATOM      7  C   UNL     1       0.580  12.619  20.603  0.00  0.00    +0.000 A 
ATOM      8  C   UNL     1      -0.243  12.306  21.683  0.00  0.00    +0.000 A 
ATOM      9  C   UNL     1      -0.527  10.978  21.972  0.00  0.00    +0.000 A 
ATOM     10  C   UNL     1       0.006   9.943  21.184  0.00  0.00    +0.000 A 
ATOM     11  C   UNL     1      -0.347   8.527  21.575  0.00  0.00    +0.000 C 
ATOM     12  C   UNL     1       0.820  10.255  20.063  0.00  0.00    +0.000 A 
ENDBRANCH   1  12
BRANCH   3  13
ATOM     13  C   UNL     1       2.536   6.994  19.013  0.00  0.00    +0.000 A 
ATOM     14  C   UNL     1       3.550   7.039  18.050  0.00  0.00    +0.000 A 
ATOM     15  C   UNL     1       3.945   5.883  17.370  0.00  0.00    +0.000 A 
ATOM     16 BR   UNL     1       5.300   6.015  16.049  0.00  0.00    +0.000 Br
ATOM     17  C   UNL     1       3.341   4.658  17.648  0.00  0.00    +0.000 A 
ATOM     18  C   UNL     1       2.353   4.595  18.631  0.00  0.00    +0.000 A 
ATOM     19 BR   UNL     1       1.495   2.957  19.063  0.00  0.00    +0.000 Br
ATOM     20  C   UNL     1       1.956   5.754  19.315  0.00  0.00    +0.000 A 
BRANCH  17  21
ATOM     21  O   UNL     1       3.701   3.525  16.966  0.00  0.00    +0.000 OA
ATOM     22  H   UNL     1       3.952   2.851  17.622  0.00  0.00    +0.000 HD
ENDBRANCH  17  21
ENDBRANCH   3  13
TORSDOF 3
ENDMDL
MODEL 3
REMARK VINA RESULT:      -6.1      0.170      1.964
REMARK  Name = 
REMARK  5 active torsions:
REMARK  status: ('A' for Active; 'I' for Inactive)
REMARK    1  A    between atoms: C_1  and  C_2
REMARK    2  A    between atoms: C_6  and  C_7
REMARK    3  A    between atoms: C_8  and  C_9
REMARK    4  A    between atoms: N_11  and  C_12
REMARK    5  A    between atoms: C_16  and  O_17
REMARK                            x       y       z     vdW  Elec       q    Type
REMARK                         _______ _______ _______ _____ _____    ______ ____
ROOT
ATOM      1  C   UNL     1       2.722   7.138  18.446  0.00  0.00    +0.000 C 
ATOM      2  O   UNL     1       2.566   7.185  19.662  0.00  0.00    +0.000 OA
ATOM      3  N   UNL     1       2.268   8.098  17.556  0.00  0.00    +0.000 N 
ATOM      4  H   UNL     1       2.384   7.898  16.566  0.00  0.00    +0.000 HD
ENDROOT
BRANCH   1  12
ATOM      5  C   UNL     1       1.423   4.372  18.264  0.00  0.00    +0.000 C 
ATOM      6  C   UNL     1       2.805   4.680  17.758  0.00  0.00    +0.000 A 
ATOM      7  C   UNL     1       3.490   3.636  17.102  0.00  0.00    +0.000 A 
ATOM      8  C   UNL     1       4.753   3.836  16.549  0.00  0.00    +0.000 A 
ATOM      9  C   UNL     1       5.371   5.073  16.669  0.00  0.00    +0.000 A 
ATOM     10  C   UNL     1       4.734   6.131  17.340  0.00  0.00    +0.000 A 
ATOM     11  C   UNL     1       5.482   7.440  17.431  0.00  0.00    +0.000 C 
ATOM     12  C   UNL     1       3.433   5.945  17.879  0.00  0.00    +0.000 A 
ENDBRANCH   1  12
BRANCH   3  13
ATOM     13  C   UNL     1       1.565   9.290  17.877  0.00  0.00    +0.000 A 
ATOM     14  C   UNL     1       2.190  10.473  18.286  0.00  0.00    +0.000 A 
ATOM     15  C   UNL     1       1.438  11.592  18.656  0.00  0.00    +0.000 A 
ATOM     16 BR   UNL     1       2.343  13.155  19.236  0.00  0.00    +0.000 Br
ATOM     17  C   UNL     1       0.045  11.553  18.612  0.00  0.00    +0.000 A 
ATOM     18  C   UNL     1      -0.589  10.390  18.172  0.00  0.00    +0.000 A 
ATOM     19 BR   UNL     1      -2.482  10.272  18.083  0.00  0.00    +0.000 Br
ATOM     20  C   UNL     1       0.165   9.267  17.801  0.00  0.00    +0.000 A 
BRANCH  17  21
ATOM     21  O   UNL     1      -0.702  12.635  19.000  0.00  0.00    +0.000 OA
ATOM     22  H   UNL     1      -1.412  12.755  18.345  0.00  0.00    +0.000 HD
ENDBRANCH  17  21
ENDBRANCH   3  13
TORSDOF 3
ENDMDL
MODEL 4
REMARK VINA RESULT:      -6.1      1.729      1.757
REMARK  Name = 
REMARK  5 active torsions:
REMARK  status: ('A' for Active; 'I' for Inactive)
REMARK    1  A    between atoms: C_1  and  C_2
REMARK    2  A    between atoms: C_6  and  C_7
REMARK    3  A    between atoms: C_8  and  C_9
REMARK    4  A    between atoms: N_11  and  C_12
REMARK    5  A    between atoms: C_16  and  O_17
REMARK                            x       y       z     vdW  Elec       q    Type
REMARK                         _______ _______ _______ _____ _____    ______ ____
ROOT
ATOM      1  C   UNL     1       2.825   6.751  18.811  0.00  0.00    +0.000 C 
ATOM      2  O   UNL     1       2.980   6.583  20.017  0.00  0.00    +0.000 OA
ATOM      3  N   UNL     1       2.195   7.845  18.243  0.00  0.00    +0.000 N 
ATOM      4  H   UNL     1       2.053   7.823  17.237  0.00  0.00    +0.000 HD
ENDROOT
BRANCH   1  12
ATOM      5  C   UNL     1       5.372   7.082  17.146  0.00  0.00    +0.000 C 
ATOM      6  C   UNL     1       4.538   5.830  17.156  0.00  0.00    +0.000 A 
ATOM      7  C   UNL     1       5.019   4.739  16.404  0.00  0.00    +0.000 A 
ATOM      8  C   UNL     1       4.348   3.518  16.391  0.00  0.00    +0.000 A 
ATOM      9  C   UNL     1       3.166   3.373  17.104  0.00  0.00    +0.000 A 
ATOM     10  C   UNL     1       2.638   4.446  17.843  0.00  0.00    +0.000 A 
ATOM     11  C   UNL     1       1.343   4.203  18.582  0.00  0.00    +0.000 C 
ATOM     12  C   UNL     1       3.333   5.684  17.887  0.00  0.00    +0.000 A 
ENDBRANCH   1  12
BRANCH   3  13
ATOM     13  C   UNL     1       1.633   8.955  18.931  0.00  0.00    +0.000 A 
ATOM     14  C   UNL     1       1.630  10.260  18.426  0.00  0.00    +0.000 A 
ATOM     15  C   UNL     1       1.125  11.321  19.183  0.00  0.00    +0.000 A 
ATOM     16 BR   UNL     1       1.182  13.073  18.459  0.00  0.00    +0.000 Br
ATOM     17  C   UNL     1       0.601  11.095  20.455  0.00  0.00    +0.000 A 
ATOM     18  C   UNL     1       0.566   9.793  20.954  0.00  0.00    +0.000 A 
ATOM     19 BR   UNL     1      -0.139   9.416  22.677  0.00  0.00    +0.000 Br
ATOM     20  C   UNL     1       1.073   8.727  20.196  0.00  0.00    +0.000 A 
BRANCH  17  21
ATOM     21  O   UNL     1       0.129  12.133  21.217  0.00  0.00    +0.000 OA
ATOM     22  H   UNL     1       0.806  12.345  21.882  0.00  0.00    +0.000 HD
ENDBRANCH  17  21
ENDBRANCH   3  13
TORSDOF 3
ENDMDL
MODEL 5
REMARK VINA RESULT:      -6.1      3.933      7.621
REMARK  Name = 
REMARK  5 active torsions:
REMARK  status: ('A' for Active; 'I' for Inactive)
REMARK    1  A    between atoms: C_1  and  C_2
REMARK    2  A    between atoms: C_6  and  C_7
REMARK    3  A    between atoms: C_8  and  C_9
REMARK    4  A    between atoms: N_11  and  C_12
REMARK    5  A    between atoms: C_16  and  O_17
REMARK                            x       y       z     vdW  Elec       q    Type
REMARK                         _______ _______ _______ _____ _____    ______ ____
ROOT
ATOM      1  C   UNL     1       0.092   8.580  20.905  0.00  0.00    +0.000 C 
ATOM      2  O   UNL     1      -0.674   7.680  21.234  0.00  0.00    +0.000 OA
ATOM      3  N   UNL     1       1.336   8.384  20.329  0.00  0.00    +0.000 N 
ATOM      4  H   UNL     1       1.911   9.209  20.184  0.00  0.00    +0.000 HD
ENDROOT
BRANCH   1  12
ATOM      5  C   UNL     1      -0.764  10.486  18.667  0.00  0.00    +0.000 C 
ATOM      6  C   UNL     1      -0.777  10.852  20.126  0.00  0.00    +0.000 A 
ATOM      7  C   UNL     1      -1.284  12.125  20.458  0.00  0.00    +0.000 A 
ATOM      8  C   UNL     1      -1.388  12.538  21.785  0.00  0.00    +0.000 A 
ATOM      9  C   UNL     1      -0.958  11.700  22.804  0.00  0.00    +0.000 A 
ATOM     10  C   UNL     1      -0.418  10.434  22.513  0.00  0.00    +0.000 A 
ATOM     11  C   UNL     1       0.033   9.591  23.682  0.00  0.00    +0.000 C 
ATOM     12  C   UNL     1      -0.338   9.993  21.165  0.00  0.00    +0.000 A 
ENDBRANCH   1  12
BRANCH   3  13
ATOM     13  C   UNL     1       1.939   7.137  20.011  0.00  0.00    +0.000 A 
ATOM     14  C   UNL     1       1.740   5.967  20.754  0.00  0.00    +0.000 A 
ATOM     15  C   UNL     1       2.418   4.788  20.431  0.00  0.00    +0.000 A 
ATOM     16 BR   UNL     1       2.135   3.246  21.497  0.00  0.00    +0.000 Br
ATOM     17  C   UNL     1       3.299   4.753  19.351  0.00  0.00    +0.000 A 
ATOM     18  C   UNL     1       3.478   5.903  18.581  0.00  0.00    +0.000 A 
ATOM     19 BR   UNL     1       4.659   5.921  17.094  0.00  0.00    +0.000 Br
ATOM     20  C   UNL     1       2.799   7.087  18.905  0.00  0.00    +0.000 A 
BRANCH  17  21
ATOM     21  O   UNL     1       3.990   3.610  19.043  0.00  0.00    +0.000 OA
ATOM     22  H   UNL     1       3.480   2.854  19.383  0.00  0.00    +0.000 HD
ENDBRANCH  17  21
ENDBRANCH   3  13
TORSDOF 3
ENDMDL
MODEL 6
REMARK VINA RESULT:      -6.1      1.800      2.176
REMARK  Name = 
REMARK  5 active torsions:
REMARK  status: ('A' for Active; 'I' for Inactive)
REMARK    1  A    between atoms: C_1  and  C_2
REMARK    2  A    between atoms: C_6  and  C_7
REMARK    3  A    between atoms: C_8  and  C_9
REMARK    4  A    between atoms: N_11  and  C_12
REMARK    5  A    between atoms: C_16  and  O_17
REMARK                            x       y       z     vdW  Elec       q    Type
REMARK                         _______ _______ _______ _____ _____    ______ ____
ROOT
ATOM      1  C   UNL     1       2.882   6.641  18.905  0.00  0.00    +0.000 C 
ATOM      2  O   UNL     1       3.117   6.443  20.093  0.00  0.00    +0.000 OA
ATOM      3  N   UNL     1       2.191   7.736  18.412  0.00  0.00    +0.000 N 
ATOM      4  H   UNL     1       1.986   7.739  17.416  0.00  0.00    +0.000 HD
ENDROOT
BRANCH   1  12
ATOM      5  C   UNL     1       5.403   7.016  17.209  0.00  0.00    +0.000 C 
ATOM      6  C   UNL     1       4.548   5.779  17.173  0.00  0.00    +0.000 A 
ATOM      7  C   UNL     1       4.997   4.720  16.357  0.00  0.00    +0.000 A 
ATOM      8  C   UNL     1       4.305   3.512  16.296  0.00  0.00    +0.000 A 
ATOM      9  C   UNL     1       3.135   3.349  17.023  0.00  0.00    +0.000 A 
ATOM     10  C   UNL     1       2.638   4.392  17.826  0.00  0.00    +0.000 A 
ATOM     11  C   UNL     1       1.354   4.132  18.576  0.00  0.00    +0.000 C 
ATOM     12  C   UNL     1       3.354   5.615  17.919  0.00  0.00    +0.000 A 
ENDBRANCH   1  12
BRANCH   3  13
ATOM     13  C   UNL     1       1.649   8.810  19.167  0.00  0.00    +0.000 A 
ATOM     14  C   UNL     1       1.087   8.658  20.439  0.00  0.00    +0.000 A 
ATOM     15  C   UNL     1       0.505   9.743  21.101  0.00  0.00    +0.000 A 
ATOM     16 BR   UNL     1      -0.273   9.465  22.809  0.00  0.00    +0.000 Br
ATOM     17  C   UNL     1       0.485  11.005  20.509  0.00  0.00    +0.000 A 
ATOM     18  C   UNL     1       1.074  11.176  19.256  0.00  0.00    +0.000 A 
ATOM     19 BR   UNL     1       1.086  12.869  18.395  0.00  0.00    +0.000 Br
ATOM     20  C   UNL     1       1.658  10.088  18.590  0.00  0.00    +0.000 A 
BRANCH  17  21
ATOM     21  O   UNL     1      -0.107  12.069  21.138  0.00  0.00    +0.000 OA
ATOM     22  H   UNL     1      -0.880  11.733  21.624  0.00  0.00    +0.000 HD
ENDBRANCH  17  21
ENDBRANCH   3  13
TORSDOF 3
ENDMDL
MODEL 7
REMARK VINA RESULT:      -6.0      0.204      2.111
REMARK  Name = 
REMARK  5 active torsions:
REMARK  status: ('A' for Active; 'I' for Inactive)
REMARK    1  A    between atoms: C_1  and  C_2
REMARK    2  A    between atoms: C_6  and  C_7
REMARK    3  A    between atoms: C_8  and  C_9
REMARK    4  A    between atoms: N_11  and  C_12
REMARK    5  A    between atoms: C_16  and  O_17
REMARK                            x       y       z     vdW  Elec       q    Type
REMARK                         _______ _______ _______ _____ _____    ______ ____
ROOT
ATOM      1  C   UNL     1       2.763   7.165  18.336  0.00  0.00    +0.000 C 
ATOM      2  O   UNL     1       2.614   7.139  19.554  0.00  0.00    +0.000 OA
ATOM      3  N   UNL     1       2.265   8.152  17.503  0.00  0.00    +0.000 N 
ATOM      4  H   UNL     1       2.383   8.012  16.503  0.00  0.00    +0.000 HD
ENDROOT
BRANCH   1  12
ATOM      5  C   UNL     1       5.661   7.441  17.389  0.00  0.00    +0.000 C 
ATOM      6  C   UNL     1       4.875   6.162  17.309  0.00  0.00    +0.000 A 
ATOM      7  C   UNL     1       5.559   5.024  16.835  0.00  0.00    +0.000 A 
ATOM      8  C   UNL     1       4.936   3.779  16.773  0.00  0.00    +0.000 A 
ATOM      9  C   UNL     1       3.608   3.653  17.154  0.00  0.00    +0.000 A 
ATOM     10  C   UNL     1       2.882   4.770  17.606  0.00  0.00    +0.000 A 
ATOM     11  C   UNL     1       1.439   4.545  17.992  0.00  0.00    +0.000 C 
ATOM     12  C   UNL     1       3.519   6.035  17.702  0.00  0.00    +0.000 A 
ENDBRANCH   1  12
BRANCH   3  13
ATOM     13  C   UNL     1       1.516   9.295  17.891  0.00  0.00    +0.000 A 
ATOM     14  C   UNL     1       0.117   9.332  17.922  0.00  0.00    +0.000 A 
ATOM     15  C   UNL     1      -0.563  10.510  18.246  0.00  0.00    +0.000 A 
ATOM     16 BR   UNL     1      -2.460  10.506  18.235  0.00  0.00    +0.000 Br
ATOM     17  C   UNL     1       0.143  11.671  18.557  0.00  0.00    +0.000 A 
ATOM     18  C   UNL     1       1.538  11.637  18.564  0.00  0.00    +0.000 A 
ATOM     19 BR   UNL     1       2.560  13.181  18.985  0.00  0.00    +0.000 Br
ATOM     20  C   UNL     1       2.221  10.455  18.239  0.00  0.00    +0.000 A 
BRANCH  17  21
ATOM     21  O   UNL     1      -0.514  12.838  18.848  0.00  0.00    +0.000 OA
ATOM     22  H   UNL     1       0.078  13.576  18.623  0.00  0.00    +0.000 HD
ENDBRANCH  17  21
ENDBRANCH   3  13
TORSDOF 3
ENDMDL
MODEL 8
REMARK VINA RESULT:      -6.0      3.437      7.142
REMARK  Name = 
REMARK  5 active torsions:
REMARK  status: ('A' for Active; 'I' for Inactive)
REMARK    1  A    between atoms: C_1  and  C_2
REMARK    2  A    between atoms: C_6  and  C_7
REMARK    3  A    between atoms: C_8  and  C_9
REMARK    4  A    between atoms: N_11  and  C_12
REMARK    5  A    between atoms: C_16  and  O_17
REMARK                            x       y       z     vdW  Elec       q    Type
REMARK                         _______ _______ _______ _____ _____    ______ ____
ROOT
ATOM      1  C   UNL     1       1.275   9.146  19.003  0.00  0.00    +0.000 C 
ATOM      2  O   UNL     1       0.785   9.103  17.879  0.00  0.00    +0.000 OA
ATOM      3  N   UNL     1       2.101   8.172  19.540  0.00  0.00    +0.000 N 
ATOM      4  H   UNL     1       2.369   8.283  20.514  0.00  0.00    +0.000 HD
ENDROOT
BRANCH   1  12
ATOM      5  C   UNL     1       2.146  12.000  18.323  0.00  0.00    +0.000 C 
ATOM      6  C   UNL     1       1.306  11.647  19.519  0.00  0.00    +0.000 A 
ATOM      7  C   UNL     1       0.847  12.718  20.313  0.00  0.00    +0.000 A 
ATOM      8  C   UNL     1       0.018  12.500  21.411  0.00  0.00    +0.000 A 
ATOM      9  C   UNL     1      -0.343  11.205  21.757  0.00  0.00    +0.000 A 
ATOM     10  C   UNL     1       0.117  10.108  21.008  0.00  0.00    +0.000 A 
ATOM     11  C   UNL     1      -0.318   8.734  21.459  0.00  0.00    +0.000 C 
ATOM     12  C   UNL     1       0.936  10.324  19.868  0.00  0.00    +0.000 A 
ENDBRANCH   1  12
BRANCH   3  13
ATOM     13  C   UNL     1       2.533   6.978  18.902  0.00  0.00    +0.000 A 
ATOM     14  C   UNL     1       2.070   5.703  19.247  0.00  0.00    +0.000 A 
ATOM     15  C   UNL     1       2.587   4.561  18.629  0.00  0.00    +0.000 A 
ATOM     16 BR   UNL     1       1.945   2.858  19.166  0.00  0.00    +0.000 Br
ATOM     17  C   UNL     1       3.569   4.672  17.646  0.00  0.00    +0.000 A 
ATOM     18  C   UNL     1       4.013   5.940  17.269  0.00  0.00    +0.000 A 
ATOM     19 BR   UNL     1       5.344   6.161  15.933  0.00  0.00    +0.000 Br
ATOM     20  C   UNL     1       3.495   7.087  17.888  0.00  0.00    +0.000 A 
BRANCH  17  21
ATOM     21  O   UNL     1       4.103   3.556  17.055  0.00  0.00    +0.000 OA
ATOM     22  H   UNL     1       4.934   3.819  16.622  0.00  0.00    +0.000 HD
ENDBRANCH  17  21
ENDBRANCH   3  13
TORSDOF 3
ENDMDL
MODEL 9
REMARK VINA RESULT:      -6.0      0.295      2.886
REMARK  Name = 
REMARK  5 active torsions:
REMARK  status: ('A' for Active; 'I' for Inactive)
REMARK    1  A    between atoms: C_1  and  C_2
REMARK    2  A    between atoms: C_6  and  C_7
REMARK    3  A    between atoms: C_8  and  C_9
REMARK    4  A    between atoms: N_11  and  C_12
REMARK    5  A    between atoms: C_16  and  O_17
REMARK                            x       y       z     vdW  Elec       q    Type
REMARK                         _______ _______ _______ _____ _____    ______ ____
ROOT
ATOM      1  C   UNL     1       2.632   7.179  18.473  0.00  0.00    +0.000 C 
ATOM      2  O   UNL     1       2.545   7.238  19.696  0.00  0.00    +0.000 OA
ATOM      3  N   UNL     1       2.085   8.104  17.599  0.00  0.00    +0.000 N 
ATOM      4  H   UNL     1       2.152   7.895  16.607  0.00  0.00    +0.000 HD
ENDROOT
BRANCH   1  12
ATOM      5  C   UNL     1       1.408   4.379  18.297  0.00  0.00    +0.000 C 
ATOM      6  C   UNL     1       2.769   4.730  17.763  0.00  0.00    +0.000 A 
ATOM      7  C   UNL     1       3.468   3.711  17.084  0.00  0.00    +0.000 A 
ATOM      8  C   UNL     1       4.713   3.950  16.505  0.00  0.00    +0.000 A 
ATOM      9  C   UNL     1       5.299   5.203  16.621  0.00  0.00    +0.000 A 
ATOM     10  C   UNL     1       4.647   6.238  17.316  0.00  0.00    +0.000 A 
ATOM     11  C   UNL     1       5.360   7.567  17.401  0.00  0.00    +0.000 C 
ATOM     12  C   UNL     1       3.364   6.012  17.881  0.00  0.00    +0.000 A 
ENDBRANCH   1  12
BRANCH   3  13
ATOM     13  C   UNL     1       1.347   9.268  17.945  0.00  0.00    +0.000 A 
ATOM     14  C   UNL     1      -0.050   9.343  17.900  0.00  0.00    +0.000 A 
ATOM     15  C   UNL     1      -0.713  10.540  18.185  0.00  0.00    +0.000 A 
ATOM     16 BR   UNL     1      -2.606  10.589  18.071  0.00  0.00    +0.000 Br
ATOM     17  C   UNL     1       0.006  11.682  18.533  0.00  0.00    +0.000 A 
ATOM     18  C   UNL     1       1.397  11.610  18.616  0.00  0.00    +0.000 A 
ATOM     19 BR   UNL     1       2.437  13.127  19.089  0.00  0.00    +0.000 Br
ATOM     20  C   UNL     1       2.064  10.409  18.330  0.00  0.00    +0.000 A 
BRANCH  17  21
ATOM     21  O   UNL     1      -0.633  12.868  18.787  0.00  0.00    +0.000 OA
ATOM     22  H   UNL     1      -1.444  12.666  19.285  0.00  0.00    +0.000 HD
ENDBRANCH  17  21
ENDBRANCH   3  13
TORSDOF 3
ENDMDL
