MODEL 1
REMARK VINA RESULT:      -8.2      0.000      0.000
REMARK  Name = 
REMARK  8 active torsions:
REMARK  status: ('A' for Active; 'I' for Inactive)
REMARK    1  A    between atoms: C_1  and  O_2
REMARK    2  A    between atoms: O_2  and  C_3
REMARK    3  A    between atoms: C_5  and  C_6
REMARK    4  A    between atoms: C_10  and  C_11
REMARK    5  A    between atoms: C_22  and  O_23
REMARK    6  A    between atoms: O_23  and  C_24
REMARK    7  A    between atoms: C_25  and  O_26
REMARK    8  A    between atoms: O_26  and  C_27
REMARK                            x       y       z     vdW  Elec       q    Type
REMARK                         _______ _______ _______ _____ _____    ______ ____
ROOT
ATOM      1  C   UNL     1       2.455   5.502  20.280  0.00  0.00    +0.000 C 
ATOM      2  N   UNL     1       2.906   5.005  19.013  0.00  0.00    +0.000 N 
ATOM      3  C   UNL     1       4.201   5.102  18.518  0.00  0.00    +0.000 A 
ATOM      4  C   UNL     1       5.327   5.568  19.253  0.00  0.00    +0.000 A 
ATOM      5  C   UNL     1       6.389   5.431  18.395  0.00  0.00    +0.000 A 
ATOM      6  C   UNL     1       7.834   5.659  18.516  0.00  0.00    +0.000 C 
ATOM      7  O   UNL     1       5.937   4.958  17.209  0.00  0.00    +0.000 OA
ATOM      8  N   UNL     1       4.581   4.736  17.289  0.00  0.00    +0.000 NA
ATOM      9  C   UNL     1       1.914   4.259  18.388  0.00  0.00    +0.000 C 
ATOM     10  O   UNL     1       1.870   3.809  17.255  0.00  0.00    +0.000 OA
ATOM     11  C   UNL     1       0.885   3.949  19.469  0.00  0.00    +0.000 C 
ATOM     12  C   UNL     1       0.813   2.449  19.719  0.00  0.00    +0.000 C 
ATOM     13  C   UNL     1       1.996   2.195  20.629  0.00  0.00    +0.000 C 
ATOM     14  C   UNL     1       2.023   3.433  21.505  0.00  0.00    +0.000 C 
ATOM     15  N   UNL     1       1.428   4.542  20.728  0.00  0.00    +0.000 NA
ENDROOT
BRANCH   1  18
ATOM     16  C   UNL     1       1.519   8.981  18.917  0.00  0.00    +0.000 A 
ATOM     17  C   UNL     1       2.214   7.771  19.127  0.00  0.00    +0.000 A 
ATOM     18  C   UNL     1       1.950   6.950  20.227  0.00  0.00    +0.000 A 
ATOM     19  C   UNL     1       1.044   7.445  21.173  0.00  0.00    +0.000 A 
ATOM     20  C   UNL     1       0.388   8.681  21.028  0.00  0.00    +0.000 A 
ATOM     21  C   UNL     1       0.620   9.474  19.887  0.00  0.00    +0.000 A 
BRANCH  16  23
ATOM     22  C   UNL     1       2.426  10.923  17.908  0.00  0.00    +0.000 C 
ATOM     23  O   UNL     1       1.721   9.688  17.755  0.00  0.00    +0.000 OA
ENDBRANCH  16  23
BRANCH  20  24
ATOM     24  O   UNL     1      -0.470   8.902  22.078  0.00  0.00    +0.000 OA
ATOM     25  C   UNL     1      -0.010   9.568  23.243  0.00  0.00    +0.000 C 
ENDBRANCH  20  24
BRANCH  21  26
ATOM     26  O   UNL     1      -0.060  10.658  19.840  0.00  0.00    +0.000 OA
ATOM     27  C   UNL     1      -1.272  10.783  19.120  0.00  0.00    +0.000 C 
ENDBRANCH  21  26
ENDBRANCH   1  18
TORSDOF 4
ENDMDL
MODEL 2
REMARK VINA RESULT:      -7.6      0.784      2.436
REMARK  Name = 
REMARK  8 active torsions:
REMARK  status: ('A' for Active; 'I' for Inactive)
REMARK    1  A    between atoms: C_1  and  O_2
REMARK    2  A    between atoms: O_2  and  C_3
REMARK    3  A    between atoms: C_5  and  C_6
REMARK    4  A    between atoms: C_10  and  C_11
REMARK    5  A    between atoms: C_22  and  O_23
REMARK    6  A    between atoms: O_23  and  C_24
REMARK    7  A    between atoms: C_25  and  O_26
REMARK    8  A    between atoms: O_26  and  C_27
REMARK                            x       y       z     vdW  Elec       q    Type
REMARK                         _______ _______ _______ _____ _____    ______ ____
ROOT
ATOM      1  C   UNL     1       2.446   5.843  20.217  0.00  0.00    +0.000 C 
ATOM      2  N   UNL     1       2.701   5.344  18.897  0.00  0.00    +0.000 N 
ATOM      3  C   UNL     1       3.865   5.542  18.166  0.00  0.00    +0.000 A 
ATOM      4  C   UNL     1       5.058   6.137  18.666  0.00  0.00    +0.000 A 
ATOM      5  C   UNL     1       5.950   6.067  17.627  0.00  0.00    +0.000 A 
ATOM      6  C   UNL     1       7.363   6.433  17.469  0.00  0.00    +0.000 C 
ATOM      7  O   UNL     1       5.335   5.511  16.556  0.00  0.00    +0.000 OA
ATOM      8  N   UNL     1       4.045   5.168  16.894  0.00  0.00    +0.000 NA
ATOM      9  C   UNL     1       1.688   4.487  18.484  0.00  0.00    +0.000 C 
ATOM     10  O   UNL     1       1.479   3.993  17.388  0.00  0.00    +0.000 OA
ATOM     11  C   UNL     1       0.913   4.123  19.745  0.00  0.00    +0.000 C 
ATOM     12  C   UNL     1       1.035   2.633  20.032  0.00  0.00    +0.000 C 
ATOM     13  C   UNL     1       2.386   2.523  20.708  0.00  0.00    +0.000 C 
ATOM     14  C   UNL     1       2.453   3.790  21.540  0.00  0.00    +0.000 C 
ATOM     15  N   UNL     1       1.619   4.809  20.867  0.00  0.00    +0.000 NA
ENDROOT
BRANCH   1  18
ATOM     16  C   UNL     1       1.041   9.188  21.512  0.00  0.00    +0.000 A 
ATOM     17  C   UNL     1       1.350   7.814  21.423  0.00  0.00    +0.000 A 
ATOM     18  C   UNL     1       1.801   7.236  20.232  0.00  0.00    +0.000 A 
ATOM     19  C   UNL     1       1.820   8.064  19.103  0.00  0.00    +0.000 A 
ATOM     20  C   UNL     1       1.449   9.420  19.144  0.00  0.00    +0.000 A 
ATOM     21  C   UNL     1       1.050  10.006  20.362  0.00  0.00    +0.000 A 
BRANCH  16  23
ATOM     22  C   UNL     1      -0.662   9.707  23.075  0.00  0.00    +0.000 C 
ATOM     23  O   UNL     1       0.726   9.735  22.734  0.00  0.00    +0.000 OA
ENDBRANCH  16  23
BRANCH  20  24
ATOM     24  O   UNL     1       1.595  10.002  17.909  0.00  0.00    +0.000 OA
ATOM     25  C   UNL     1       2.464  11.111  17.745  0.00  0.00    +0.000 C 
ENDBRANCH  20  24
BRANCH  21  26
ATOM     26  O   UNL     1       0.703  11.326  20.299  0.00  0.00    +0.000 OA
ATOM     27  C   UNL     1      -0.610  11.726  19.956  0.00  0.00    +0.000 C 
ENDBRANCH  21  26
ENDBRANCH   1  18
TORSDOF 4
ENDMDL
MODEL 3
REMARK VINA RESULT:      -7.6      0.927      1.075
REMARK  Name = 
REMARK  8 active torsions:
REMARK  status: ('A' for Active; 'I' for Inactive)
REMARK    1  A    between atoms: C_1  and  O_2
REMARK    2  A    between atoms: O_2  and  C_3
REMARK    3  A    between atoms: C_5  and  C_6
REMARK    4  A    between atoms: C_10  and  C_11
REMARK    5  A    between atoms: C_22  and  O_23
REMARK    6  A    between atoms: O_23  and  C_24
REMARK    7  A    between atoms: C_25  and  O_26
REMARK    8  A    between atoms: O_26  and  C_27
REMARK                            x       y       z     vdW  Elec       q    Type
REMARK                         _______ _______ _______ _____ _____    ______ ____
ROOT
ATOM      1  C   UNL     1       2.542   5.800  20.242  0.00  0.00    +0.000 C 
ATOM      2  N   UNL     1       2.763   5.269  18.929  0.00  0.00    +0.000 N 
ATOM      3  C   UNL     1       3.965   5.297  18.234  0.00  0.00    +0.000 A 
ATOM      4  C   UNL     1       5.215   5.713  18.773  0.00  0.00    +0.000 A 
ATOM      5  C   UNL     1       6.119   5.515  17.761  0.00  0.00    +0.000 A 
ATOM      6  C   UNL     1       7.575   5.673  17.648  0.00  0.00    +0.000 C 
ATOM      7  O   UNL     1       5.464   5.053  16.670  0.00  0.00    +0.000 OA
ATOM      8  N   UNL     1       4.128   4.900  16.967  0.00  0.00    +0.000 NA
ATOM      9  C   UNL     1       1.650   4.567  18.481  0.00  0.00    +0.000 C 
ATOM     10  O   UNL     1       1.405   4.108  17.377  0.00  0.00    +0.000 OA
ATOM     11  C   UNL     1       0.792   4.320  19.717  0.00  0.00    +0.000 C 
ATOM     12  C   UNL     1       0.689   2.827  20.001  0.00  0.00    +0.000 C 
ATOM     13  C   UNL     1       1.988   2.524  20.718  0.00  0.00    +0.000 C 
ATOM     14  C   UNL     1       2.212   3.768  21.557  0.00  0.00    +0.000 C 
ATOM     15  N   UNL     1       1.554   4.897  20.863  0.00  0.00    +0.000 NA
ENDROOT
BRANCH   1  18
ATOM     16  C   UNL     1       1.133   9.179  19.041  0.00  0.00    +0.000 A 
ATOM     17  C   UNL     1       1.819   7.945  19.052  0.00  0.00    +0.000 A 
ATOM     18  C   UNL     1       2.105   7.271  20.243  0.00  0.00    +0.000 A 
ATOM     19  C   UNL     1       1.781   7.938  21.432  0.00  0.00    +0.000 A 
ATOM     20  C   UNL     1       1.163   9.201  21.454  0.00  0.00    +0.000 A 
ATOM     21  C   UNL     1       0.828   9.845  20.247  0.00  0.00    +0.000 A 
BRANCH  16  23
ATOM     22  C   UNL     1      -0.648   9.803  17.610  0.00  0.00    +0.000 C 
ATOM     23  O   UNL     1       0.761   9.738  17.841  0.00  0.00    +0.000 OA
ENDBRANCH  16  23
BRANCH  20  24
ATOM     24  O   UNL     1       0.927   9.604  22.746  0.00  0.00    +0.000 OA
ATOM     25  C   UNL     1      -0.395   9.598  23.262  0.00  0.00    +0.000 C 
ENDBRANCH  20  24
BRANCH  21  26
ATOM     26  O   UNL     1       0.235  11.070  20.372  0.00  0.00    +0.000 OA
ATOM     27  C   UNL     1       1.004  12.258  20.408  0.00  0.00    +0.000 C 
ENDBRANCH  21  26
ENDBRANCH   1  18
TORSDOF 4
ENDMDL
MODEL 4
REMARK VINA RESULT:      -7.4      2.753      5.933
REMARK  Name = 
REMARK  8 active torsions:
REMARK  status: ('A' for Active; 'I' for Inactive)
REMARK    1  A    between atoms: C_1  and  O_2
REMARK    2  A    between atoms: O_2  and  C_3
REMARK    3  A    between atoms: C_5  and  C_6
REMARK    4  A    between atoms: C_10  and  C_11
REMARK    5  A    between atoms: C_22  and  O_23
REMARK    6  A    between atoms: O_23  and  C_24
REMARK    7  A    between atoms: C_25  and  O_26
REMARK    8  A    between atoms: O_26  and  C_27
REMARK                            x       y       z     vdW  Elec       q    Type
REMARK                         _______ _______ _______ _____ _____    ______ ____
ROOT
ATOM      1  C   UNL     1       4.997   6.012  17.309  0.00  0.00    +0.000 C 
ATOM      2  N   UNL     1       5.956   5.064  16.822  0.00  0.00    +0.000 N 
ATOM      3  C   UNL     1       5.944   4.468  15.567  0.00  0.00    +0.000 A 
ATOM      4  C   UNL     1       5.069   4.820  14.500  0.00  0.00    +0.000 A 
ATOM      5  C   UNL     1       5.454   4.025  13.451  0.00  0.00    +0.000 A 
ATOM      6  C   UNL     1       5.030   3.908  12.050  0.00  0.00    +0.000 C 
ATOM      7  O   UNL     1       6.461   3.216  13.859  0.00  0.00    +0.000 OA
ATOM      8  N   UNL     1       6.778   3.502  15.168  0.00  0.00    +0.000 NA
ATOM      9  C   UNL     1       7.014   4.922  17.712  0.00  0.00    +0.000 C 
ATOM     10  O   UNL     1       7.929   4.116  17.720  0.00  0.00    +0.000 OA
ATOM     11  C   UNL     1       6.919   6.112  18.661  0.00  0.00    +0.000 C 
ATOM     12  C   UNL     1       8.142   7.007  18.513  0.00  0.00    +0.000 C 
ATOM     13  C   UNL     1       7.818   7.831  17.283  0.00  0.00    +0.000 C 
ATOM     14  C   UNL     1       6.324   8.060  17.412  0.00  0.00    +0.000 C 
ATOM     15  N   UNL     1       5.764   6.925  18.178  0.00  0.00    +0.000 NA
ENDROOT
BRANCH   1  18
ATOM     16  C   UNL     1       2.589   3.331  18.671  0.00  0.00    +0.000 A 
ATOM     17  C   UNL     1       3.480   4.017  17.818  0.00  0.00    +0.000 A 
ATOM     18  C   UNL     1       3.798   5.365  18.015  0.00  0.00    +0.000 A 
ATOM     19  C   UNL     1       3.100   6.030  19.031  0.00  0.00    +0.000 A 
ATOM     20  C   UNL     1       2.154   5.390  19.851  0.00  0.00    +0.000 A 
ATOM     21  C   UNL     1       1.882   4.019  19.680  0.00  0.00    +0.000 A 
BRANCH  16  23
ATOM     22  C   UNL     1       3.593   1.186  18.635  0.00  0.00    +0.000 C 
ATOM     23  O   UNL     1       2.408   1.977  18.515  0.00  0.00    +0.000 OA
ENDBRANCH  16  23
BRANCH  20  24
ATOM     24  O   UNL     1       1.650   6.263  20.784  0.00  0.00    +0.000 OA
ATOM     25  C   UNL     1       1.666   7.659  20.533  0.00  0.00    +0.000 C 
ENDBRANCH  20  24
BRANCH  21  26
ATOM     26  O   UNL     1       0.944   3.490  20.521  0.00  0.00    +0.000 OA
ATOM     27  C   UNL     1       1.319   2.744  21.664  0.00  0.00    +0.000 C 
ENDBRANCH  21  26
ENDBRANCH   1  18
TORSDOF 4
ENDMDL
MODEL 5
REMARK VINA RESULT:      -7.2      1.625      4.080
REMARK  Name = 
REMARK  8 active torsions:
REMARK  status: ('A' for Active; 'I' for Inactive)
REMARK    1  A    between atoms: C_1  and  O_2
REMARK    2  A    between atoms: O_2  and  C_3
REMARK    3  A    between atoms: C_5  and  C_6
REMARK    4  A    between atoms: C_10  and  C_11
REMARK    5  A    between atoms: C_22  and  O_23
REMARK    6  A    between atoms: O_23  and  C_24
REMARK    7  A    between atoms: C_25  and  O_26
REMARK    8  A    between atoms: O_26  and  C_27
REMARK                            x       y       z     vdW  Elec       q    Type
REMARK                         _______ _______ _______ _____ _____    ______ ____
ROOT
ATOM      1  C   UNL     1       3.750   6.399  17.597  0.00  0.00    +0.000 C 
ATOM      2  N   UNL     1       4.159   5.363  18.501  0.00  0.00    +0.000 N 
ATOM      3  C   UNL     1       3.393   4.266  18.877  0.00  0.00    +0.000 A 
ATOM      4  C   UNL     1       2.141   3.904  18.306  0.00  0.00    +0.000 A 
ATOM      5  C   UNL     1       1.791   2.736  18.934  0.00  0.00    +0.000 A 
ATOM      6  C   UNL     1       0.670   1.798  18.793  0.00  0.00    +0.000 C 
ATOM      7  O   UNL     1       2.738   2.430  19.852  0.00  0.00    +0.000 OA
ATOM      8  N   UNL     1       3.743   3.370  19.807  0.00  0.00    +0.000 NA
ATOM      9  C   UNL     1       5.497   5.501  18.846  0.00  0.00    +0.000 C 
ATOM     10  O   UNL     1       6.154   4.914  19.690  0.00  0.00    +0.000 OA
ATOM     11  C   UNL     1       6.090   6.470  17.828  0.00  0.00    +0.000 C 
ATOM     12  C   UNL     1       7.151   5.772  16.987  0.00  0.00    +0.000 C 
ATOM     13  C   UNL     1       6.334   5.024  15.953  0.00  0.00    +0.000 C 
ATOM     14  C   UNL     1       5.190   5.980  15.670  0.00  0.00    +0.000 C 
ATOM     15  N   UNL     1       4.979   6.796  16.885  0.00  0.00    +0.000 NA
ENDROOT
BRANCH   1  18
ATOM     16  C   UNL     1       2.068   9.821  18.145  0.00  0.00    +0.000 A 
ATOM     17  C   UNL     1       2.959   8.829  17.682  0.00  0.00    +0.000 A 
ATOM     18  C   UNL     1       3.042   7.572  18.289  0.00  0.00    +0.000 A 
ATOM     19  C   UNL     1       2.282   7.387  19.450  0.00  0.00    +0.000 A 
ATOM     20  C   UNL     1       1.439   8.381  19.978  0.00  0.00    +0.000 A 
ATOM     21  C   UNL     1       1.320   9.625  19.326  0.00  0.00    +0.000 A 
BRANCH  16  23
ATOM     22  C   UNL     1       2.515  12.145  18.048  0.00  0.00    +0.000 C 
ATOM     23  O   UNL     1       1.929  10.992  17.438  0.00  0.00    +0.000 OA
ENDBRANCH  16  23
BRANCH  20  24
ATOM     24  O   UNL     1       0.787   7.923  21.096  0.00  0.00    +0.000 OA
ATOM     25  C   UNL     1       0.840   8.666  22.304  0.00  0.00    +0.000 C 
ENDBRANCH  20  24
BRANCH  21  26
ATOM     26  O   UNL     1       0.482  10.527  19.918  0.00  0.00    +0.000 OA
ATOM     27  C   UNL     1      -0.876  10.629  19.534  0.00  0.00    +0.000 C 
ENDBRANCH  21  26
ENDBRANCH   1  18
TORSDOF 4
ENDMDL
MODEL 6
REMARK VINA RESULT:      -7.2      2.820      6.615
REMARK  Name = 
REMARK  8 active torsions:
REMARK  status: ('A' for Active; 'I' for Inactive)
REMARK    1  A    between atoms: C_1  and  O_2
REMARK    2  A    between atoms: O_2  and  C_3
REMARK    3  A    between atoms: C_5  and  C_6
REMARK    4  A    between atoms: C_10  and  C_11
REMARK    5  A    between atoms: C_22  and  O_23
REMARK    6  A    between atoms: O_23  and  C_24
REMARK    7  A    between atoms: C_25  and  O_26
REMARK    8  A    between atoms: O_26  and  C_27
REMARK                            x       y       z     vdW  Elec       q    Type
REMARK                         _______ _______ _______ _____ _____    ______ ____
ROOT
ATOM      1  C   UNL     1       3.282   4.343  17.296  0.00  0.00    +0.000 C 
ATOM      2  N   UNL     1       3.184   5.049  18.540  0.00  0.00    +0.000 N 
ATOM      3  C   UNL     1       2.747   6.359  18.697  0.00  0.00    +0.000 A 
ATOM      4  C   UNL     1       2.174   7.161  17.671  0.00  0.00    +0.000 A 
ATOM      5  C   UNL     1       1.840   8.339  18.289  0.00  0.00    +0.000 A 
ATOM      6  C   UNL     1       1.167   9.568  17.849  0.00  0.00    +0.000 C 
ATOM      7  O   UNL     1       2.220   8.277  19.588  0.00  0.00    +0.000 OA
ATOM      8  N   UNL     1       2.768   7.041  19.848  0.00  0.00    +0.000 NA
ATOM      9  C   UNL     1       3.434   4.204  19.615  0.00  0.00    +0.000 C 
ATOM     10  O   UNL     1       3.587   4.464  20.797  0.00  0.00    +0.000 OA
ATOM     11  C   UNL     1       3.333   2.788  19.060  0.00  0.00    +0.000 C 
ATOM     12  C   UNL     1       2.172   2.045  19.708  0.00  0.00    +0.000 C 
ATOM     13  C   UNL     1       0.969   2.543  18.934  0.00  0.00    +0.000 C 
ATOM     14  C   UNL     1       1.508   2.680  17.522  0.00  0.00    +0.000 C 
ATOM     15  N   UNL     1       2.960   2.940  17.622  0.00  0.00    +0.000 NA
ENDROOT
BRANCH   1  18
ATOM     16  C   UNL     1       6.064   4.112  14.641  0.00  0.00    +0.000 A 
ATOM     17  C   UNL     1       4.970   3.767  15.463  0.00  0.00    +0.000 A 
ATOM     18  C   UNL     1       4.641   4.509  16.602  0.00  0.00    +0.000 A 
ATOM     19  C   UNL     1       5.520   5.541  16.952  0.00  0.00    +0.000 A 
ATOM     20  C   UNL     1       6.660   5.863  16.192  0.00  0.00    +0.000 A 
ATOM     21  C   UNL     1       6.950   5.145  15.015  0.00  0.00    +0.000 A 
BRANCH  16  23
ATOM     22  C   UNL     1       5.177   3.466  12.542  0.00  0.00    +0.000 C 
ATOM     23  O   UNL     1       6.269   3.433  13.464  0.00  0.00    +0.000 OA
ENDBRANCH  16  23
BRANCH  20  24
ATOM     24  O   UNL     1       7.321   6.935  16.739  0.00  0.00    +0.000 OA
ATOM     25  C   UNL     1       7.684   6.923  18.110  0.00  0.00    +0.000 C 
ENDBRANCH  20  24
BRANCH  21  26
ATOM     26  O   UNL     1       8.080   5.529  14.350  0.00  0.00    +0.000 OA
ATOM     27  C   UNL     1       8.106   5.623  12.938  0.00  0.00    +0.000 C 
ENDBRANCH  21  26
ENDBRANCH   1  18
TORSDOF 4
ENDMDL
MODEL 7
REMARK VINA RESULT:      -6.9      1.687      4.615
REMARK  Name = 
REMARK  8 active torsions:
REMARK  status: ('A' for Active; 'I' for Inactive)
REMARK    1  A    between atoms: C_1  and  O_2
REMARK    2  A    between atoms: O_2  and  C_3
REMARK    3  A    between atoms: C_5  and  C_6
REMARK    4  A    between atoms: C_10  and  C_11
REMARK    5  A    between atoms: C_22  and  O_23
REMARK    6  A    between atoms: O_23  and  C_24
REMARK    7  A    between atoms: C_25  and  O_26
REMARK    8  A    between atoms: O_26  and  C_27
REMARK                            x       y       z     vdW  Elec       q    Type
REMARK                         _______ _______ _______ _____ _____    ______ ____
ROOT
ATOM      1  C   UNL     1       3.638   6.329  17.547  0.00  0.00    +0.000 C 
ATOM      2  N   UNL     1       4.158   5.387  18.495  0.00  0.00    +0.000 N 
ATOM      3  C   UNL     1       3.543   4.202  18.882  0.00  0.00    +0.000 A 
ATOM      4  C   UNL     1       2.375   3.650  18.284  0.00  0.00    +0.000 A 
ATOM      5  C   UNL     1       2.172   2.462  18.938  0.00  0.00    +0.000 A 
ATOM      6  C   UNL     1       1.201   1.370  18.792  0.00  0.00    +0.000 C 
ATOM      7  O   UNL     1       3.121   2.319  19.894  0.00  0.00    +0.000 OA
ATOM      8  N   UNL     1       3.984   3.391  19.849  0.00  0.00    +0.000 NA
ATOM      9  C   UNL     1       5.451   5.724  18.876  0.00  0.00    +0.000 C 
ATOM     10  O   UNL     1       6.154   5.259  19.758  0.00  0.00    +0.000 OA
ATOM     11  C   UNL     1       5.935   6.739  17.846  0.00  0.00    +0.000 C 
ATOM     12  C   UNL     1       7.113   6.178  17.061  0.00  0.00    +0.000 C 
ATOM     13  C   UNL     1       6.447   5.293  16.027  0.00  0.00    +0.000 C 
ATOM     14  C   UNL     1       5.189   6.068  15.678  0.00  0.00    +0.000 C 
ATOM     15  N   UNL     1       4.823   6.878  16.860  0.00  0.00    +0.000 NA
ENDROOT
BRANCH   1  18
ATOM     16  C   UNL     1       1.648   8.326  20.173  0.00  0.00    +0.000 A 
ATOM     17  C   UNL     1       2.206   7.244  19.457  0.00  0.00    +0.000 A 
ATOM     18  C   UNL     1       2.748   7.407  18.179  0.00  0.00    +0.000 A 
ATOM     19  C   UNL     1       2.605   8.673  17.596  0.00  0.00    +0.000 A 
ATOM     20  C   UNL     1       1.990   9.752  18.256  0.00  0.00    +0.000 A 
ATOM     21  C   UNL     1       1.498   9.591  19.566  0.00  0.00    +0.000 A 
BRANCH  16  23
ATOM     22  C   UNL     1      -0.168   8.076  21.672  0.00  0.00    +0.000 C 
ATOM     23  O   UNL     1       1.246   8.143  21.475  0.00  0.00    +0.000 OA
ENDBRANCH  16  23
BRANCH  20  24
ATOM     24  O   UNL     1       2.018  10.880  17.473  0.00  0.00    +0.000 OA
ATOM     25  C   UNL     1       2.665  12.053  17.939  0.00  0.00    +0.000 C 
ENDBRANCH  20  24
BRANCH  21  26
ATOM     26  O   UNL     1       0.913  10.695  20.120  0.00  0.00    +0.000 OA
ATOM     27  C   UNL     1      -0.417  11.059  19.802  0.00  0.00    +0.000 C 
ENDBRANCH  21  26
ENDBRANCH   1  18
TORSDOF 4
ENDMDL
MODEL 8
REMARK VINA RESULT:      -6.9      2.971      6.973
REMARK  Name = 
REMARK  8 active torsions:
REMARK  status: ('A' for Active; 'I' for Inactive)
REMARK    1  A    between atoms: C_1  and  O_2
REMARK    2  A    between atoms: O_2  and  C_3
REMARK    3  A    between atoms: C_5  and  C_6
REMARK    4  A    between atoms: C_10  and  C_11
REMARK    5  A    between atoms: C_22  and  O_23
REMARK    6  A    between atoms: O_23  and  C_24
REMARK    7  A    between atoms: C_25  and  O_26
REMARK    8  A    between atoms: O_26  and  C_27
REMARK                            x       y       z     vdW  Elec       q    Type
REMARK                         _______ _______ _______ _____ _____    ______ ____
ROOT
ATOM      1  C   UNL     1       3.496   4.471  17.069  0.00  0.00    +0.000 C 
ATOM      2  N   UNL     1       3.480   5.186  18.311  0.00  0.00    +0.000 N 
ATOM      3  C   UNL     1       2.878   6.420  18.530  0.00  0.00    +0.000 A 
ATOM      4  C   UNL     1       2.043   7.102  17.600  0.00  0.00    +0.000 A 
ATOM      5  C   UNL     1       1.632   8.232  18.259  0.00  0.00    +0.000 A 
ATOM      6  C   UNL     1       0.723   9.335  17.923  0.00  0.00    +0.000 C 
ATOM      7  O   UNL     1       2.207   8.260  19.485  0.00  0.00    +0.000 OA
ATOM      8  N   UNL     1       2.968   7.127  19.662  0.00  0.00    +0.000 NA
ATOM      9  C   UNL     1       4.012   4.416  19.337  0.00  0.00    +0.000 C 
ATOM     10  O   UNL     1       4.299   4.726  20.482  0.00  0.00    +0.000 OA
ATOM     11  C   UNL     1       4.044   2.986  18.808  0.00  0.00    +0.000 C 
ATOM     12  C   UNL     1       3.120   2.096  19.627  0.00  0.00    +0.000 C 
ATOM     13  C   UNL     1       1.753   2.390  19.043  0.00  0.00    +0.000 C 
ATOM     14  C   UNL     1       2.047   2.569  17.565  0.00  0.00    +0.000 C 
ATOM     15  N   UNL     1       3.442   3.045  17.443  0.00  0.00    +0.000 NA
ENDROOT
BRANCH   1  18
ATOM     16  C   UNL     1       6.888   5.894  15.922  0.00  0.00    +0.000 A 
ATOM     17  C   UNL     1       5.637   5.776  16.566  0.00  0.00    +0.000 A 
ATOM     18  C   UNL     1       4.694   4.820  16.175  0.00  0.00    +0.000 A 
ATOM     19  C   UNL     1       5.005   4.063  15.039  0.00  0.00    +0.000 A 
ATOM     20  C   UNL     1       6.213   4.208  14.332  0.00  0.00    +0.000 A 
ATOM     21  C   UNL     1       7.180   5.135  14.769  0.00  0.00    +0.000 A 
BRANCH  16  23
ATOM     22  C   UNL     1       7.379   7.603  17.486  0.00  0.00    +0.000 C 
ATOM     23  O   UNL     1       7.831   6.760  16.424  0.00  0.00    +0.000 OA
ENDBRANCH  16  23
BRANCH  20  24
ATOM     24  O   UNL     1       6.273   3.320  13.286  0.00  0.00    +0.000 OA
ATOM     25  C   UNL     1       5.352   3.423  12.212  0.00  0.00    +0.000 C 
ENDBRANCH  20  24
BRANCH  21  26
ATOM     26  O   UNL     1       8.316   5.205  14.014  0.00  0.00    +0.000 OA
ATOM     27  C   UNL     1       8.322   5.845  12.752  0.00  0.00    +0.000 C 
ENDBRANCH  21  26
ENDBRANCH   1  18
TORSDOF 4
ENDMDL
MODEL 9
REMARK VINA RESULT:      -6.7      4.461      7.830
REMARK  Name = 
REMARK  8 active torsions:
REMARK  status: ('A' for Active; 'I' for Inactive)
REMARK    1  A    between atoms: C_1  and  O_2
REMARK    2  A    between atoms: O_2  and  C_3
REMARK    3  A    between atoms: C_5  and  C_6
REMARK    4  A    between atoms: C_10  and  C_11
REMARK    5  A    between atoms: C_22  and  O_23
REMARK    6  A    between atoms: O_23  and  C_24
REMARK    7  A    between atoms: C_25  and  O_26
REMARK    8  A    between atoms: O_26  and  C_27
REMARK                            x       y       z     vdW  Elec       q    Type
REMARK                         _______ _______ _______ _____ _____    ______ ____
ROOT
ATOM      1  C   UNL     1      -0.027  12.257  18.897  0.00  0.00    +0.000 C 
ATOM      2  N   UNL     1       0.334  11.984  20.257  0.00  0.00    +0.000 N 
ATOM      3  C   UNL     1       0.631  10.732  20.782  0.00  0.00    +0.000 A 
ATOM      4  C   UNL     1       0.781   9.538  20.022  0.00  0.00    +0.000 A 
ATOM      5  C   UNL     1       1.128   8.579  20.938  0.00  0.00    +0.000 A 
ATOM      6  C   UNL     1       1.487   7.158  20.841  0.00  0.00    +0.000 C 
ATOM      7  O   UNL     1       1.147   9.135  22.173  0.00  0.00    +0.000 OA
ATOM      8  N   UNL     1       0.855  10.478  22.076  0.00  0.00    +0.000 NA
ATOM      9  C   UNL     1       0.511  13.162  20.972  0.00  0.00    +0.000 C 
ATOM     10  O   UNL     1       0.672  13.335  22.169  0.00  0.00    +0.000 OA
ATOM     11  C   UNL     1       0.625  14.268  19.928  0.00  0.00    +0.000 C 
ATOM     12  C   UNL     1       2.006  14.907  19.981  0.00  0.00    +0.000 C 
ATOM     13  C   UNL     1       2.864  13.937  19.195  0.00  0.00    +0.000 C 
ATOM     14  C   UNL     1       1.931  13.475  18.092  0.00  0.00    +0.000 C 
ATOM     15  N   UNL     1       0.547  13.584  18.603  0.00  0.00    +0.000 NA
ENDROOT
BRANCH   1  18
ATOM     16  C   UNL     1      -3.401  11.266  17.322  0.00  0.00    +0.000 A 
ATOM     17  C   UNL     1      -2.042  11.626  17.454  0.00  0.00    +0.000 A 
ATOM     18  C   UNL     1      -1.537  12.178  18.635  0.00  0.00    +0.000 A 
ATOM     19  C   UNL     1      -2.470  12.465  19.640  0.00  0.00    +0.000 A 
ATOM     20  C   UNL     1      -3.842  12.184  19.510  0.00  0.00    +0.000 A 
ATOM     21  C   UNL     1      -4.331  11.576  18.337  0.00  0.00    +0.000 A 
BRANCH  16  23
ATOM     22  C   UNL     1      -2.827  10.443  15.177  0.00  0.00    +0.000 C 
ATOM     23  O   UNL     1      -3.822  10.608  16.190  0.00  0.00    +0.000 OA
ENDBRANCH  16  23
BRANCH  20  24
ATOM     24  O   UNL     1      -4.520  12.532  20.653  0.00  0.00    +0.000 OA
ATOM     25  C   UNL     1      -4.440  13.857  21.152  0.00  0.00    +0.000 C 
ENDBRANCH  20  24
BRANCH  21  26
ATOM     26  O   UNL     1      -5.678  11.349  18.304  0.00  0.00    +0.000 OA
ATOM     27  C   UNL     1      -6.559  12.246  17.655  0.00  0.00    +0.000 C 
ENDBRANCH  21  26
ENDBRANCH   1  18
TORSDOF 4
ENDMDL
