MODEL 1
REMARK VINA RESULT:      -8.8      0.000      0.000
REMARK  Name = 
REMARK  1 active torsions:
REMARK  status: ('A' for Active; 'I' for Inactive)
REMARK    1  A    between atoms: C_8  and  C_9
REMARK                            x       y       z     vdW  Elec       q    Type
REMARK                         _______ _______ _______ _____ _____    ______ ____
ROOT
ATOM      1  O   UNL     1       5.377   8.112  17.172  0.00  0.00    +0.000 OA
ATOM      2  C   UNL     1       6.070   7.170  17.547  0.00  0.00    +0.000 C 
ATOM      3  C   UNL     1       7.568   7.192  17.387  0.00  0.00    +0.000 C 
ATOM      4  C   UNL     1       8.216   6.714  18.672  0.00  0.00    +0.000 C 
ATOM      5  C   UNL     1       7.733   5.316  19.054  0.00  0.00    +0.000 C 
ATOM      6  C   UNL     1       6.261   5.073  18.801  0.00  0.00    +0.000 C 
ATOM      7  C   UNL     1       5.468   5.928  18.109  0.00  0.00    +0.000 C 
ATOM      8  C   UNL     1       3.991   5.625  17.816  0.00  0.00    +0.000 C 
ATOM      9  C   UNL     1       3.607   4.279  18.361  0.00  0.00    +0.000 C 
ATOM     10  C   UNL     1       4.442   3.496  19.059  0.00  0.00    +0.000 C 
ATOM     11  C   UNL     1       3.900   2.174  19.517  0.00  0.00    +0.000 C 
ATOM     12  C   UNL     1       2.396   2.195  19.256  0.00  0.00    +0.000 C 
ATOM     13  S   UNL     1       2.116   3.500  18.059  0.00  0.00    +0.000 S 
ATOM     14  O   UNL     1       0.999   4.296  18.517  0.00  0.00    +0.000 OA
ATOM     15  O   UNL     1       2.144   2.911  16.734  0.00  0.00    +0.000 OA
ATOM     16  N   UNL     1       5.737   3.886  19.303  0.00  0.00    +0.000 N 
ATOM     17  H   UNL     1       6.373   3.225  19.743  0.00  0.00    +0.000 HD
ENDROOT
BRANCH   8  18
ATOM     18  C   UNL     1       3.053   6.718  18.329  0.00  0.00    +0.000 A 
ATOM     19  C   UNL     1       2.541   7.670  17.395  0.00  0.00    +0.000 A 
ATOM     20  C   UNL     1       1.688   8.732  17.747  0.00  0.00    +0.000 A 
ATOM     21  C   UNL     1       1.336   8.815  19.112  0.00  0.00    +0.000 A 
ATOM     22  N   UNL     1       0.537   9.741  19.665  0.00  0.00    +0.000 NA
ATOM     23  S   UNL     1       0.448   9.376  21.283  0.00  0.00    +0.000 S 
ATOM     24  N   UNL     1       1.428   8.035  21.360  0.00  0.00    +0.000 NA
ATOM     25  C   UNL     1       1.860   7.816  20.108  0.00  0.00    +0.000 A 
ATOM     26  C   UNL     1       2.723   6.771  19.704  0.00  0.00    +0.000 A 
ENDBRANCH   8  18
TORSDOF 1
ENDMDL
MODEL 2
REMARK VINA RESULT:      -8.4      0.720      1.410
REMARK  Name = 
REMARK  1 active torsions:
REMARK  status: ('A' for Active; 'I' for Inactive)
REMARK    1  A    between atoms: C_8  and  C_9
REMARK                            x       y       z     vdW  Elec       q    Type
REMARK                         _______ _______ _______ _____ _____    ______ ____
ROOT
ATOM      1  O   UNL     1       5.258   8.142  17.335  0.00  0.00    +0.000 OA
ATOM      2  C   UNL     1       5.974   7.186  17.615  0.00  0.00    +0.000 C 
ATOM      3  C   UNL     1       7.462   7.232  17.380  0.00  0.00    +0.000 C 
ATOM      4  C   UNL     1       8.179   6.682  18.598  0.00  0.00    +0.000 C 
ATOM      5  C   UNL     1       7.725   5.259  18.919  0.00  0.00    +0.000 C 
ATOM      6  C   UNL     1       6.243   5.019  18.727  0.00  0.00    +0.000 C 
ATOM      7  C   UNL     1       5.410   5.906  18.131  0.00  0.00    +0.000 C 
ATOM      8  C   UNL     1       3.922   5.609  17.897  0.00  0.00    +0.000 C 
ATOM      9  C   UNL     1       3.575   4.229  18.378  0.00  0.00    +0.000 C 
ATOM     10  C   UNL     1       4.450   3.412  18.983  0.00  0.00    +0.000 C 
ATOM     11  C   UNL     1       3.940   2.060  19.387  0.00  0.00    +0.000 C 
ATOM     12  C   UNL     1       2.423   2.083  19.205  0.00  0.00    +0.000 C 
ATOM     13  S   UNL     1       2.074   3.456  18.107  0.00  0.00    +0.000 S 
ATOM     14  O   UNL     1       0.978   4.213  18.668  0.00  0.00    +0.000 OA
ATOM     15  O   UNL     1       2.037   2.949  16.748  0.00  0.00    +0.000 OA
ATOM     16  N   UNL     1       5.753   3.799  19.183  0.00  0.00    +0.000 N 
ATOM     17  H   UNL     1       6.415   3.118  19.549  0.00  0.00    +0.000 HD
ENDROOT
BRANCH   8  18
ATOM     18  C   UNL     1       3.005   6.660  18.523  0.00  0.00    +0.000 A 
ATOM     19  C   UNL     1       2.732   6.580  19.924  0.00  0.00    +0.000 A 
ATOM     20  C   UNL     1       1.891   7.474  20.610  0.00  0.00    +0.000 A 
ATOM     21  C   UNL     1       1.315   8.502  19.831  0.00  0.00    +0.000 A 
ATOM     22  N   UNL     1       0.488   9.461  20.278  0.00  0.00    +0.000 NA
ATOM     23  S   UNL     1       0.116  10.407  18.964  0.00  0.00    +0.000 S 
ATOM     24  N   UNL     1       0.976   9.638  17.767  0.00  0.00    +0.000 NA
ATOM     25  C   UNL     1       1.599   8.606  18.357  0.00  0.00    +0.000 A 
ATOM     26  C   UNL     1       2.445   7.675  17.712  0.00  0.00    +0.000 A 
ENDBRANCH   8  18
TORSDOF 1
ENDMDL
MODEL 3
REMARK VINA RESULT:      -8.0      1.091      1.131
REMARK  Name = 
REMARK  1 active torsions:
REMARK  status: ('A' for Active; 'I' for Inactive)
REMARK    1  A    between atoms: C_8  and  C_9
REMARK                            x       y       z     vdW  Elec       q    Type
REMARK                         _______ _______ _______ _____ _____    ______ ____
ROOT
ATOM      1  O   UNL     1       4.406   7.399  16.571  0.00  0.00    +0.000 OA
ATOM      2  C   UNL     1       5.122   6.479  16.954  0.00  0.00    +0.000 C 
ATOM      3  C   UNL     1       6.495   6.266  16.372  0.00  0.00    +0.000 C 
ATOM      4  C   UNL     1       7.479   5.998  17.495  0.00  0.00    +0.000 C 
ATOM      5  C   UNL     1       7.054   4.796  18.335  0.00  0.00    +0.000 C 
ATOM      6  C   UNL     1       5.564   4.701  18.583  0.00  0.00    +0.000 C 
ATOM      7  C   UNL     1       4.650   5.481  17.956  0.00  0.00    +0.000 C 
ATOM      8  C   UNL     1       3.139   5.322  18.183  0.00  0.00    +0.000 C 
ATOM      9  C   UNL     1       2.862   4.192  19.133  0.00  0.00    +0.000 C 
ATOM     10  C   UNL     1       3.823   3.477  19.735  0.00  0.00    +0.000 C 
ATOM     11  C   UNL     1       3.370   2.372  20.644  0.00  0.00    +0.000 C 
ATOM     12  C   UNL     1       1.862   2.535  20.827  0.00  0.00    +0.000 C 
ATOM     13  S   UNL     1       1.306   3.572  19.474  0.00  0.00    +0.000 S 
ATOM     14  O   UNL     1       0.436   4.590  20.018  0.00  0.00    +0.000 OA
ATOM     15  O   UNL     1       0.887   2.708  18.387  0.00  0.00    +0.000 OA
ATOM     16  N   UNL     1       5.151   3.735  19.493  0.00  0.00    +0.000 N 
ATOM     17  H   UNL     1       5.850   3.107  19.883  0.00  0.00    +0.000 HD
ENDROOT
BRANCH   8  18
ATOM     18  C   UNL     1       2.474   6.616  18.653  0.00  0.00    +0.000 A 
ATOM     19  C   UNL     1       2.015   7.543  17.667  0.00  0.00    +0.000 A 
ATOM     20  C   UNL     1       1.407   8.775  17.973  0.00  0.00    +0.000 A 
ATOM     21  C   UNL     1       1.253   9.063  19.348  0.00  0.00    +0.000 A 
ATOM     22  N   UNL     1       0.700  10.173  19.863  0.00  0.00    +0.000 NA
ATOM     23  S   UNL     1       0.760  10.000  21.514  0.00  0.00    +0.000 S 
ATOM     24  N   UNL     1       1.500   8.518  21.652  0.00  0.00    +0.000 NA
ATOM     25  C   UNL     1       1.724   8.094  20.398  0.00  0.00    +0.000 A 
ATOM     26  C   UNL     1       2.337   6.872  20.038  0.00  0.00    +0.000 A 
ENDBRANCH   8  18
TORSDOF 1
ENDMDL
MODEL 4
REMARK VINA RESULT:      -7.4      2.167      4.386
REMARK  Name = 
REMARK  1 active torsions:
REMARK  status: ('A' for Active; 'I' for Inactive)
REMARK    1  A    between atoms: C_8  and  C_9
REMARK                            x       y       z     vdW  Elec       q    Type
REMARK                         _______ _______ _______ _____ _____    ______ ____
ROOT
ATOM      1  O   UNL     1       1.205   5.049  20.793  0.00  0.00    +0.000 OA
ATOM      2  C   UNL     1       1.548   4.106  20.088  0.00  0.00    +0.000 C 
ATOM      3  C   UNL     1       1.029   2.714  20.340  0.00  0.00    +0.000 C 
ATOM      4  C   UNL     1       0.617   2.087  19.022  0.00  0.00    +0.000 C 
ATOM      5  C   UNL     1       1.777   2.059  18.030  0.00  0.00    +0.000 C 
ATOM      6  C   UNL     1       2.646   3.298  18.051  0.00  0.00    +0.000 C 
ATOM      7  C   UNL     1       2.549   4.266  18.995  0.00  0.00    +0.000 C 
ATOM      8  C   UNL     1       3.486   5.483  19.024  0.00  0.00    +0.000 C 
ATOM      9  C   UNL     1       4.496   5.402  17.916  0.00  0.00    +0.000 C 
ATOM     10  C   UNL     1       4.516   4.422  17.001  0.00  0.00    +0.000 C 
ATOM     11  C   UNL     1       5.604   4.487  15.970  0.00  0.00    +0.000 C 
ATOM     12  C   UNL     1       6.273   5.852  16.112  0.00  0.00    +0.000 C 
ATOM     13  S   UNL     1       5.831   6.455  17.742  0.00  0.00    +0.000 S 
ATOM     14  O   UNL     1       5.408   7.832  17.611  0.00  0.00    +0.000 OA
ATOM     15  O   UNL     1       6.875   6.060  18.668  0.00  0.00    +0.000 OA
ATOM     16  N   UNL     1       3.597   3.400  17.041  0.00  0.00    +0.000 N 
ATOM     17  H   UNL     1       3.705   2.620  16.397  0.00  0.00    +0.000 HD
ENDROOT
BRANCH   8  18
ATOM     18  C   UNL     1       2.728   6.810  18.988  0.00  0.00    +0.000 A 
ATOM     19  C   UNL     1       2.477   7.417  17.718  0.00  0.00    +0.000 A 
ATOM     20  C   UNL     1       1.809   8.645  17.556  0.00  0.00    +0.000 A 
ATOM     21  C   UNL     1       1.369   9.270  18.743  0.00  0.00    +0.000 A 
ATOM     22  N   UNL     1       0.712  10.439  18.821  0.00  0.00    +0.000 NA
ATOM     23  S   UNL     1       0.427  10.707  20.435  0.00  0.00    +0.000 S 
ATOM     24  N   UNL     1       1.133   9.362  21.110  0.00  0.00    +0.000 NA
ATOM     25  C   UNL     1       1.617   8.641  20.087  0.00  0.00    +0.000 A 
ATOM     26  C   UNL     1       2.302   7.409  20.197  0.00  0.00    +0.000 A 
ENDBRANCH   8  18
TORSDOF 1
ENDMDL
MODEL 5
REMARK VINA RESULT:      -7.4      2.606      6.045
REMARK  Name = 
REMARK  1 active torsions:
REMARK  status: ('A' for Active; 'I' for Inactive)
REMARK    1  A    between atoms: C_8  and  C_9
REMARK                            x       y       z     vdW  Elec       q    Type
REMARK                         _______ _______ _______ _____ _____    ______ ____
ROOT
ATOM      1  O   UNL     1       3.131   2.680  17.959  0.00  0.00    +0.000 OA
ATOM      2  C   UNL     1       2.577   2.995  19.008  0.00  0.00    +0.000 C 
ATOM      3  C   UNL     1       1.971   1.953  19.913  0.00  0.00    +0.000 C 
ATOM      4  C   UNL     1       2.364   2.247  21.347  0.00  0.00    +0.000 C 
ATOM      5  C   UNL     1       1.929   3.649  21.769  0.00  0.00    +0.000 C 
ATOM      6  C   UNL     1       2.097   4.704  20.697  0.00  0.00    +0.000 C 
ATOM      7  C   UNL     1       2.406   4.420  19.409  0.00  0.00    +0.000 C 
ATOM      8  C   UNL     1       2.511   5.508  18.329  0.00  0.00    +0.000 C 
ATOM      9  C   UNL     1       2.191   6.858  18.904  0.00  0.00    +0.000 C 
ATOM     10  C   UNL     1       1.916   7.066  20.200  0.00  0.00    +0.000 C 
ATOM     11  C   UNL     1       1.602   8.477  20.603  0.00  0.00    +0.000 C 
ATOM     12  C   UNL     1       1.939   9.367  19.409  0.00  0.00    +0.000 C 
ATOM     13  S   UNL     1       1.998   8.284  17.982  0.00  0.00    +0.000 S 
ATOM     14  O   UNL     1       3.193   8.596  17.230  0.00  0.00    +0.000 OA
ATOM     15  O   UNL     1       0.686   8.279  17.364  0.00  0.00    +0.000 OA
ATOM     16  N   UNL     1       1.893   6.021  21.093  0.00  0.00    +0.000 N 
ATOM     17  H   UNL     1       1.579   6.198  22.044  0.00  0.00    +0.000 HD
ENDROOT
BRANCH   8  18
ATOM     18  C   UNL     1       3.870   5.512  17.628  0.00  0.00    +0.000 A 
ATOM     19  C   UNL     1       5.002   6.019  18.338  0.00  0.00    +0.000 A 
ATOM     20  C   UNL     1       6.297   6.095  17.795  0.00  0.00    +0.000 A 
ATOM     21  C   UNL     1       6.441   5.619  16.472  0.00  0.00    +0.000 A 
ATOM     22  N   UNL     1       7.581   5.595  15.763  0.00  0.00    +0.000 NA
ATOM     23  S   UNL     1       7.199   4.936  14.287  0.00  0.00    +0.000 S 
ATOM     24  N   UNL     1       5.570   4.663  14.474  0.00  0.00    +0.000 NA
ATOM     25  C   UNL     1       5.261   5.075  15.714  0.00  0.00    +0.000 A 
ATOM     26  C   UNL     1       3.977   5.029  16.302  0.00  0.00    +0.000 A 
ENDBRANCH   8  18
TORSDOF 1
ENDMDL
MODEL 6
REMARK VINA RESULT:      -7.3      4.887      9.236
REMARK  Name = 
REMARK  1 active torsions:
REMARK  status: ('A' for Active; 'I' for Inactive)
REMARK    1  A    between atoms: C_8  and  C_9
REMARK                            x       y       z     vdW  Elec       q    Type
REMARK                         _______ _______ _______ _____ _____    ______ ____
ROOT
ATOM      1  O   UNL     1      -1.709   9.823  16.965  0.00  0.00    +0.000 OA
ATOM      2  C   UNL     1      -2.506  10.643  17.411  0.00  0.00    +0.000 C 
ATOM      3  C   UNL     1      -3.871  10.816  16.797  0.00  0.00    +0.000 C 
ATOM      4  C   UNL     1      -4.910  10.890  17.899  0.00  0.00    +0.000 C 
ATOM      5  C   UNL     1      -4.608  12.025  18.876  0.00  0.00    +0.000 C 
ATOM      6  C   UNL     1      -3.139  12.201  19.194  0.00  0.00    +0.000 C 
ATOM      7  C   UNL     1      -2.147  11.561  18.529  0.00  0.00    +0.000 C 
ATOM      8  C   UNL     1      -0.661  11.806  18.834  0.00  0.00    +0.000 C 
ATOM      9  C   UNL     1      -0.505  12.846  19.906  0.00  0.00    +0.000 C 
ATOM     10  C   UNL     1      -1.538  13.422  20.538  0.00  0.00    +0.000 C 
ATOM     11  C   UNL     1      -1.202  14.454  21.573  0.00  0.00    +0.000 C 
ATOM     12  C   UNL     1       0.306  14.383  21.802  0.00  0.00    +0.000 C 
ATOM     13  S   UNL     1       0.986  13.539  20.374  0.00  0.00    +0.000 S 
ATOM     14  O   UNL     1       1.913  12.535  20.846  0.00  0.00    +0.000 OA
ATOM     15  O   UNL     1       1.374  14.541  19.400  0.00  0.00    +0.000 OA
ATOM     16  N   UNL     1      -2.833  13.094  20.215  0.00  0.00    +0.000 N 
ATOM     17  H   UNL     1      -3.592  13.624  20.638  0.00  0.00    +0.000 HD
ENDROOT
BRANCH   8  18
ATOM     18  C   UNL     1       0.085  10.521  19.196  0.00  0.00    +0.000 A 
ATOM     19  C   UNL     1      -0.192   9.903  20.455  0.00  0.00    +0.000 A 
ATOM     20  C   UNL     1       0.443   8.733  20.909  0.00  0.00    +0.000 A 
ATOM     21  C   UNL     1       1.393   8.165  20.031  0.00  0.00    +0.000 A 
ATOM     22  N   UNL     1       2.111   7.054  20.259  0.00  0.00    +0.000 NA
ATOM     23  S   UNL     1       3.059   6.826  18.914  0.00  0.00    +0.000 S 
ATOM     24  N   UNL     1       2.612   8.132  17.987  0.00  0.00    +0.000 NA
ATOM     25  C   UNL     1       1.689   8.798  18.698  0.00  0.00    +0.000 A 
ATOM     26  C   UNL     1       1.030   9.980  18.292  0.00  0.00    +0.000 A 
ENDBRANCH   8  18
TORSDOF 1
ENDMDL
MODEL 7
REMARK VINA RESULT:      -7.1      5.984      9.026
REMARK  Name = 
REMARK  1 active torsions:
REMARK  status: ('A' for Active; 'I' for Inactive)
REMARK    1  A    between atoms: C_8  and  C_9
REMARK                            x       y       z     vdW  Elec       q    Type
REMARK                         _______ _______ _______ _____ _____    ______ ____
ROOT
ATOM      1  O   UNL     1      -0.167   9.467  21.244  0.00  0.00    +0.000 OA
ATOM      2  C   UNL     1       0.634   9.755  20.360  0.00  0.00    +0.000 C 
ATOM      3  C   UNL     1       1.373   8.684  19.599  0.00  0.00    +0.000 C 
ATOM      4  C   UNL     1       1.346   9.012  18.119  0.00  0.00    +0.000 C 
ATOM      5  C   UNL     1       1.948  10.388  17.841  0.00  0.00    +0.000 C 
ATOM      6  C   UNL     1       1.595  11.443  18.867  0.00  0.00    +0.000 C 
ATOM      7  C   UNL     1       0.977  11.170  20.041  0.00  0.00    +0.000 C 
ATOM      8  C   UNL     1       0.686  12.254  21.089  0.00  0.00    +0.000 C 
ATOM      9  C   UNL     1       1.210  13.586  20.635  0.00  0.00    +0.000 C 
ATOM     10  C   UNL     1       1.793  13.786  19.444  0.00  0.00    +0.000 C 
ATOM     11  C   UNL     1       2.274  15.178  19.156  0.00  0.00    +0.000 C 
ATOM     12  C   UNL     1       1.719  16.078  20.258  0.00  0.00    +0.000 C 
ATOM     13  S   UNL     1       1.265  14.990  21.608  0.00  0.00    +0.000 S 
ATOM     14  O   UNL     1      -0.053  15.370  22.066  0.00  0.00    +0.000 OA
ATOM     15  O   UNL     1       2.393  14.900  22.514  0.00  0.00    +0.000 OA
ATOM     16  N   UNL     1       1.963  12.749  18.558  0.00  0.00    +0.000 N 
ATOM     17  H   UNL     1       2.502  12.912  17.711  0.00  0.00    +0.000 HD
ENDROOT
BRANCH   8  18
ATOM     18  C   UNL     1      -0.796  12.337  21.454  0.00  0.00    +0.000 A 
ATOM     19  C   UNL     1      -1.172  12.174  22.824  0.00  0.00    +0.000 A 
ATOM     20  C   UNL     1      -2.502  12.209  23.281  0.00  0.00    +0.000 A 
ATOM     21  C   UNL     1      -3.488  12.434  22.295  0.00  0.00    +0.000 A 
ATOM     22  N   UNL     1      -4.812  12.508  22.507  0.00  0.00    +0.000 NA
ATOM     23  S   UNL     1      -5.507  12.792  21.025  0.00  0.00    +0.000 S 
ATOM     24  N   UNL     1      -4.164  12.822  20.045  0.00  0.00    +0.000 NA
ATOM     25  C   UNL     1      -3.109  12.616  20.850  0.00  0.00    +0.000 A 
ATOM     26  C   UNL     1      -1.757  12.562  20.440  0.00  0.00    +0.000 A 
ENDBRANCH   8  18
TORSDOF 1
ENDMDL
MODEL 8
REMARK VINA RESULT:      -6.9      8.973     11.265
REMARK  Name = 
REMARK  1 active torsions:
REMARK  status: ('A' for Active; 'I' for Inactive)
REMARK    1  A    between atoms: C_8  and  C_9
REMARK                            x       y       z     vdW  Elec       q    Type
REMARK                         _______ _______ _______ _____ _____    ______ ____
ROOT
ATOM      1  O   UNL     1       8.763  12.629  20.644  0.00  0.00    +0.000 OA
ATOM      2  C   UNL     1       9.830  12.740  20.048  0.00  0.00    +0.000 C 
ATOM      3  C   UNL     1      10.880  11.662  20.123  0.00  0.00    +0.000 C 
ATOM      4  C   UNL     1      11.425  11.395  18.733  0.00  0.00    +0.000 C 
ATOM      5  C   UNL     1      11.997  12.664  18.105  0.00  0.00    +0.000 C 
ATOM      6  C   UNL     1      11.196  13.917  18.387  0.00  0.00    +0.000 C 
ATOM      7  C   UNL     1      10.179  13.970  19.281  0.00  0.00    +0.000 C 
ATOM      8  C   UNL     1       9.422  15.271  19.590  0.00  0.00    +0.000 C 
ATOM      9  C   UNL     1       9.996  16.416  18.807  0.00  0.00    +0.000 C 
ATOM     10  C   UNL     1      10.992  16.283  17.919  0.00  0.00    +0.000 C 
ATOM     11  C   UNL     1      11.455  17.535  17.234  0.00  0.00    +0.000 C 
ATOM     12  C   UNL     1      10.449  18.631  17.580  0.00  0.00    +0.000 C 
ATOM     13  S   UNL     1       9.565  18.055  19.029  0.00  0.00    +0.000 S 
ATOM     14  O   UNL     1       8.152  18.268  18.807  0.00  0.00    +0.000 OA
ATOM     15  O   UNL     1      10.241  18.572  20.204  0.00  0.00    +0.000 OA
ATOM     16  N   UNL     1      11.569  15.058  17.685  0.00  0.00    +0.000 N 
ATOM     17  H   UNL     1      12.390  15.010  17.085  0.00  0.00    +0.000 HD
ENDROOT
BRANCH   8  18
ATOM     18  C   UNL     1       7.916  15.144  19.363  0.00  0.00    +0.000 A 
ATOM     19  C   UNL     1       7.449  14.801  18.056  0.00  0.00    +0.000 A 
ATOM     20  C   UNL     1       6.090  14.676  17.718  0.00  0.00    +0.000 A 
ATOM     21  C   UNL     1       5.169  14.897  18.766  0.00  0.00    +0.000 A 
ATOM     22  N   UNL     1       3.832  14.828  18.669  0.00  0.00    +0.000 NA
ATOM     23  S   UNL     1       3.235  15.164  20.182  0.00  0.00    +0.000 S 
ATOM     24  N   UNL     1       4.643  15.426  21.027  0.00  0.00    +0.000 NA
ATOM     25  C   UNL     1       5.644  15.251  20.150  0.00  0.00    +0.000 A 
ATOM     26  C   UNL     1       7.023  15.374  20.436  0.00  0.00    +0.000 A 
ENDBRANCH   8  18
TORSDOF 1
ENDMDL
MODEL 9
REMARK VINA RESULT:      -6.9      8.472     10.094
REMARK  Name = 
REMARK  1 active torsions:
REMARK  status: ('A' for Active; 'I' for Inactive)
REMARK    1  A    between atoms: C_8  and  C_9
REMARK                            x       y       z     vdW  Elec       q    Type
REMARK                         _______ _______ _______ _____ _____    ______ ____
ROOT
ATOM      1  O   UNL     1       8.302  15.764  23.345  0.00  0.00    +0.000 OA
ATOM      2  C   UNL     1       8.524  14.587  23.613  0.00  0.00    +0.000 C 
ATOM      3  C   UNL     1       8.653  14.124  25.042  0.00  0.00    +0.000 C 
ATOM      4  C   UNL     1       7.861  12.845  25.227  0.00  0.00    +0.000 C 
ATOM      5  C   UNL     1       8.324  11.756  24.262  0.00  0.00    +0.000 C 
ATOM      6  C   UNL     1       8.660  12.255  22.873  0.00  0.00    +0.000 C 
ATOM      7  C   UNL     1       8.750  13.568  22.550  0.00  0.00    +0.000 C 
ATOM      8  C   UNL     1       9.152  14.044  21.146  0.00  0.00    +0.000 C 
ATOM      9  C   UNL     1       9.452  12.872  20.254  0.00  0.00    +0.000 C 
ATOM     10  C   UNL     1       9.317  11.595  20.638  0.00  0.00    +0.000 C 
ATOM     11  C   UNL     1       9.674  10.547  19.626  0.00  0.00    +0.000 C 
ATOM     12  C   UNL     1       9.870  11.264  18.292  0.00  0.00    +0.000 C 
ATOM     13  S   UNL     1      10.129  12.993  18.689  0.00  0.00    +0.000 S 
ATOM     14  O   UNL     1       9.297  13.785  17.811  0.00  0.00    +0.000 OA
ATOM     15  O   UNL     1      11.556  13.221  18.803  0.00  0.00    +0.000 OA
ATOM     16  N   UNL     1       8.904  11.280  21.911  0.00  0.00    +0.000 N 
ATOM     17  H   UNL     1       8.914  10.305  22.202  0.00  0.00    +0.000 HD
ENDROOT
BRANCH   8  18
ATOM     18  C   UNL     1       8.109  14.967  20.515  0.00  0.00    +0.000 A 
ATOM     19  C   UNL     1       8.527  16.254  20.056  0.00  0.00    +0.000 A 
ATOM     20  C   UNL     1       7.660  17.200  19.479  0.00  0.00    +0.000 A 
ATOM     21  C   UNL     1       6.309  16.804  19.355  0.00  0.00    +0.000 A 
ATOM     22  N   UNL     1       5.316  17.542  18.835  0.00  0.00    +0.000 NA
ATOM     23  S   UNL     1       3.945  16.609  18.921  0.00  0.00    +0.000 S 
ATOM     24  N   UNL     1       4.544  15.231  19.634  0.00  0.00    +0.000 NA
ATOM     25  C   UNL     1       5.854  15.449  19.826  0.00  0.00    +0.000 A 
ATOM     26  C   UNL     1       6.765  14.538  20.409  0.00  0.00    +0.000 A 
ENDBRANCH   8  18
TORSDOF 1
ENDMDL
