MODEL 1
REMARK VINA RESULT:      -6.6      0.000      0.000
REMARK  Name = 
REMARK  8 active torsions:
REMARK  status: ('A' for Active; 'I' for Inactive)
REMARK    1  A    between atoms: C_1  and  O_2
REMARK    2  A    between atoms: O_2  and  C_3
REMARK    3  A    between atoms: C_4  and  O_5
REMARK    4  A    between atoms: C_9  and  O_10
REMARK    5  A    between atoms: C_13  and  C_14
REMARK    6  A    between atoms: C_14  and  O_15
REMARK    7  A    between atoms: C_16  and  O_17
REMARK    8  A    between atoms: C_18  and  O_19
REMARK                            x       y       z     vdW  Elec       q    Type
REMARK                         _______ _______ _______ _____ _____    ______ ____
ROOT
ATOM      1  C   UNL     1       3.349   3.788  20.301  0.00  0.00    +0.000 A 
ATOM      2  C   UNL     1       4.264   3.596  19.261  0.00  0.00    +0.000 A 
ATOM      3  C   UNL     1       4.486   4.569  18.294  0.00  0.00    +0.000 A 
ATOM      4  C   UNL     1       3.759   5.765  18.341  0.00  0.00    +0.000 A 
ATOM      5  C   UNL     1       2.825   5.984  19.358  0.00  0.00    +0.000 A 
ATOM      6  C   UNL     1       2.667   5.006  20.359  0.00  0.00    +0.000 A 
ATOM      7  C   UNL     1       1.937   7.196  19.330  0.00  0.00    +0.000 C 
ATOM      8  O   UNL     1       2.031   7.850  20.604  0.00  0.00    +0.000 OA
ATOM      9  C   UNL     1       1.042   8.874  20.802  0.00  0.00    +0.000 C 
ATOM     10  C   UNL     1       0.970   9.862  19.626  0.00  0.00    +0.000 C 
ATOM     11  C   UNL     1       2.062   9.618  18.575  0.00  0.00    +0.000 C 
ATOM     12  C   UNL     1       2.197   8.143  18.158  0.00  0.00    +0.000 C 
ATOM     13  O   UNL     1       3.515   8.015  17.574  0.00  0.00    +0.000 OA
ATOM     14  C   UNL     1       4.049   6.799  17.324  0.00  0.00    +0.000 C 
ATOM     15  O   UNL     1       4.808   6.599  16.389  0.00  0.00    +0.000 OA
ENDROOT
BRANCH   1  17
ATOM     16  C   UNL     1       1.939   2.266  21.456  0.00  0.00    +0.000 C 
ATOM     17  O   UNL     1       3.254   2.733  21.172  0.00  0.00    +0.000 OA
ENDBRANCH   1  17
BRANCH   2  18
ATOM     18  O   UNL     1       4.968   2.426  19.164  0.00  0.00    +0.000 OA
ATOM     19  H   UNL     1       4.303   1.716  19.251  0.00  0.00    +0.000 HD
ENDBRANCH   2  18
BRANCH   6  20
ATOM     20  O   UNL     1       1.846   5.293  21.419  0.00  0.00    +0.000 OA
ATOM     21  H   UNL     1       1.675   4.445  21.879  0.00  0.00    +0.000 HD
ENDBRANCH   6  20
BRANCH  10  22
ATOM     22  O   UNL     1       1.075  11.200  20.150  0.00  0.00    +0.000 OA
ATOM     23  H   UNL     1       1.999  11.494  20.056  0.00  0.00    +0.000 HD
ENDBRANCH  10  22
BRANCH  11  24
ATOM     24  O   UNL     1       1.808  10.428  17.416  0.00  0.00    +0.000 OA
ATOM     25  H   UNL     1       1.052  11.015  17.587  0.00  0.00    +0.000 HD
ENDBRANCH  11  24
BRANCH   9  26
ATOM     26  C   UNL     1      -0.343   8.284  21.144  0.00  0.00    +0.000 C 
BRANCH  26  27
ATOM     27  O   UNL     1      -0.722   8.516  22.493  0.00  0.00    +0.000 OA
ATOM     28  H   UNL     1      -1.246   9.335  22.539  0.00  0.00    +0.000 HD
ENDBRANCH  26  27
ENDBRANCH   9  26
TORSDOF 7
ENDMDL
MODEL 2
REMARK VINA RESULT:      -6.5      1.366      5.580
REMARK  Name = 
REMARK  8 active torsions:
REMARK  status: ('A' for Active; 'I' for Inactive)
REMARK    1  A    between atoms: C_1  and  O_2
REMARK    2  A    between atoms: O_2  and  C_3
REMARK    3  A    between atoms: C_4  and  O_5
REMARK    4  A    between atoms: C_9  and  O_10
REMARK    5  A    between atoms: C_13  and  C_14
REMARK    6  A    between atoms: C_14  and  O_15
REMARK    7  A    between atoms: C_16  and  O_17
REMARK    8  A    between atoms: C_18  and  O_19
REMARK                            x       y       z     vdW  Elec       q    Type
REMARK                         _______ _______ _______ _____ _____    ______ ____
ROOT
ATOM      1  C   UNL     1       1.292   8.239  20.236  0.00  0.00    +0.000 A 
ATOM      2  C   UNL     1       1.682   9.093  19.200  0.00  0.00    +0.000 A 
ATOM      3  C   UNL     1       2.501   8.660  18.164  0.00  0.00    +0.000 A 
ATOM      4  C   UNL     1       2.972   7.342  18.165  0.00  0.00    +0.000 A 
ATOM      5  C   UNL     1       2.616   6.464  19.192  0.00  0.00    +0.000 A 
ATOM      6  C   UNL     1       1.734   6.913  20.195  0.00  0.00    +0.000 A 
ATOM      7  C   UNL     1       3.236   5.098  19.280  0.00  0.00    +0.000 C 
ATOM      8  O   UNL     1       2.181   4.134  19.404  0.00  0.00    +0.000 OA
ATOM      9  C   UNL     1       2.640   2.817  19.752  0.00  0.00    +0.000 C 
ATOM     10  C   UNL     1       3.790   2.335  18.852  0.00  0.00    +0.000 C 
ATOM     11  C   UNL     1       4.091   3.303  17.699  0.00  0.00    +0.000 C 
ATOM     12  C   UNL     1       4.206   4.772  18.144  0.00  0.00    +0.000 C 
ATOM     13  O   UNL     1       4.009   5.565  16.949  0.00  0.00    +0.000 OA
ATOM     14  C   UNL     1       3.807   6.898  17.026  0.00  0.00    +0.000 C 
ATOM     15  O   UNL     1       4.186   7.667  16.157  0.00  0.00    +0.000 OA
ENDROOT
BRANCH   1  17
ATOM     16  C   UNL     1       1.103   9.208  22.395  0.00  0.00    +0.000 C 
ATOM     17  O   UNL     1       0.480   8.821  21.174  0.00  0.00    +0.000 OA
ENDBRANCH   1  17
BRANCH   2  18
ATOM     18  O   UNL     1       1.267  10.397  19.185  0.00  0.00    +0.000 OA
ATOM     19  H   UNL     1       1.691  10.796  18.400  0.00  0.00    +0.000 HD
ENDBRANCH   2  18
BRANCH   6  20
ATOM     20  O   UNL     1       1.290   6.004  21.120  0.00  0.00    +0.000 OA
ATOM     21  H   UNL     1       2.080   5.692  21.608  0.00  0.00    +0.000 HD
ENDBRANCH   6  20
BRANCH  10  22
ATOM     22  O   UNL     1       3.444   1.035  18.331  0.00  0.00    +0.000 OA
ATOM     23  H   UNL     1       4.262   0.600  18.028  0.00  0.00    +0.000 HD
ENDBRANCH  10  22
BRANCH  11  24
ATOM     24  O   UNL     1       5.300   2.902  17.034  0.00  0.00    +0.000 OA
ATOM     25  H   UNL     1       5.628   2.074  17.423  0.00  0.00    +0.000 HD
ENDBRANCH  11  24
BRANCH   9  26
ATOM     26  C   UNL     1       2.996   2.704  21.250  0.00  0.00    +0.000 C 
BRANCH  26  27
ATOM     27  O   UNL     1       2.012   3.282  22.094  0.00  0.00    +0.000 OA
ATOM     28  H   UNL     1       1.402   3.815  21.553  0.00  0.00    +0.000 HD
ENDBRANCH  26  27
ENDBRANCH   9  26
TORSDOF 7
ENDMDL
MODEL 3
REMARK VINA RESULT:      -6.5      1.433      5.650
REMARK  Name = 
REMARK  8 active torsions:
REMARK  status: ('A' for Active; 'I' for Inactive)
REMARK    1  A    between atoms: C_1  and  O_2
REMARK    2  A    between atoms: O_2  and  C_3
REMARK    3  A    between atoms: C_4  and  O_5
REMARK    4  A    between atoms: C_9  and  O_10
REMARK    5  A    between atoms: C_13  and  C_14
REMARK    6  A    between atoms: C_14  and  O_15
REMARK    7  A    between atoms: C_16  and  O_17
REMARK    8  A    between atoms: C_18  and  O_19
REMARK                            x       y       z     vdW  Elec       q    Type
REMARK                         _______ _______ _______ _____ _____    ______ ____
ROOT
ATOM      1  C   UNL     1       1.605   9.001  19.346  0.00  0.00    +0.000 A 
ATOM      2  C   UNL     1       2.301   9.522  18.250  0.00  0.00    +0.000 A 
ATOM      3  C   UNL     1       3.108   8.723  17.450  0.00  0.00    +0.000 A 
ATOM      4  C   UNL     1       3.253   7.365  17.757  0.00  0.00    +0.000 A 
ATOM      5  C   UNL     1       2.585   6.813  18.854  0.00  0.00    +0.000 A 
ATOM      6  C   UNL     1       1.725   7.634  19.610  0.00  0.00    +0.000 A 
ATOM      7  C   UNL     1       2.853   5.396  19.279  0.00  0.00    +0.000 C 
ATOM      8  O   UNL     1       1.594   4.720  19.403  0.00  0.00    +0.000 OA
ATOM      9  C   UNL     1       1.688   3.438  20.046  0.00  0.00    +0.000 C 
ATOM     10  C   UNL     1       2.787   2.551  19.438  0.00  0.00    +0.000 C 
ATOM     11  C   UNL     1       3.438   3.175  18.195  0.00  0.00    +0.000 C 
ATOM     12  C   UNL     1       3.843   4.647  18.386  0.00  0.00    +0.000 C 
ATOM     13  O   UNL     1       3.975   5.198  17.054  0.00  0.00    +0.000 OA
ATOM     14  C   UNL     1       4.084   6.530  16.862  0.00  0.00    +0.000 C 
ATOM     15  O   UNL     1       4.731   7.006  15.942  0.00  0.00    +0.000 OA
ENDROOT
BRANCH   1  17
ATOM     16  C   UNL     1      -0.518  10.021  19.644  0.00  0.00    +0.000 C 
ATOM     17  O   UNL     1       0.850   9.921  20.026  0.00  0.00    +0.000 OA
ENDBRANCH   1  17
BRANCH   2  18
ATOM     18  O   UNL     1       2.208  10.851  17.940  0.00  0.00    +0.000 OA
ATOM     19  H   UNL     1       3.120  11.197  18.004  0.00  0.00    +0.000 HD
ENDBRANCH   2  18
BRANCH   6  20
ATOM     20  O   UNL     1       0.977   7.049  20.599  0.00  0.00    +0.000 OA
ATOM     21  H   UNL     1       0.038   7.221  20.379  0.00  0.00    +0.000 HD
ENDBRANCH   6  20
BRANCH  10  22
ATOM     22  O   UNL     1       2.208   1.273  19.107  0.00  0.00    +0.000 OA
ATOM     23  H   UNL     1       2.911   0.703  18.745  0.00  0.00    +0.000 HD
ENDBRANCH  10  22
BRANCH  11  24
ATOM     24  O   UNL     1       4.587   2.402  17.811  0.00  0.00    +0.000 OA
ATOM     25  H   UNL     1       5.041   2.075  18.605  0.00  0.00    +0.000 HD
ENDBRANCH  11  24
BRANCH   9  26
ATOM     26  C   UNL     1       1.833   3.566  21.577  0.00  0.00    +0.000 C 
BRANCH  26  27
ATOM     27  O   UNL     1       2.583   2.506  22.150  0.00  0.00    +0.000 OA
ATOM     28  H   UNL     1       2.404   2.471  23.107  0.00  0.00    +0.000 HD
ENDBRANCH  26  27
ENDBRANCH   9  26
TORSDOF 7
ENDMDL
MODEL 4
REMARK VINA RESULT:      -6.3      2.385      5.545
REMARK  Name = 
REMARK  8 active torsions:
REMARK  status: ('A' for Active; 'I' for Inactive)
REMARK    1  A    between atoms: C_1  and  O_2
REMARK    2  A    between atoms: O_2  and  C_3
REMARK    3  A    between atoms: C_4  and  O_5
REMARK    4  A    between atoms: C_9  and  O_10
REMARK    5  A    between atoms: C_13  and  C_14
REMARK    6  A    between atoms: C_14  and  O_15
REMARK    7  A    between atoms: C_16  and  O_17
REMARK    8  A    between atoms: C_18  and  O_19
REMARK                            x       y       z     vdW  Elec       q    Type
REMARK                         _______ _______ _______ _____ _____    ______ ____
ROOT
ATOM      1  C   UNL     1       5.631   4.344  15.478  0.00  0.00    +0.000 A 
ATOM      2  C   UNL     1       5.720   5.715  15.219  0.00  0.00    +0.000 A 
ATOM      3  C   UNL     1       5.046   6.650  15.995  0.00  0.00    +0.000 A 
ATOM      4  C   UNL     1       4.234   6.214  17.049  0.00  0.00    +0.000 A 
ATOM      5  C   UNL     1       4.109   4.850  17.327  0.00  0.00    +0.000 A 
ATOM      6  C   UNL     1       4.853   3.929  16.563  0.00  0.00    +0.000 A 
ATOM      7  C   UNL     1       3.126   4.367  18.356  0.00  0.00    +0.000 C 
ATOM      8  O   UNL     1       3.819   3.498  19.264  0.00  0.00    +0.000 OA
ATOM      9  C   UNL     1       2.947   2.767  20.142  0.00  0.00    +0.000 C 
ATOM     10  C   UNL     1       1.921   3.672  20.844  0.00  0.00    +0.000 C 
ATOM     11  C   UNL     1       2.149   5.164  20.560  0.00  0.00    +0.000 C 
ATOM     12  C   UNL     1       2.361   5.481  19.070  0.00  0.00    +0.000 C 
ATOM     13  O   UNL     1       3.016   6.772  19.028  0.00  0.00    +0.000 OA
ATOM     14  C   UNL     1       3.564   7.235  17.884  0.00  0.00    +0.000 C 
ATOM     15  O   UNL     1       3.604   8.426  17.616  0.00  0.00    +0.000 OA
ENDROOT
BRANCH   1  17
ATOM     16  C   UNL     1       5.906   3.501  13.275  0.00  0.00    +0.000 C 
ATOM     17  O   UNL     1       6.361   3.558  14.624  0.00  0.00    +0.000 OA
ENDBRANCH   1  17
BRANCH   2  18
ATOM     18  O   UNL     1       6.478   6.175  14.177  0.00  0.00    +0.000 OA
ATOM     19  H   UNL     1       5.843   6.571  13.549  0.00  0.00    +0.000 HD
ENDBRANCH   2  18
BRANCH   6  20
ATOM     20  O   UNL     1       4.823   2.609  16.932  0.00  0.00    +0.000 OA
ATOM     21  H   UNL     1       4.872   2.086  16.105  0.00  0.00    +0.000 HD
ENDBRANCH   6  20
BRANCH  10  22
ATOM     22  O   UNL     1       1.988   3.421  22.262  0.00  0.00    +0.000 OA
ATOM     23  H   UNL     1       2.671   2.744  22.421  0.00  0.00    +0.000 HD
ENDBRANCH  10  22
BRANCH  11  24
ATOM     24  O   UNL     1       1.041   5.928  21.066  0.00  0.00    +0.000 OA
ATOM     25  H   UNL     1       1.373   6.663  21.609  0.00  0.00    +0.000 HD
ENDBRANCH  11  24
BRANCH   9  26
ATOM     26  C   UNL     1       2.271   1.576  19.430  0.00  0.00    +0.000 C 
BRANCH  26  27
ATOM     27  O   UNL     1       3.077   1.021  18.402  0.00  0.00    +0.000 OA
ATOM     28  H   UNL     1       3.846   0.578  18.804  0.00  0.00    +0.000 HD
ENDBRANCH  26  27
ENDBRANCH   9  26
TORSDOF 7
ENDMDL
MODEL 5
REMARK VINA RESULT:      -6.2      6.118      9.159
REMARK  Name = 
REMARK  8 active torsions:
REMARK  status: ('A' for Active; 'I' for Inactive)
REMARK    1  A    between atoms: C_1  and  O_2
REMARK    2  A    between atoms: O_2  and  C_3
REMARK    3  A    between atoms: C_4  and  O_5
REMARK    4  A    between atoms: C_9  and  O_10
REMARK    5  A    between atoms: C_13  and  C_14
REMARK    6  A    between atoms: C_14  and  O_15
REMARK    7  A    between atoms: C_16  and  O_17
REMARK    8  A    between atoms: C_18  and  O_19
REMARK                            x       y       z     vdW  Elec       q    Type
REMARK                         _______ _______ _______ _____ _____    ______ ____
ROOT
ATOM      1  C   UNL     1      -1.998  11.709  18.499  0.00  0.00    +0.000 A 
ATOM      2  C   UNL     1      -0.833  11.120  19.001  0.00  0.00    +0.000 A 
ATOM      3  C   UNL     1      -0.593  11.025  20.367  0.00  0.00    +0.000 A 
ATOM      4  C   UNL     1      -1.523  11.554  21.268  0.00  0.00    +0.000 A 
ATOM      5  C   UNL     1      -2.691  12.164  20.802  0.00  0.00    +0.000 A 
ATOM      6  C   UNL     1      -2.938  12.190  19.415  0.00  0.00    +0.000 A 
ATOM      7  C   UNL     1      -3.620  12.865  21.754  0.00  0.00    +0.000 C 
ATOM      8  O   UNL     1      -4.947  12.368  21.533  0.00  0.00    +0.000 OA
ATOM      9  C   UNL     1      -5.968  13.133  22.195  0.00  0.00    +0.000 C 
ATOM     10  C   UNL     1      -5.657  13.371  23.682  0.00  0.00    +0.000 C 
ATOM     11  C   UNL     1      -4.405  12.621  24.157  0.00  0.00    +0.000 C 
ATOM     12  C   UNL     1      -3.195  12.789  23.220  0.00  0.00    +0.000 C 
ATOM     13  O   UNL     1      -2.303  11.690  23.524  0.00  0.00    +0.000 OA
ATOM     14  C   UNL     1      -1.260  11.400  22.716  0.00  0.00    +0.000 C 
ATOM     15  O   UNL     1      -0.215  10.934  23.142  0.00  0.00    +0.000 OA
ENDROOT
BRANCH   1  17
ATOM     16  C   UNL     1      -2.845  10.668  16.541  0.00  0.00    +0.000 C 
ATOM     17  O   UNL     1      -2.084  11.717  17.131  0.00  0.00    +0.000 OA
ENDBRANCH   1  17
BRANCH   2  18
ATOM     18  O   UNL     1       0.114  10.622  18.149  0.00  0.00    +0.000 OA
ATOM     19  H   UNL     1       0.648  10.005  18.686  0.00  0.00    +0.000 HD
ENDBRANCH   2  18
BRANCH   6  20
ATOM     20  O   UNL     1      -4.147  12.671  18.982  0.00  0.00    +0.000 OA
ATOM     21  H   UNL     1      -4.324  12.247  18.117  0.00  0.00    +0.000 HD
ENDBRANCH   6  20
BRANCH  10  22
ATOM     22  O   UNL     1      -6.803  12.963  24.456  0.00  0.00    +0.000 OA
ATOM     23  H   UNL     1      -6.498  12.717  25.348  0.00  0.00    +0.000 HD
ENDBRANCH  10  22
BRANCH  11  24
ATOM     24  O   UNL     1      -4.055  13.053  25.482  0.00  0.00    +0.000 OA
ATOM     25  H   UNL     1      -3.103  12.922  25.628  0.00  0.00    +0.000 HD
ENDBRANCH  11  24
BRANCH   9  26
ATOM     26  C   UNL     1      -6.278  14.451  21.454  0.00  0.00    +0.000 C 
BRANCH  26  27
ATOM     27  O   UNL     1      -6.375  14.282  20.048  0.00  0.00    +0.000 OA
ATOM     28  H   UNL     1      -5.552  13.876  19.719  0.00  0.00    +0.000 HD
ENDBRANCH  26  27
ENDBRANCH   9  26
TORSDOF 7
ENDMDL
MODEL 6
REMARK VINA RESULT:      -6.2      1.479      6.411
REMARK  Name = 
REMARK  8 active torsions:
REMARK  status: ('A' for Active; 'I' for Inactive)
REMARK    1  A    between atoms: C_1  and  O_2
REMARK    2  A    between atoms: O_2  and  C_3
REMARK    3  A    between atoms: C_4  and  O_5
REMARK    4  A    between atoms: C_9  and  O_10
REMARK    5  A    between atoms: C_13  and  C_14
REMARK    6  A    between atoms: C_14  and  O_15
REMARK    7  A    between atoms: C_16  and  O_17
REMARK    8  A    between atoms: C_18  and  O_19
REMARK                            x       y       z     vdW  Elec       q    Type
REMARK                         _______ _______ _______ _____ _____    ______ ____
ROOT
ATOM      1  C   UNL     1       1.401   8.749  19.764  0.00  0.00    +0.000 A 
ATOM      2  C   UNL     1       0.762   8.098  20.824  0.00  0.00    +0.000 A 
ATOM      3  C   UNL     1       1.005   6.761  21.113  0.00  0.00    +0.000 A 
ATOM      4  C   UNL     1       1.891   6.032  20.310  0.00  0.00    +0.000 A 
ATOM      5  C   UNL     1       2.535   6.646  19.232  0.00  0.00    +0.000 A 
ATOM      6  C   UNL     1       2.318   8.019  19.002  0.00  0.00    +0.000 A 
ATOM      7  C   UNL     1       3.369   5.837  18.279  0.00  0.00    +0.000 C 
ATOM      8  O   UNL     1       4.650   6.472  18.153  0.00  0.00    +0.000 OA
ATOM      9  C   UNL     1       5.451   5.947  17.082  0.00  0.00    +0.000 C 
ATOM     10  C   UNL     1       5.543   4.413  17.109  0.00  0.00    +0.000 C 
ATOM     11  C   UNL     1       4.881   3.797  18.349  0.00  0.00    +0.000 C 
ATOM     12  C   UNL     1       3.475   4.354  18.636  0.00  0.00    +0.000 C 
ATOM     13  O   UNL     1       3.208   4.058  20.028  0.00  0.00    +0.000 OA
ATOM     14  C   UNL     1       2.162   4.623  20.669  0.00  0.00    +0.000 C 
ATOM     15  O   UNL     1       1.557   4.050  21.562  0.00  0.00    +0.000 OA
ENDROOT
BRANCH   1  17
ATOM     16  C   UNL     1       0.124  10.365  18.582  0.00  0.00    +0.000 C 
ATOM     17  O   UNL     1       1.055  10.067  19.618  0.00  0.00    +0.000 OA
ENDBRANCH   1  17
BRANCH   2  18
ATOM     18  O   UNL     1      -0.135   8.770  21.609  0.00  0.00    +0.000 OA
ATOM     19  H   UNL     1      -0.984   8.726  21.128  0.00  0.00    +0.000 HD
ENDBRANCH   2  18
BRANCH   6  20
ATOM     20  O   UNL     1       3.057   8.636  18.025  0.00  0.00    +0.000 OA
ATOM     21  H   UNL     1       3.857   8.088  17.892  0.00  0.00    +0.000 HD
ENDBRANCH   6  20
BRANCH  10  22
ATOM     22  O   UNL     1       6.935   4.040  17.053  0.00  0.00    +0.000 OA
ATOM     23  H   UNL     1       7.010   3.211  16.546  0.00  0.00    +0.000 HD
ENDBRANCH  10  22
BRANCH  11  24
ATOM     24  O   UNL     1       4.816   2.369  18.205  0.00  0.00    +0.000 OA
ATOM     25  H   UNL     1       5.694   2.024  17.970  0.00  0.00    +0.000 HD
ENDBRANCH  11  24
BRANCH   9  26
ATOM     26  C   UNL     1       4.993   6.472  15.704  0.00  0.00    +0.000 C 
BRANCH  26  27
ATOM     27  O   UNL     1       5.725   5.905  14.628  0.00  0.00    +0.000 OA
ATOM     28  H   UNL     1       5.270   5.100  14.323  0.00  0.00    +0.000 HD
ENDBRANCH  26  27
ENDBRANCH   9  26
TORSDOF 7
ENDMDL
MODEL 7
REMARK VINA RESULT:      -6.1      9.032     10.742
REMARK  Name = 
REMARK  8 active torsions:
REMARK  status: ('A' for Active; 'I' for Inactive)
REMARK    1  A    between atoms: C_1  and  O_2
REMARK    2  A    between atoms: O_2  and  C_3
REMARK    3  A    between atoms: C_4  and  O_5
REMARK    4  A    between atoms: C_9  and  O_10
REMARK    5  A    between atoms: C_13  and  C_14
REMARK    6  A    between atoms: C_14  and  O_15
REMARK    7  A    between atoms: C_16  and  O_17
REMARK    8  A    between atoms: C_18  and  O_19
REMARK                            x       y       z     vdW  Elec       q    Type
REMARK                         _______ _______ _______ _____ _____    ______ ____
ROOT
ATOM      1  C   UNL     1       7.958  13.241  22.381  0.00  0.00    +0.000 A 
ATOM      2  C   UNL     1       8.622  12.012  22.306  0.00  0.00    +0.000 A 
ATOM      3  C   UNL     1       9.480  11.709  21.256  0.00  0.00    +0.000 A 
ATOM      4  C   UNL     1       9.670  12.642  20.230  0.00  0.00    +0.000 A 
ATOM      5  C   UNL     1       9.010  13.874  20.264  0.00  0.00    +0.000 A 
ATOM      6  C   UNL     1       8.196  14.179  21.373  0.00  0.00    +0.000 A 
ATOM      7  C   UNL     1       9.091  14.817  19.097  0.00  0.00    +0.000 C 
ATOM      8  O   UNL     1       9.480  16.108  19.589  0.00  0.00    +0.000 OA
ATOM      9  C   UNL     1       9.347  17.159  18.618  0.00  0.00    +0.000 C 
ATOM     10  C   UNL     1      10.003  16.808  17.273  0.00  0.00    +0.000 C 
ATOM     11  C   UNL     1      10.773  15.480  17.313  0.00  0.00    +0.000 C 
ATOM     12  C   UNL     1       9.977  14.328  17.951  0.00  0.00    +0.000 C 
ATOM     13  O   UNL     1      10.959  13.337  18.341  0.00  0.00    +0.000 OA
ATOM     14  C   UNL     1      10.622  12.308  19.149  0.00  0.00    +0.000 C 
ATOM     15  O   UNL     1      11.153  11.212  19.063  0.00  0.00    +0.000 OA
ENDROOT
BRANCH   1  17
ATOM     16  C   UNL     1       5.753  13.257  23.261  0.00  0.00    +0.000 C 
ATOM     17  O   UNL     1       7.154  13.383  23.483  0.00  0.00    +0.000 OA
ENDBRANCH   1  17
BRANCH   2  18
ATOM     18  O   UNL     1       8.434  11.064  23.274  0.00  0.00    +0.000 OA
ATOM     19  H   UNL     1       8.549  11.533  24.123  0.00  0.00    +0.000 HD
ENDBRANCH   2  18
BRANCH   6  20
ATOM     20  O   UNL     1       7.663  15.439  21.456  0.00  0.00    +0.000 OA
ATOM     21  H   UNL     1       8.373  16.022  21.796  0.00  0.00    +0.000 HD
ENDBRANCH   6  20
BRANCH  10  22
ATOM     22  O   UNL     1      10.890  17.884  16.906  0.00  0.00    +0.000 OA
ATOM     23  H   UNL     1      11.397  18.146  17.695  0.00  0.00    +0.000 HD
ENDBRANCH  10  22
BRANCH  11  24
ATOM     24  O   UNL     1      11.174  15.113  15.983  0.00  0.00    +0.000 OA
ATOM     25  H   UNL     1      12.032  14.656  16.015  0.00  0.00    +0.000 HD
ENDBRANCH  11  24
BRANCH   9  26
ATOM     26  C   UNL     1       7.880  17.606  18.444  0.00  0.00    +0.000 C 
BRANCH  26  27
ATOM     27  O   UNL     1       7.276  18.003  19.666  0.00  0.00    +0.000 OA
ATOM     28  H   UNL     1       6.349  17.704  19.674  0.00  0.00    +0.000 HD
ENDBRANCH  26  27
ENDBRANCH   9  26
TORSDOF 7
ENDMDL
MODEL 8
REMARK VINA RESULT:      -6.1      1.329      3.916
REMARK  Name = 
REMARK  8 active torsions:
REMARK  status: ('A' for Active; 'I' for Inactive)
REMARK    1  A    between atoms: C_1  and  O_2
REMARK    2  A    between atoms: O_2  and  C_3
REMARK    3  A    between atoms: C_4  and  O_5
REMARK    4  A    between atoms: C_9  and  O_10
REMARK    5  A    between atoms: C_13  and  C_14
REMARK    6  A    between atoms: C_14  and  O_15
REMARK    7  A    between atoms: C_16  and  O_17
REMARK    8  A    between atoms: C_18  and  O_19
REMARK                            x       y       z     vdW  Elec       q    Type
REMARK                         _______ _______ _______ _____ _____    ______ ____
ROOT
ATOM      1  C   UNL     1       4.341   5.185  17.126  0.00  0.00    +0.000 A 
ATOM      2  C   UNL     1       4.234   4.062  17.952  0.00  0.00    +0.000 A 
ATOM      3  C   UNL     1       3.500   4.090  19.131  0.00  0.00    +0.000 A 
ATOM      4  C   UNL     1       2.870   5.278  19.523  0.00  0.00    +0.000 A 
ATOM      5  C   UNL     1       2.969   6.425  18.729  0.00  0.00    +0.000 A 
ATOM      6  C   UNL     1       3.667   6.349  17.508  0.00  0.00    +0.000 A 
ATOM      7  C   UNL     1       2.424   7.739  19.214  0.00  0.00    +0.000 C 
ATOM      8  O   UNL     1       1.579   8.279  18.188  0.00  0.00    +0.000 OA
ATOM      9  C   UNL     1       1.198   9.647  18.416  0.00  0.00    +0.000 C 
ATOM     10  C   UNL     1       0.645   9.879  19.831  0.00  0.00    +0.000 C 
ATOM     11  C   UNL     1       0.491   8.578  20.632  0.00  0.00    +0.000 C 
ATOM     12  C   UNL     1       1.733   7.671  20.576  0.00  0.00    +0.000 C 
ATOM     13  O   UNL     1       1.274   6.348  20.944  0.00  0.00    +0.000 OA
ATOM     14  C   UNL     1       2.061   5.265  20.761  0.00  0.00    +0.000 C 
ATOM     15  O   UNL     1       2.019   4.296  21.502  0.00  0.00    +0.000 OA
ENDROOT
BRANCH   1  17
ATOM     16  C   UNL     1       6.434   5.476  16.041  0.00  0.00    +0.000 C 
ATOM     17  O   UNL     1       5.096   4.988  15.998  0.00  0.00    +0.000 OA
ENDBRANCH   1  17
BRANCH   2  18
ATOM     18  O   UNL     1       4.864   2.894  17.618  0.00  0.00    +0.000 OA
ATOM     19  H   UNL     1       4.890   2.884  16.641  0.00  0.00    +0.000 HD
ENDBRANCH   2  18
BRANCH   6  20
ATOM     20  O   UNL     1       3.643   7.441  16.680  0.00  0.00    +0.000 OA
ATOM     21  H   UNL     1       4.564   7.585  16.379  0.00  0.00    +0.000 HD
ENDBRANCH   6  20
BRANCH  10  22
ATOM     22  O   UNL     1      -0.628  10.545  19.718  0.00  0.00    +0.000 OA
ATOM     23  H   UNL     1      -0.750  10.818  18.790  0.00  0.00    +0.000 HD
ENDBRANCH  10  22
BRANCH  11  24
ATOM     24  O   UNL     1       0.178   8.886  22.000  0.00  0.00    +0.000 OA
ATOM     25  H   UNL     1      -0.248   9.758  22.049  0.00  0.00    +0.000 HD
ENDBRANCH  11  24
BRANCH   9  26
ATOM     26  C   UNL     1       2.337  10.630  18.074  0.00  0.00    +0.000 C 
BRANCH  26  27
ATOM     27  O   UNL     1       1.914  11.986  18.081  0.00  0.00    +0.000 OA
ATOM     28  H   UNL     1       2.124  12.388  17.219  0.00  0.00    +0.000 HD
ENDBRANCH  26  27
ENDBRANCH   9  26
TORSDOF 7
ENDMDL
MODEL 9
REMARK VINA RESULT:      -6.0      9.150     11.158
REMARK  Name = 
REMARK  8 active torsions:
REMARK  status: ('A' for Active; 'I' for Inactive)
REMARK    1  A    between atoms: C_1  and  O_2
REMARK    2  A    between atoms: O_2  and  C_3
REMARK    3  A    between atoms: C_4  and  O_5
REMARK    4  A    between atoms: C_9  and  O_10
REMARK    5  A    between atoms: C_13  and  C_14
REMARK    6  A    between atoms: C_14  and  O_15
REMARK    7  A    between atoms: C_16  and  O_17
REMARK    8  A    between atoms: C_18  and  O_19
REMARK                            x       y       z     vdW  Elec       q    Type
REMARK                         _______ _______ _______ _____ _____    ______ ____
ROOT
ATOM      1  C   UNL     1      10.696  14.921  17.836  0.00  0.00    +0.000 A 
ATOM      2  C   UNL     1      10.773  13.721  17.122  0.00  0.00    +0.000 A 
ATOM      3  C   UNL     1      10.424  12.506  17.698  0.00  0.00    +0.000 A 
ATOM      4  C   UNL     1      10.008  12.471  19.034  0.00  0.00    +0.000 A 
ATOM      5  C   UNL     1       9.934  13.649  19.783  0.00  0.00    +0.000 A 
ATOM      6  C   UNL     1      10.234  14.874  19.154  0.00  0.00    +0.000 A 
ATOM      7  C   UNL     1       9.633  13.603  21.254  0.00  0.00    +0.000 C 
ATOM      8  O   UNL     1       8.556  14.511  21.521  0.00  0.00    +0.000 OA
ATOM      9  C   UNL     1       8.339  14.755  22.921  0.00  0.00    +0.000 C 
ATOM     10  C   UNL     1       8.244  13.456  23.739  0.00  0.00    +0.000 C 
ATOM     11  C   UNL     1       8.259  12.196  22.861  0.00  0.00    +0.000 C 
ATOM     12  C   UNL     1       9.374  12.199  21.801  0.00  0.00    +0.000 C 
ATOM     13  O   UNL     1       8.968  11.237  20.798  0.00  0.00    +0.000 OA
ATOM     14  C   UNL     1       9.602  11.168  19.606  0.00  0.00    +0.000 C 
ATOM     15  O   UNL     1       9.726  10.120  18.993  0.00  0.00    +0.000 OA
ENDROOT
BRANCH   1  17
ATOM     16  C   UNL     1      12.333  16.598  17.454  0.00  0.00    +0.000 C 
ATOM     17  O   UNL     1      11.071  16.029  17.120  0.00  0.00    +0.000 OA
ENDBRANCH   1  17
BRANCH   2  18
ATOM     18  O   UNL     1      11.207  13.713  15.825  0.00  0.00    +0.000 OA
ATOM     19  H   UNL     1      10.406  13.849  15.282  0.00  0.00    +0.000 HD
ENDBRANCH   2  18
BRANCH   6  20
ATOM     20  O   UNL     1      10.029  16.031  19.861  0.00  0.00    +0.000 OA
ATOM     21  H   UNL     1      10.226  15.825  20.798  0.00  0.00    +0.000 HD
ENDBRANCH   6  20
BRANCH  10  22
ATOM     22  O   UNL     1       7.035  13.500  24.523  0.00  0.00    +0.000 OA
ATOM     23  H   UNL     1       7.250  13.229  25.433  0.00  0.00    +0.000 HD
ENDBRANCH  10  22
BRANCH  11  24
ATOM     24  O   UNL     1       8.383  11.030  23.692  0.00  0.00    +0.000 OA
ATOM     25  H   UNL     1       8.186  11.263  24.614  0.00  0.00    +0.000 HD
ENDBRANCH  11  24
BRANCH   9  26
ATOM     26  C   UNL     1       9.380  15.730  23.508  0.00  0.00    +0.000 C 
BRANCH  26  27
ATOM     27  O   UNL     1       9.621  16.849  22.669  0.00  0.00    +0.000 OA
ATOM     28  H   UNL     1      10.582  16.986  22.589  0.00  0.00    +0.000 HD
ENDBRANCH  26  27
ENDBRANCH   9  26
TORSDOF 7
ENDMDL
