MODEL 1
REMARK VINA RESULT:      -7.3      0.000      0.000
REMARK  Name = 
REMARK  2 active torsions:
REMARK  status: ('A' for Active; 'I' for Inactive)
REMARK    1  A    between atoms: N_3  and  C_4
REMARK    2  A    between atoms: N_10  and  C_11
REMARK                            x       y       z     vdW  Elec       q    Type
REMARK                         _______ _______ _______ _____ _____    ______ ____
ROOT
ATOM      1  O   UNL     1       4.447   3.117  17.234  0.00  0.00    +0.000 OA
ATOM      2  C   UNL     1       4.803   3.445  18.359  0.00  0.00    +0.000 C 
ATOM      3  N   UNL     1       5.950   4.163  18.646  0.00  0.00    +0.000 N 
ATOM      4  N   UNL     1       4.079   3.219  19.491  0.00  0.00    +0.000 N 
ATOM      5  H   UNL     1       6.284   4.145  19.590  0.00  0.00    +0.000 HD
ATOM      6  H   UNL     1       4.581   3.311  20.352  0.00  0.00    +0.000 HD
ENDROOT
BRANCH   4   7
ATOM      7  C   UNL     1       2.802   2.498  19.550  0.00  0.00    +0.000 C 
ATOM      8  C   UNL     1       2.315   2.496  21.013  0.00  0.00    +0.000 C 
ATOM      9  C   UNL     1       1.081   3.411  20.972  0.00  0.00    +0.000 C 
ATOM     10  C   UNL     1       1.407   4.844  20.484  0.00  0.00    +0.000 C 
ATOM     11  C   UNL     1       1.641   4.673  18.974  0.00  0.00    +0.000 C 
ATOM     12  C   UNL     1       1.589   3.151  18.817  0.00  0.00    +0.000 C 
ATOM     13  C   UNL     1       0.395   2.834  19.740  0.00  0.00    +0.000 C 
ENDBRANCH   4   7
BRANCH   3  14
ATOM     14  C   UNL     1       6.898   4.544  17.602  0.00  0.00    +0.000 C 
ATOM     15  C   UNL     1       6.276   5.527  16.590  0.00  0.00    +0.000 C 
ATOM     16  C   UNL     1       6.200   6.979  17.064  0.00  0.00    +0.000 C 
ATOM     17  C   UNL     1       7.514   7.469  17.665  0.00  0.00    +0.000 C 
ATOM     18  C   UNL     1       8.010   6.527  18.754  0.00  0.00    +0.000 C 
ATOM     19  C   UNL     1       8.188   5.110  18.208  0.00  0.00    +0.000 C 
ENDBRANCH   3  14
TORSDOF 2
ENDMDL
MODEL 2
REMARK VINA RESULT:      -7.3      1.659      2.810
REMARK  Name = 
REMARK  2 active torsions:
REMARK  status: ('A' for Active; 'I' for Inactive)
REMARK    1  A    between atoms: N_3  and  C_4
REMARK    2  A    between atoms: N_10  and  C_11
REMARK                            x       y       z     vdW  Elec       q    Type
REMARK                         _______ _______ _______ _____ _____    ______ ____
ROOT
ATOM      1  O   UNL     1       5.284   5.546  19.618  0.00  0.00    +0.000 OA
ATOM      2  C   UNL     1       4.329   5.543  18.850  0.00  0.00    +0.000 C 
ATOM      3  N   UNL     1       4.373   5.970  17.535  0.00  0.00    +0.000 N 
ATOM      4  N   UNL     1       3.098   5.042  19.155  0.00  0.00    +0.000 N 
ATOM      5  H   UNL     1       3.501   6.178  17.087  0.00  0.00    +0.000 HD
ATOM      6  H   UNL     1       2.355   5.319  18.544  0.00  0.00    +0.000 HD
ENDROOT
BRANCH   4   7
ATOM      7  C   UNL     1       2.707   4.493  20.458  0.00  0.00    +0.000 C 
ATOM      8  C   UNL     1       1.173   4.595  20.584  0.00  0.00    +0.000 C 
ATOM      9  C   UNL     1       0.719   3.127  20.530  0.00  0.00    +0.000 C 
ATOM     10  C   UNL     1       1.136   2.414  19.219  0.00  0.00    +0.000 C 
ATOM     11  C   UNL     1       2.650   2.201  19.382  0.00  0.00    +0.000 C 
ATOM     12  C   UNL     1       2.938   2.965  20.677  0.00  0.00    +0.000 C 
ATOM     13  C   UNL     1       1.718   2.530  21.513  0.00  0.00    +0.000 C 
ENDBRANCH   4   7
BRANCH   3  14
ATOM     14  C   UNL     1       5.585   6.543  16.955  0.00  0.00    +0.000 C 
ATOM     15  C   UNL     1       6.852   5.795  17.415  0.00  0.00    +0.000 C 
ATOM     16  C   UNL     1       7.120   4.473  16.694  0.00  0.00    +0.000 C 
ATOM     17  C   UNL     1       6.999   4.597  15.178  0.00  0.00    +0.000 C 
ATOM     18  C   UNL     1       5.668   5.219  14.778  0.00  0.00    +0.000 C 
ATOM     19  C   UNL     1       5.493   6.594  15.425  0.00  0.00    +0.000 C 
ENDBRANCH   3  14
TORSDOF 2
ENDMDL
MODEL 3
REMARK VINA RESULT:      -6.9      1.497      2.493
REMARK  Name = 
REMARK  2 active torsions:
REMARK  status: ('A' for Active; 'I' for Inactive)
REMARK    1  A    between atoms: N_3  and  C_4
REMARK    2  A    between atoms: N_10  and  C_11
REMARK                            x       y       z     vdW  Elec       q    Type
REMARK                         _______ _______ _______ _____ _____    ______ ____
ROOT
ATOM      1  O   UNL     1       5.357   5.396  19.688  0.00  0.00    +0.000 OA
ATOM      2  C   UNL     1       5.052   4.428  19.002  0.00  0.00    +0.000 C 
ATOM      3  N   UNL     1       5.632   4.106  17.788  0.00  0.00    +0.000 N 
ATOM      4  N   UNL     1       4.148   3.477  19.373  0.00  0.00    +0.000 N 
ATOM      5  H   UNL     1       5.139   3.469  17.193  0.00  0.00    +0.000 HD
ATOM      6  H   UNL     1       3.813   2.888  18.636  0.00  0.00    +0.000 HD
ENDROOT
BRANCH   4   7
ATOM      7  C   UNL     1       3.358   3.496  20.609  0.00  0.00    +0.000 C 
ATOM      8  C   UNL     1       2.351   4.661  20.520  0.00  0.00    +0.000 C 
ATOM      9  C   UNL     1       0.996   3.943  20.406  0.00  0.00    +0.000 C 
ATOM     10  C   UNL     1       0.907   3.018  19.166  0.00  0.00    +0.000 C 
ATOM     11  C   UNL     1       1.793   1.819  19.538  0.00  0.00    +0.000 C 
ATOM     12  C   UNL     1       2.411   2.281  20.860  0.00  0.00    +0.000 C 
ATOM     13  C   UNL     1       1.172   2.919  21.519  0.00  0.00    +0.000 C 
ENDBRANCH   4   7
BRANCH   3  14
ATOM     14  C   UNL     1       6.643   4.961  17.171  0.00  0.00    +0.000 C 
ATOM     15  C   UNL     1       7.326   4.271  15.973  0.00  0.00    +0.000 C 
ATOM     16  C   UNL     1       6.515   4.278  14.676  0.00  0.00    +0.000 C 
ATOM     17  C   UNL     1       5.947   5.654  14.347  0.00  0.00    +0.000 C 
ATOM     18  C   UNL     1       5.168   6.227  15.524  0.00  0.00    +0.000 C 
ATOM     19  C   UNL     1       6.050   6.317  16.769  0.00  0.00    +0.000 C 
ENDBRANCH   3  14
TORSDOF 2
ENDMDL
MODEL 4
REMARK VINA RESULT:      -6.8      1.068      1.542
REMARK  Name = 
REMARK  2 active torsions:
REMARK  status: ('A' for Active; 'I' for Inactive)
REMARK    1  A    between atoms: N_3  and  C_4
REMARK    2  A    between atoms: N_10  and  C_11
REMARK                            x       y       z     vdW  Elec       q    Type
REMARK                         _______ _______ _______ _____ _____    ______ ____
ROOT
ATOM      1  O   UNL     1       4.872   3.289  16.628  0.00  0.00    +0.000 OA
ATOM      2  C   UNL     1       4.559   4.248  17.324  0.00  0.00    +0.000 C 
ATOM      3  N   UNL     1       5.368   5.342  17.570  0.00  0.00    +0.000 N 
ATOM      4  N   UNL     1       3.332   4.416  17.893  0.00  0.00    +0.000 N 
ATOM      5  H   UNL     1       5.132   5.926  18.349  0.00  0.00    +0.000 HD
ATOM      6  H   UNL     1       3.283   5.100  18.623  0.00  0.00    +0.000 HD
ENDROOT
BRANCH   4   7
ATOM      7  C   UNL     1       2.225   3.456  17.819  0.00  0.00    +0.000 C 
ATOM      8  C   UNL     1       2.719   2.106  18.379  0.00  0.00    +0.000 C 
ATOM      9  C   UNL     1       1.930   1.962  19.690  0.00  0.00    +0.000 C 
ATOM     10  C   UNL     1       2.194   3.120  20.684  0.00  0.00    +0.000 C 
ATOM     11  C   UNL     1       1.440   4.311  20.069  0.00  0.00    +0.000 C 
ATOM     12  C   UNL     1       0.986   3.736  18.725  0.00  0.00    +0.000 C 
ATOM     13  C   UNL     1       0.543   2.330  19.179  0.00  0.00    +0.000 C 
ENDBRANCH   4   7
BRANCH   3  14
ATOM     14  C   UNL     1       6.735   5.415  17.061  0.00  0.00    +0.000 C 
ATOM     15  C   UNL     1       7.074   6.820  16.524  0.00  0.00    +0.000 C 
ATOM     16  C   UNL     1       7.408   7.858  17.596  0.00  0.00    +0.000 C 
ATOM     17  C   UNL     1       8.408   7.339  18.625  0.00  0.00    +0.000 C 
ATOM     18  C   UNL     1       7.951   6.013  19.220  0.00  0.00    +0.000 C 
ATOM     19  C   UNL     1       7.745   4.966  18.124  0.00  0.00    +0.000 C 
ENDBRANCH   3  14
TORSDOF 2
ENDMDL
MODEL 5
REMARK VINA RESULT:      -6.7      1.188      1.731
REMARK  Name = 
REMARK  2 active torsions:
REMARK  status: ('A' for Active; 'I' for Inactive)
REMARK    1  A    between atoms: N_3  and  C_4
REMARK    2  A    between atoms: N_10  and  C_11
REMARK                            x       y       z     vdW  Elec       q    Type
REMARK                         _______ _______ _______ _____ _____    ______ ____
ROOT
ATOM      1  O   UNL     1       5.637   3.808  19.617  0.00  0.00    +0.000 OA
ATOM      2  C   UNL     1       4.880   4.581  19.041  0.00  0.00    +0.000 C 
ATOM      3  N   UNL     1       5.196   5.289  17.896  0.00  0.00    +0.000 N 
ATOM      4  N   UNL     1       3.582   4.796  19.400  0.00  0.00    +0.000 N 
ATOM      5  H   UNL     1       4.622   6.078  17.666  0.00  0.00    +0.000 HD
ATOM      6  H   UNL     1       3.156   5.615  19.012  0.00  0.00    +0.000 HD
ENDROOT
BRANCH   4   7
ATOM      7  C   UNL     1       2.913   4.193  20.558  0.00  0.00    +0.000 C 
ATOM      8  C   UNL     1       1.462   4.715  20.603  0.00  0.00    +0.000 C 
ATOM      9  C   UNL     1       0.631   3.467  20.262  0.00  0.00    +0.000 C 
ATOM     10  C   UNL     1       0.978   2.871  18.875  0.00  0.00    +0.000 C 
ATOM     11  C   UNL     1       2.347   2.206  19.093  0.00  0.00    +0.000 C 
ATOM     12  C   UNL     1       2.689   2.649  20.519  0.00  0.00    +0.000 C 
ATOM     13  C   UNL     1       1.311   2.465  21.186  0.00  0.00    +0.000 C 
ENDBRANCH   4   7
BRANCH   3  14
ATOM     14  C   UNL     1       6.527   5.225  17.297  0.00  0.00    +0.000 C 
ATOM     15  C   UNL     1       6.838   6.477  16.453  0.00  0.00    +0.000 C 
ATOM     16  C   UNL     1       7.250   7.711  17.256  0.00  0.00    +0.000 C 
ATOM     17  C   UNL     1       8.312   7.401  18.306  0.00  0.00    +0.000 C 
ATOM     18  C   UNL     1       7.887   6.242  19.197  0.00  0.00    +0.000 C 
ATOM     19  C   UNL     1       7.602   4.991  18.365  0.00  0.00    +0.000 C 
ENDBRANCH   3  14
TORSDOF 2
ENDMDL
MODEL 6
REMARK VINA RESULT:      -6.4      1.650      2.884
REMARK  Name = 
REMARK  2 active torsions:
REMARK  status: ('A' for Active; 'I' for Inactive)
REMARK    1  A    between atoms: N_3  and  C_4
REMARK    2  A    between atoms: N_10  and  C_11
REMARK                            x       y       z     vdW  Elec       q    Type
REMARK                         _______ _______ _______ _____ _____    ______ ____
ROOT
ATOM      1  O   UNL     1       3.143   6.596  17.949  0.00  0.00    +0.000 OA
ATOM      2  C   UNL     1       3.954   5.859  18.498  0.00  0.00    +0.000 C 
ATOM      3  N   UNL     1       5.304   5.813  18.201  0.00  0.00    +0.000 N 
ATOM      4  N   UNL     1       3.659   5.033  19.541  0.00  0.00    +0.000 N 
ATOM      5  H   UNL     1       5.817   5.008  18.506  0.00  0.00    +0.000 HD
ATOM      6  H   UNL     1       4.335   4.319  19.732  0.00  0.00    +0.000 HD
ENDROOT
BRANCH   4   7
ATOM      7  C   UNL     1       2.325   4.847  20.122  0.00  0.00    +0.000 C 
ATOM      8  C   UNL     1       1.394   4.286  19.027  0.00  0.00    +0.000 C 
ATOM      9  C   UNL     1       1.117   2.852  19.504  0.00  0.00    +0.000 C 
ATOM     10  C   UNL     1       2.405   2.003  19.645  0.00  0.00    +0.000 C 
ATOM     11  C   UNL     1       3.077   2.561  20.910  0.00  0.00    +0.000 C 
ATOM     12  C   UNL     1       2.186   3.762  21.236  0.00  0.00    +0.000 C 
ATOM     13  C   UNL     1       0.801   3.141  20.966  0.00  0.00    +0.000 C 
ENDBRANCH   4   7
BRANCH   3  14
ATOM     14  C   UNL     1       5.882   6.615  17.126  0.00  0.00    +0.000 C 
ATOM     15  C   UNL     1       7.372   6.289  16.902  0.00  0.00    +0.000 C 
ATOM     16  C   UNL     1       7.641   5.011  16.106  0.00  0.00    +0.000 C 
ATOM     17  C   UNL     1       6.799   4.921  14.838  0.00  0.00    +0.000 C 
ATOM     18  C   UNL     1       5.319   5.117  15.142  0.00  0.00    +0.000 C 
ATOM     19  C   UNL     1       5.077   6.462  15.829  0.00  0.00    +0.000 C 
ENDBRANCH   3  14
TORSDOF 2
ENDMDL
MODEL 7
REMARK VINA RESULT:      -6.4      1.519      6.302
REMARK  Name = 
REMARK  2 active torsions:
REMARK  status: ('A' for Active; 'I' for Inactive)
REMARK    1  A    between atoms: N_3  and  C_4
REMARK    2  A    between atoms: N_10  and  C_11
REMARK                            x       y       z     vdW  Elec       q    Type
REMARK                         _______ _______ _______ _____ _____    ______ ____
ROOT
ATOM      1  O   UNL     1       2.786   6.428  17.783  0.00  0.00    +0.000 OA
ATOM      2  C   UNL     1       3.312   5.322  17.821  0.00  0.00    +0.000 C 
ATOM      3  N   UNL     1       2.743   4.198  18.392  0.00  0.00    +0.000 N 
ATOM      4  N   UNL     1       4.502   5.016  17.232  0.00  0.00    +0.000 N 
ATOM      5  H   UNL     1       3.350   3.430  18.607  0.00  0.00    +0.000 HD
ATOM      6  H   UNL     1       4.930   4.164  17.539  0.00  0.00    +0.000 HD
ENDROOT
BRANCH   4   7
ATOM      7  C   UNL     1       5.366   5.967  16.524  0.00  0.00    +0.000 C 
ATOM      8  C   UNL     1       5.713   7.117  17.491  0.00  0.00    +0.000 C 
ATOM      9  C   UNL     1       7.214   6.911  17.754  0.00  0.00    +0.000 C 
ATOM     10  C   UNL     1       7.534   5.528  18.376  0.00  0.00    +0.000 C 
ATOM     11  C   UNL     1       7.349   4.548  17.206  0.00  0.00    +0.000 C 
ATOM     12  C   UNL     1       6.785   5.462  16.114  0.00  0.00    +0.000 C 
ATOM     13  C   UNL     1       7.683   6.699  16.320  0.00  0.00    +0.000 C 
ENDBRANCH   4   7
BRANCH   3  14
ATOM     14  C   UNL     1       1.457   4.254  19.081  0.00  0.00    +0.000 C 
ATOM     15  C   UNL     1       0.794   2.865  19.178  0.00  0.00    +0.000 C 
ATOM     16  C   UNL     1       1.353   1.959  20.276  0.00  0.00    +0.000 C 
ATOM     17  C   UNL     1       1.478   2.671  21.618  0.00  0.00    +0.000 C 
ATOM     18  C   UNL     1       2.260   3.972  21.484  0.00  0.00    +0.000 C 
ATOM     19  C   UNL     1       1.600   4.901  20.464  0.00  0.00    +0.000 C 
ENDBRANCH   3  14
TORSDOF 2
ENDMDL
MODEL 8
REMARK VINA RESULT:      -6.3      3.697      5.821
REMARK  Name = 
REMARK  2 active torsions:
REMARK  status: ('A' for Active; 'I' for Inactive)
REMARK    1  A    between atoms: N_3  and  C_4
REMARK    2  A    between atoms: N_10  and  C_11
REMARK                            x       y       z     vdW  Elec       q    Type
REMARK                         _______ _______ _______ _____ _____    ______ ____
ROOT
ATOM      1  O   UNL     1       2.957   7.464  18.926  0.00  0.00    +0.000 OA
ATOM      2  C   UNL     1       2.227   6.901  19.733  0.00  0.00    +0.000 C 
ATOM      3  N   UNL     1       1.566   7.529  20.772  0.00  0.00    +0.000 N 
ATOM      4  N   UNL     1       1.892   5.580  19.676  0.00  0.00    +0.000 N 
ATOM      5  H   UNL     1       1.222   6.955  21.518  0.00  0.00    +0.000 HD
ATOM      6  H   UNL     1       1.499   5.197  20.513  0.00  0.00    +0.000 HD
ENDROOT
BRANCH   4   7
ATOM      7  C   UNL     1       2.400   4.620  18.689  0.00  0.00    +0.000 C 
ATOM      8  C   UNL     1       3.605   3.883  19.308  0.00  0.00    +0.000 C 
ATOM      9  C   UNL     1       3.077   2.453  19.502  0.00  0.00    +0.000 C 
ATOM     10  C   UNL     1       1.835   2.387  20.426  0.00  0.00    +0.000 C 
ATOM     11  C   UNL     1       0.701   2.955  19.557  0.00  0.00    +0.000 C 
ATOM     12  C   UNL     1       1.462   3.430  18.316  0.00  0.00    +0.000 C 
ATOM     13  C   UNL     1       2.434   2.246  18.137  0.00  0.00    +0.000 C 
ENDBRANCH   4   7
BRANCH   3  14
ATOM     14  C   UNL     1       1.745   8.953  21.046  0.00  0.00    +0.000 C 
ATOM     15  C   UNL     1       0.903   9.831  20.098  0.00  0.00    +0.000 C 
ATOM     16  C   UNL     1      -0.578   9.938  20.464  0.00  0.00    +0.000 C 
ATOM     17  C   UNL     1      -0.798  10.247  21.941  0.00  0.00    +0.000 C 
ATOM     18  C   UNL     1      -0.049   9.262  22.830  0.00  0.00    +0.000 C 
ATOM     19  C   UNL     1       1.448   9.275  22.515  0.00  0.00    +0.000 C 
ENDBRANCH   3  14
TORSDOF 2
ENDMDL
MODEL 9
REMARK VINA RESULT:      -6.2      1.669      2.749
REMARK  Name = 
REMARK  2 active torsions:
REMARK  status: ('A' for Active; 'I' for Inactive)
REMARK    1  A    between atoms: N_3  and  C_4
REMARK    2  A    between atoms: N_10  and  C_11
REMARK                            x       y       z     vdW  Elec       q    Type
REMARK                         _______ _______ _______ _____ _____    ______ ____
ROOT
ATOM      1  O   UNL     1       2.343   5.406  18.155  0.00  0.00    +0.000 OA
ATOM      2  C   UNL     1       3.316   5.521  18.890  0.00  0.00    +0.000 C 
ATOM      3  N   UNL     1       4.545   6.021  18.500  0.00  0.00    +0.000 N 
ATOM      4  N   UNL     1       3.308   5.249  20.226  0.00  0.00    +0.000 N 
ATOM      5  H   UNL     1       5.333   5.825  19.087  0.00  0.00    +0.000 HD
ATOM      6  H   UNL     1       4.208   5.148  20.653  0.00  0.00    +0.000 HD
ENDROOT
BRANCH   4   7
ATOM      7  C   UNL     1       2.163   4.718  20.974  0.00  0.00    +0.000 C 
ATOM      8  C   UNL     1       1.061   4.336  19.964  0.00  0.00    +0.000 C 
ATOM      9  C   UNL     1       1.028   2.801  20.048  0.00  0.00    +0.000 C 
ATOM     10  C   UNL     1       2.385   2.148  19.684  0.00  0.00    +0.000 C 
ATOM     11  C   UNL     1       3.274   2.444  20.902  0.00  0.00    +0.000 C 
ATOM     12  C   UNL     1       2.377   3.369  21.730  0.00  0.00    +0.000 C 
ATOM     13  C   UNL     1       1.028   2.642  21.562  0.00  0.00    +0.000 C 
ENDBRANCH   4   7
BRANCH   3  14
ATOM     14  C   UNL     1       4.814   6.400  17.115  0.00  0.00    +0.000 C 
ATOM     15  C   UNL     1       6.162   7.137  16.972  0.00  0.00    +0.000 C 
ATOM     16  C   UNL     1       7.395   6.232  16.972  0.00  0.00    +0.000 C 
ATOM     17  C   UNL     1       7.247   5.038  16.035  0.00  0.00    +0.000 C 
ATOM     18  C   UNL     1       5.962   4.270  16.315  0.00  0.00    +0.000 C 
ATOM     19  C   UNL     1       4.742   5.184  16.184  0.00  0.00    +0.000 C 
ENDBRANCH   3  14
TORSDOF 2
ENDMDL
