MODEL 1
REMARK VINA RESULT:      -5.1      0.000      0.000
REMARK  Name = 
REMARK  10 active torsions:
REMARK  status: ('A' for Active; 'I' for Inactive)
REMARK    1  A    between atoms: C_1  and  N_2
REMARK    2  A    between atoms: N_2  and  C_3
REMARK    3  A    between atoms: N_2  and  C_4
REMARK    4  A    between atoms: N_2  and  C_5
REMARK    5  A    between atoms: C_5  and  C_6
REMARK    6  A    between atoms: C_9  and  C_10
REMARK    7  A    between atoms: C_10  and  N_11
REMARK    8  A    between atoms: N_11  and  C_12
REMARK    9  A    between atoms: N_11  and  C_13
REMARK   10  A    between atoms: N_11  and  C_14
REMARK                            x       y       z     vdW  Elec       q    Type
REMARK                         _______ _______ _______ _____ _____    ______ ____
ROOT
ATOM      1  C   UNL     1       0.964   9.608  18.946  0.00  0.00    +0.000 A 
ATOM      2  C   UNL     1       1.030   8.999  20.207  0.00  0.00    +0.000 A 
ATOM      3  C   UNL     1       1.751   7.811  20.395  0.00  0.00    +0.000 A 
ATOM      4  C   UNL     1       2.425   7.211  19.321  0.00  0.00    +0.000 A 
ATOM      5  C   UNL     1       2.359   7.822  18.059  0.00  0.00    +0.000 A 
ATOM      6  C   UNL     1       1.628   8.992  17.869  0.00  0.00    +0.000 A 
ENDROOT
BRANCH   1   7
ATOM      7  C   UNL     1       0.216  10.913  18.744  0.00  0.00    +0.000 C 
BRANCH   7   9
ATOM      8  C   UNL     1       2.326  12.245  18.298  0.00  0.00    +0.000 C 
ATOM      9  N   UNL     1       1.016  12.194  19.036  0.00  0.00    +0.000 N 
ATOM     10  C   UNL     1       1.237  12.368  20.521  0.00  0.00    +0.000 C 
ATOM     11  C   UNL     1       0.146  13.369  18.537  0.00  0.00    +0.000 C 
ENDBRANCH   7   9
ENDBRANCH   1   7
BRANCH   4  12
ATOM     12  C   UNL     1       3.193   5.925  19.513  0.00  0.00    +0.000 C 
BRANCH  12  13
ATOM     13  N   UNL     1       2.398   4.614  19.360  0.00  0.00    +0.000 N 
ATOM     14  C   UNL     1       1.797   4.497  17.966  0.00  0.00    +0.000 C 
ATOM     15  C   UNL     1       3.352   3.444  19.578  0.00  0.00    +0.000 C 
ATOM     16  C   UNL     1       1.283   4.538  20.393  0.00  0.00    +0.000 C 
ENDBRANCH  12  13
ENDBRANCH   4  12
TORSDOF 4
ENDMDL
MODEL 2
REMARK VINA RESULT:      -5.1      0.208      1.585
REMARK  Name = 
REMARK  10 active torsions:
REMARK  status: ('A' for Active; 'I' for Inactive)
REMARK    1  A    between atoms: C_1  and  N_2
REMARK    2  A    between atoms: N_2  and  C_3
REMARK    3  A    between atoms: N_2  and  C_4
REMARK    4  A    between atoms: N_2  and  C_5
REMARK    5  A    between atoms: C_5  and  C_6
REMARK    6  A    between atoms: C_9  and  C_10
REMARK    7  A    between atoms: C_10  and  N_11
REMARK    8  A    between atoms: N_11  and  C_12
REMARK    9  A    between atoms: N_11  and  C_13
REMARK   10  A    between atoms: N_11  and  C_14
REMARK                            x       y       z     vdW  Elec       q    Type
REMARK                         _______ _______ _______ _____ _____    ______ ____
ROOT
ATOM      1  C   UNL     1       1.119   9.504  18.871  0.00  0.00    +0.000 A 
ATOM      2  C   UNL     1       1.835   8.915  17.819  0.00  0.00    +0.000 A 
ATOM      3  C   UNL     1       2.547   7.723  18.013  0.00  0.00    +0.000 A 
ATOM      4  C   UNL     1       2.553   7.094  19.268  0.00  0.00    +0.000 A 
ATOM      5  C   UNL     1       1.835   7.685  20.320  0.00  0.00    +0.000 A 
ATOM      6  C   UNL     1       1.143   8.879  20.131  0.00  0.00    +0.000 A 
ENDROOT
BRANCH   1   7
ATOM      7  C   UNL     1       0.317  10.775  18.657  0.00  0.00    +0.000 C 
BRANCH   7   9
ATOM      8  C   UNL     1       2.368  12.218  18.282  0.00  0.00    +0.000 C 
ATOM      9  N   UNL     1       1.045  12.090  18.988  0.00  0.00    +0.000 N 
ATOM     10  C   UNL     1       1.225  12.248  20.481  0.00  0.00    +0.000 C 
ATOM     11  C   UNL     1       0.130  13.229  18.489  0.00  0.00    +0.000 C 
ENDBRANCH   7   9
ENDBRANCH   1   7
BRANCH   4  12
ATOM     12  C   UNL     1       3.327   5.817  19.488  0.00  0.00    +0.000 C 
BRANCH  12  13
ATOM     13  N   UNL     1       2.551   4.497  19.311  0.00  0.00    +0.000 N 
ATOM     14  C   UNL     1       3.497   3.306  19.275  0.00  0.00    +0.000 C 
ATOM     15  C   UNL     1       1.606   4.332  20.497  0.00  0.00    +0.000 C 
ATOM     16  C   UNL     1       1.731   4.524  18.029  0.00  0.00    +0.000 C 
ENDBRANCH  12  13
ENDBRANCH   4  12
TORSDOF 4
ENDMDL
MODEL 3
REMARK VINA RESULT:      -5.1      0.201      1.221
REMARK  Name = 
REMARK  10 active torsions:
REMARK  status: ('A' for Active; 'I' for Inactive)
REMARK    1  A    between atoms: C_1  and  N_2
REMARK    2  A    between atoms: N_2  and  C_3
REMARK    3  A    between atoms: N_2  and  C_4
REMARK    4  A    between atoms: N_2  and  C_5
REMARK    5  A    between atoms: C_5  and  C_6
REMARK    6  A    between atoms: C_9  and  C_10
REMARK    7  A    between atoms: C_10  and  N_11
REMARK    8  A    between atoms: N_11  and  C_12
REMARK    9  A    between atoms: N_11  and  C_13
REMARK   10  A    between atoms: N_11  and  C_14
REMARK                            x       y       z     vdW  Elec       q    Type
REMARK                         _______ _______ _______ _____ _____    ______ ____
ROOT
ATOM      1  C   UNL     1       1.173   9.582  18.891  0.00  0.00    +0.000 A 
ATOM      2  C   UNL     1       1.938   9.004  17.869  0.00  0.00    +0.000 A 
ATOM      3  C   UNL     1       2.629   7.802  18.080  0.00  0.00    +0.000 A 
ATOM      4  C   UNL     1       2.564   7.153  19.323  0.00  0.00    +0.000 A 
ATOM      5  C   UNL     1       1.796   7.733  20.345  0.00  0.00    +0.000 A 
ATOM      6  C   UNL     1       1.126   8.936  20.140  0.00  0.00    +0.000 A 
ENDROOT
BRANCH   1   7
ATOM      7  C   UNL     1       0.394  10.864  18.657  0.00  0.00    +0.000 C 
BRANCH   7   9
ATOM      8  C   UNL     1       2.440  12.309  18.263  0.00  0.00    +0.000 C 
ATOM      9  N   UNL     1       1.135  12.169  18.998  0.00  0.00    +0.000 N 
ATOM     10  C   UNL     1       1.352  12.295  20.489  0.00  0.00    +0.000 C 
ATOM     11  C   UNL     1       0.211  13.321  18.546  0.00  0.00    +0.000 C 
ENDBRANCH   7   9
ENDBRANCH   1   7
BRANCH   4  12
ATOM     12  C   UNL     1       3.314   5.865  19.562  0.00  0.00    +0.000 C 
BRANCH  12  13
ATOM     13  N   UNL     1       2.506   4.559  19.435  0.00  0.00    +0.000 N 
ATOM     14  C   UNL     1       1.702   4.535  18.143  0.00  0.00    +0.000 C 
ATOM     15  C   UNL     1       3.482   3.388  19.422  0.00  0.00    +0.000 C 
ATOM     16  C   UNL     1       1.559   4.396  20.616  0.00  0.00    +0.000 C 
ENDBRANCH  12  13
ENDBRANCH   4  12
TORSDOF 4
ENDMDL
MODEL 4
REMARK VINA RESULT:      -5.1      1.073      6.488
REMARK  Name = 
REMARK  10 active torsions:
REMARK  status: ('A' for Active; 'I' for Inactive)
REMARK    1  A    between atoms: C_1  and  N_2
REMARK    2  A    between atoms: N_2  and  C_3
REMARK    3  A    between atoms: N_2  and  C_4
REMARK    4  A    between atoms: N_2  and  C_5
REMARK    5  A    between atoms: C_5  and  C_6
REMARK    6  A    between atoms: C_9  and  C_10
REMARK    7  A    between atoms: C_10  and  N_11
REMARK    8  A    between atoms: N_11  and  C_12
REMARK    9  A    between atoms: N_11  and  C_13
REMARK   10  A    between atoms: N_11  and  C_14
REMARK                            x       y       z     vdW  Elec       q    Type
REMARK                         _______ _______ _______ _____ _____    ______ ____
ROOT
ATOM      1  C   UNL     1       2.499   6.837  19.308  0.00  0.00    +0.000 A 
ATOM      2  C   UNL     1       2.672   7.488  18.078  0.00  0.00    +0.000 A 
ATOM      3  C   UNL     1       2.193   8.792  17.881  0.00  0.00    +0.000 A 
ATOM      4  C   UNL     1       1.533   9.471  18.917  0.00  0.00    +0.000 A 
ATOM      5  C   UNL     1       1.362   8.818  20.148  0.00  0.00    +0.000 A 
ATOM      6  C   UNL     1       1.822   7.517  20.337  0.00  0.00    +0.000 A 
ENDROOT
BRANCH   1   7
ATOM      7  C   UNL     1       3.047   5.441  19.538  0.00  0.00    +0.000 C 
BRANCH   7   9
ATOM      8  C   UNL     1       1.500   4.409  17.815  0.00  0.00    +0.000 C 
ATOM      9  N   UNL     1       2.095   4.283  19.191  0.00  0.00    +0.000 N 
ATOM     10  C   UNL     1       1.004   4.149  20.229  0.00  0.00    +0.000 C 
ATOM     11  C   UNL     1       2.950   2.997  19.220  0.00  0.00    +0.000 C 
ENDBRANCH   7   9
ENDBRANCH   1   7
BRANCH   4  12
ATOM     12  C   UNL     1       1.004  10.869  18.709  0.00  0.00    +0.000 C 
BRANCH  12  13
ATOM     13  N   UNL     1      -0.526  11.046  18.760  0.00  0.00    +0.000 N 
ATOM     14  C   UNL     1      -1.046  10.911  20.184  0.00  0.00    +0.000 C 
ATOM     15  C   UNL     1      -0.867  12.441  18.248  0.00  0.00    +0.000 C 
ATOM     16  C   UNL     1      -1.216  10.015  17.877  0.00  0.00    +0.000 C 
ENDBRANCH  12  13
ENDBRANCH   4  12
TORSDOF 4
ENDMDL
MODEL 5
REMARK VINA RESULT:      -5.0      1.142      6.376
REMARK  Name = 
REMARK  10 active torsions:
REMARK  status: ('A' for Active; 'I' for Inactive)
REMARK    1  A    between atoms: C_1  and  N_2
REMARK    2  A    between atoms: N_2  and  C_3
REMARK    3  A    between atoms: N_2  and  C_4
REMARK    4  A    between atoms: N_2  and  C_5
REMARK    5  A    between atoms: C_5  and  C_6
REMARK    6  A    between atoms: C_9  and  C_10
REMARK    7  A    between atoms: C_10  and  N_11
REMARK    8  A    between atoms: N_11  and  C_12
REMARK    9  A    between atoms: N_11  and  C_13
REMARK   10  A    between atoms: N_11  and  C_14
REMARK                            x       y       z     vdW  Elec       q    Type
REMARK                         _______ _______ _______ _____ _____    ______ ____
ROOT
ATOM      1  C   UNL     1       2.578   6.721  19.315  0.00  0.00    +0.000 A 
ATOM      2  C   UNL     1       1.917   7.423  20.333  0.00  0.00    +0.000 A 
ATOM      3  C   UNL     1       1.419   8.714  20.110  0.00  0.00    +0.000 A 
ATOM      4  C   UNL     1       1.571   9.328  18.858  0.00  0.00    +0.000 A 
ATOM      5  C   UNL     1       2.231   8.625  17.838  0.00  0.00    +0.000 A 
ATOM      6  C   UNL     1       2.742   7.349  18.066  0.00  0.00    +0.000 A 
ENDROOT
BRANCH   1   7
ATOM      7  C   UNL     1       3.087   5.309  19.539  0.00  0.00    +0.000 C 
BRANCH   7   9
ATOM      8  C   UNL     1       1.564   4.300  17.781  0.00  0.00    +0.000 C 
ATOM      9  N   UNL     1       2.106   4.179  19.180  0.00  0.00    +0.000 N 
ATOM     10  C   UNL     1       0.976   4.105  20.181  0.00  0.00    +0.000 C 
ATOM     11  C   UNL     1       2.912   2.864  19.263  0.00  0.00    +0.000 C 
ENDBRANCH   7   9
ENDBRANCH   1   7
BRANCH   4  12
ATOM     12  C   UNL     1       1.048  10.723  18.613  0.00  0.00    +0.000 C 
BRANCH  12  13
ATOM     13  N   UNL     1      -0.478  10.919  18.716  0.00  0.00    +0.000 N 
ATOM     14  C   UNL     1      -0.971  10.647  20.130  0.00  0.00    +0.000 C 
ATOM     15  C   UNL     1      -0.803  12.365  18.356  0.00  0.00    +0.000 C 
ATOM     16  C   UNL     1      -1.204   9.996  17.748  0.00  0.00    +0.000 C 
ENDBRANCH  12  13
ENDBRANCH   4  12
TORSDOF 4
ENDMDL
MODEL 6
REMARK VINA RESULT:      -5.0      0.096      6.602
REMARK  Name = 
REMARK  10 active torsions:
REMARK  status: ('A' for Active; 'I' for Inactive)
REMARK    1  A    between atoms: C_1  and  N_2
REMARK    2  A    between atoms: N_2  and  C_3
REMARK    3  A    between atoms: N_2  and  C_4
REMARK    4  A    between atoms: N_2  and  C_5
REMARK    5  A    between atoms: C_5  and  C_6
REMARK    6  A    between atoms: C_9  and  C_10
REMARK    7  A    between atoms: C_10  and  N_11
REMARK    8  A    between atoms: N_11  and  C_12
REMARK    9  A    between atoms: N_11  and  C_13
REMARK   10  A    between atoms: N_11  and  C_14
REMARK                            x       y       z     vdW  Elec       q    Type
REMARK                         _______ _______ _______ _____ _____    ______ ____
ROOT
ATOM      1  C   UNL     1       2.403   7.214  19.331  0.00  0.00    +0.000 A 
ATOM      2  C   UNL     1       2.316   7.811  18.065  0.00  0.00    +0.000 A 
ATOM      3  C   UNL     1       1.592   8.997  17.878  0.00  0.00    +0.000 A 
ATOM      4  C   UNL     1       0.943   9.612  18.960  0.00  0.00    +0.000 A 
ATOM      5  C   UNL     1       1.032   9.014  20.227  0.00  0.00    +0.000 A 
ATOM      6  C   UNL     1       1.735   7.826  20.408  0.00  0.00    +0.000 A 
ENDROOT
BRANCH   1   7
ATOM      7  C   UNL     1       3.214   5.949  19.547  0.00  0.00    +0.000 C 
BRANCH   7   9
ATOM      8  C   UNL     1       1.265   4.607  20.456  0.00  0.00    +0.000 C 
ATOM      9  N   UNL     1       2.423   4.630  19.496  0.00  0.00    +0.000 N 
ATOM     10  C   UNL     1       3.331   3.445  19.734  0.00  0.00    +0.000 C 
ATOM     11  C   UNL     1       1.854   4.522  18.064  0.00  0.00    +0.000 C 
ENDBRANCH   7   9
ENDBRANCH   1   7
BRANCH   4  12
ATOM     12  C   UNL     1       0.153  10.883  18.764  0.00  0.00    +0.000 C 
BRANCH  12  13
ATOM     13  N   UNL     1       0.892  12.208  19.036  0.00  0.00    +0.000 N 
ATOM     14  C   UNL     1       0.104  13.395  18.500  0.00  0.00    +0.000 C 
ATOM     15  C   UNL     1       1.051  12.370  20.544  0.00  0.00    +0.000 C 
ATOM     16  C   UNL     1       2.273  12.194  18.394  0.00  0.00    +0.000 C 
ENDBRANCH  12  13
ENDBRANCH   4  12
TORSDOF 4
ENDMDL
MODEL 7
REMARK VINA RESULT:      -5.0      1.072      6.419
REMARK  Name = 
REMARK  10 active torsions:
REMARK  status: ('A' for Active; 'I' for Inactive)
REMARK    1  A    between atoms: C_1  and  N_2
REMARK    2  A    between atoms: N_2  and  C_3
REMARK    3  A    between atoms: N_2  and  C_4
REMARK    4  A    between atoms: N_2  and  C_5
REMARK    5  A    between atoms: C_5  and  C_6
REMARK    6  A    between atoms: C_9  and  C_10
REMARK    7  A    between atoms: C_10  and  N_11
REMARK    8  A    between atoms: N_11  and  C_12
REMARK    9  A    between atoms: N_11  and  C_13
REMARK   10  A    between atoms: N_11  and  C_14
REMARK                            x       y       z     vdW  Elec       q    Type
REMARK                         _______ _______ _______ _____ _____    ______ ____
ROOT
ATOM      1  C   UNL     1       2.511   6.813  19.358  0.00  0.00    +0.000 A 
ATOM      2  C   UNL     1       2.702   7.436  18.117  0.00  0.00    +0.000 A 
ATOM      3  C   UNL     1       2.246   8.743  17.892  0.00  0.00    +0.000 A 
ATOM      4  C   UNL     1       1.592   9.454  18.909  0.00  0.00    +0.000 A 
ATOM      5  C   UNL     1       1.403   8.829  20.152  0.00  0.00    +0.000 A 
ATOM      6  C   UNL     1       1.839   7.524  20.369  0.00  0.00    +0.000 A 
ENDROOT
BRANCH   1   7
ATOM      7  C   UNL     1       3.034   5.412  19.620  0.00  0.00    +0.000 C 
BRANCH   7   9
ATOM      8  C   UNL     1       1.575   4.376  17.824  0.00  0.00    +0.000 C 
ATOM      9  N   UNL     1       2.088   4.262  19.233  0.00  0.00    +0.000 N 
ATOM     10  C   UNL     1       0.937   4.156  20.208  0.00  0.00    +0.000 C 
ATOM     11  C   UNL     1       2.922   2.965  19.330  0.00  0.00    +0.000 C 
ENDBRANCH   7   9
ENDBRANCH   1   7
BRANCH   4  12
ATOM     12  C   UNL     1       1.088  10.856  18.670  0.00  0.00    +0.000 C 
BRANCH  12  13
ATOM     13  N   UNL     1      -0.439  11.063  18.729  0.00  0.00    +0.000 N 
ATOM     14  C   UNL     1      -0.821  12.459  18.256  0.00  0.00    +0.000 C 
ATOM     15  C   UNL     1      -1.099  10.041  17.811  0.00  0.00    +0.000 C 
ATOM     16  C   UNL     1      -0.955  10.857  20.146  0.00  0.00    +0.000 C 
ENDBRANCH  12  13
ENDBRANCH   4  12
TORSDOF 4
ENDMDL
MODEL 8
REMARK VINA RESULT:      -4.9      0.209      6.600
REMARK  Name = 
REMARK  10 active torsions:
REMARK  status: ('A' for Active; 'I' for Inactive)
REMARK    1  A    between atoms: C_1  and  N_2
REMARK    2  A    between atoms: N_2  and  C_3
REMARK    3  A    between atoms: N_2  and  C_4
REMARK    4  A    between atoms: N_2  and  C_5
REMARK    5  A    between atoms: C_5  and  C_6
REMARK    6  A    between atoms: C_9  and  C_10
REMARK    7  A    between atoms: C_10  and  N_11
REMARK    8  A    between atoms: N_11  and  C_12
REMARK    9  A    between atoms: N_11  and  C_13
REMARK   10  A    between atoms: N_11  and  C_14
REMARK                            x       y       z     vdW  Elec       q    Type
REMARK                         _______ _______ _______ _____ _____    ______ ____
ROOT
ATOM      1  C   UNL     1       2.544   7.166  19.238  0.00  0.00    +0.000 A 
ATOM      2  C   UNL     1       2.485   7.816  17.997  0.00  0.00    +0.000 A 
ATOM      3  C   UNL     1       1.735   8.990  17.836  0.00  0.00    +0.000 A 
ATOM      4  C   UNL     1       1.031   9.539  18.919  0.00  0.00    +0.000 A 
ATOM      5  C   UNL     1       1.092   8.887  20.161  0.00  0.00    +0.000 A 
ATOM      6  C   UNL     1       1.822   7.711  20.315  0.00  0.00    +0.000 A 
ENDROOT
BRANCH   1   7
ATOM      7  C   UNL     1       3.382   5.915  19.428  0.00  0.00    +0.000 C 
BRANCH   7   9
ATOM      8  C   UNL     1       3.569   3.396  19.210  0.00  0.00    +0.000 C 
ATOM      9  N   UNL     1       2.640   4.578  19.250  0.00  0.00    +0.000 N 
ATOM     10  C   UNL     1       1.765   4.605  18.018  0.00  0.00    +0.000 C 
ATOM     11  C   UNL     1       1.729   4.423  20.487  0.00  0.00    +0.000 C 
ENDBRANCH   7   9
ENDBRANCH   1   7
BRANCH   4  12
ATOM     12  C   UNL     1       0.212  10.796  18.750  0.00  0.00    +0.000 C 
BRANCH  12  13
ATOM     13  N   UNL     1       0.927  12.131  19.036  0.00  0.00    +0.000 N 
ATOM     14  C   UNL     1       1.159  12.320  20.528  0.00  0.00    +0.000 C 
ATOM     15  C   UNL     1       2.279  12.115  18.331  0.00  0.00    +0.000 C 
ATOM     16  C   UNL     1       0.111  13.302  18.505  0.00  0.00    +0.000 C 
ENDBRANCH  12  13
ENDBRANCH   4  12
TORSDOF 4
ENDMDL
MODEL 9
REMARK VINA RESULT:      -4.9      0.322      6.484
REMARK  Name = 
REMARK  10 active torsions:
REMARK  status: ('A' for Active; 'I' for Inactive)
REMARK    1  A    between atoms: C_1  and  N_2
REMARK    2  A    between atoms: N_2  and  C_3
REMARK    3  A    between atoms: N_2  and  C_4
REMARK    4  A    between atoms: N_2  and  C_5
REMARK    5  A    between atoms: C_5  and  C_6
REMARK    6  A    between atoms: C_9  and  C_10
REMARK    7  A    between atoms: C_10  and  N_11
REMARK    8  A    between atoms: N_11  and  C_12
REMARK    9  A    between atoms: N_11  and  C_13
REMARK   10  A    between atoms: N_11  and  C_14
REMARK                            x       y       z     vdW  Elec       q    Type
REMARK                         _______ _______ _______ _____ _____    ______ ____
ROOT
ATOM      1  C   UNL     1       2.336   7.330  19.295  0.00  0.00    +0.000 A 
ATOM      2  C   UNL     1       1.653   7.935  20.360  0.00  0.00    +0.000 A 
ATOM      3  C   UNL     1       0.903   9.103  20.161  0.00  0.00    +0.000 A 
ATOM      4  C   UNL     1       0.820   9.687  18.888  0.00  0.00    +0.000 A 
ATOM      5  C   UNL     1       1.503   9.079  17.823  0.00  0.00    +0.000 A 
ATOM      6  C   UNL     1       2.263   7.929  18.025  0.00  0.00    +0.000 A 
ENDROOT
BRANCH   1   7
ATOM      7  C   UNL     1       3.120   6.045  19.496  0.00  0.00    +0.000 C 
BRANCH   7   9
ATOM      8  C   UNL     1       1.708   4.537  18.026  0.00  0.00    +0.000 C 
ATOM      9  N   UNL     1       2.307   4.743  19.391  0.00  0.00    +0.000 N 
ATOM     10  C   UNL     1       1.233   4.687  20.453  0.00  0.00    +0.000 C 
ATOM     11  C   UNL     1       3.302   3.590  19.649  0.00  0.00    +0.000 C 
ENDBRANCH   7   9
ENDBRANCH   1   7
BRANCH   4  12
ATOM     12  C   UNL     1       0.024  10.951  18.669  0.00  0.00    +0.000 C 
BRANCH  12  13
ATOM     13  N   UNL     1       0.595  12.244  19.284  0.00  0.00    +0.000 N 
ATOM     14  C   UNL     1       0.687  12.135  20.800  0.00  0.00    +0.000 C 
ATOM     15  C   UNL     1       1.997  12.465  18.726  0.00  0.00    +0.000 C 
ATOM     16  C   UNL     1      -0.273  13.441  18.921  0.00  0.00    +0.000 C 
ENDBRANCH  12  13
ENDBRANCH   4  12
TORSDOF 4
ENDMDL
