MODEL 1
REMARK VINA RESULT:      -8.0      0.000      0.000
REMARK  Name = 
REMARK  6 active torsions:
REMARK  status: ('A' for Active; 'I' for Inactive)
REMARK    1  A    between atoms: C_1  and  O_2
REMARK    2  A    between atoms: O_2  and  C_3
REMARK    3  A    between atoms: C_6  and  C_7
REMARK    4  A    between atoms: C_7  and  C_8
REMARK    5  A    between atoms: C_11  and  C_12
REMARK    6  A    between atoms: C_12  and  N_13
REMARK                            x       y       z     vdW  Elec       q    Type
REMARK                         _______ _______ _______ _____ _____    ______ ____
ROOT
ATOM      1  N   UNL     1       4.683   4.460  17.759  0.00  0.00    +0.000 N 
ATOM      2  C   UNL     1       4.177   5.597  17.219  0.00  0.00    +0.000 C 
ATOM      3  O   UNL     1       4.665   6.304  16.356  0.00  0.00    +0.000 OA
ATOM      4  N   UNL     1       2.978   5.872  17.846  0.00  0.00    +0.000 N 
ATOM      5  C   UNL     1       2.544   4.790  18.723  0.00  0.00    +0.000 C 
ATOM      6  C   UNL     1       1.489   3.963  17.966  0.00  0.00    +0.000 C 
ATOM      7  C   UNL     1       1.099   2.629  18.594  0.00  0.00    +0.000 C 
ATOM      8  C   UNL     1       0.494   2.714  19.993  0.00  0.00    +0.000 C 
ATOM      9  C   UNL     1       1.509   3.006  21.089  0.00  0.00    +0.000 C 
ATOM     10  C   UNL     1       1.938   4.460  21.257  0.00  0.00    +0.000 C 
ATOM     11  C   UNL     1       2.007   5.365  20.030  0.00  0.00    +0.000 C 
ATOM     12  C   UNL     1       3.893   4.043  18.792  0.00  0.00    +0.000 C 
ATOM     13  O   UNL     1       4.193   3.154  19.583  0.00  0.00    +0.000 OA
ATOM     14  H   UNL     1       2.407   6.649  17.533  0.00  0.00    +0.000 HD
ENDROOT
BRANCH   1  15
ATOM     15  C   UNL     1       5.946   3.847  17.388  0.00  0.00    +0.000 C 
BRANCH  15  21
ATOM     16  C   UNL     1       7.340   5.244  15.757  0.00  0.00    +0.000 A 
ATOM     17  C   UNL     1       7.748   5.540  14.450  0.00  0.00    +0.000 A 
ATOM     18  C   UNL     1       7.160   4.904  13.355  0.00  0.00    +0.000 A 
ATOM     19  C   UNL     1       6.184   3.930  13.561  0.00  0.00    +0.000 A 
ATOM     20  C   UNL     1       5.823   3.587  14.873  0.00  0.00    +0.000 A 
ATOM     21  C   UNL     1       6.385   4.241  15.988  0.00  0.00    +0.000 A 
BRANCH  19  22
ATOM     22  C   UNL     1       5.467   3.264  12.439  0.00  0.00    +0.000 C 
ATOM     23  C   UNL     1       6.138   2.172  11.648  0.00  0.00    +0.000 C 
ATOM     24  O   UNL     1       4.318   3.614  12.174  0.00  0.00    +0.000 OA
ENDBRANCH  19  22
BRANCH  16  26
ATOM     25  C   UNL     1       7.494   7.261  16.962  0.00  0.00    +0.000 C 
ATOM     26  O   UNL     1       7.862   5.886  16.850  0.00  0.00    +0.000 OA
ENDBRANCH  16  26
ENDBRANCH  15  21
ENDBRANCH   1  15
TORSDOF 4
ENDMDL
MODEL 2
REMARK VINA RESULT:      -8.0      1.675      2.084
REMARK  Name = 
REMARK  6 active torsions:
REMARK  status: ('A' for Active; 'I' for Inactive)
REMARK    1  A    between atoms: C_1  and  O_2
REMARK    2  A    between atoms: O_2  and  C_3
REMARK    3  A    between atoms: C_6  and  C_7
REMARK    4  A    between atoms: C_7  and  C_8
REMARK    5  A    between atoms: C_11  and  C_12
REMARK    6  A    between atoms: C_12  and  N_13
REMARK                            x       y       z     vdW  Elec       q    Type
REMARK                         _______ _______ _______ _____ _____    ______ ____
ROOT
ATOM      1  N   UNL     1       3.757   6.881  18.027  0.00  0.00    +0.000 N 
ATOM      2  C   UNL     1       2.570   7.516  17.863  0.00  0.00    +0.000 C 
ATOM      3  O   UNL     1       2.350   8.570  17.292  0.00  0.00    +0.000 OA
ATOM      4  N   UNL     1       1.596   6.774  18.501  0.00  0.00    +0.000 N 
ATOM      5  C   UNL     1       2.092   5.484  18.967  0.00  0.00    +0.000 C 
ATOM      6  C   UNL     1       1.659   4.416  17.946  0.00  0.00    +0.000 C 
ATOM      7  C   UNL     1       2.298   3.040  18.096  0.00  0.00    +0.000 C 
ATOM      8  C   UNL     1       2.036   2.336  19.425  0.00  0.00    +0.000 C 
ATOM      9  C   UNL     1       2.830   2.903  20.593  0.00  0.00    +0.000 C 
ATOM     10  C   UNL     1       2.289   4.176  21.236  0.00  0.00    +0.000 C 
ATOM     11  C   UNL     1       1.561   5.199  20.369  0.00  0.00    +0.000 C 
ATOM     12  C   UNL     1       3.597   5.796  18.841  0.00  0.00    +0.000 C 
ATOM     13  O   UNL     1       4.520   5.140  19.314  0.00  0.00    +0.000 OA
ATOM     14  H   UNL     1       0.623   7.049  18.434  0.00  0.00    +0.000 HD
ENDROOT
BRANCH   1  15
ATOM     15  C   UNL     1       5.035   7.354  17.525  0.00  0.00    +0.000 C 
BRANCH  15  21
ATOM     16  C   UNL     1       7.053   5.779  17.484  0.00  0.00    +0.000 A 
ATOM     17  C   UNL     1       7.752   4.713  16.904  0.00  0.00    +0.000 A 
ATOM     18  C   UNL     1       7.320   4.141  15.705  0.00  0.00    +0.000 A 
ATOM     19  C   UNL     1       6.155   4.605  15.097  0.00  0.00    +0.000 A 
ATOM     20  C   UNL     1       5.419   5.628  15.713  0.00  0.00    +0.000 A 
ATOM     21  C   UNL     1       5.858   6.236  16.906  0.00  0.00    +0.000 A 
BRANCH  19  22
ATOM     22  C   UNL     1       5.677   4.088  13.785  0.00  0.00    +0.000 C 
ATOM     23  C   UNL     1       6.661   3.753  12.695  0.00  0.00    +0.000 C 
ATOM     24  O   UNL     1       4.469   3.933  13.609  0.00  0.00    +0.000 OA
ENDBRANCH  19  22
BRANCH  16  26
ATOM     25  C   UNL     1       7.852   5.499  19.681  0.00  0.00    +0.000 C 
ATOM     26  O   UNL     1       7.478   6.394  18.633  0.00  0.00    +0.000 OA
ENDBRANCH  16  26
ENDBRANCH  15  21
ENDBRANCH   1  15
TORSDOF 4
ENDMDL
MODEL 3
REMARK VINA RESULT:      -7.9      5.038      7.626
REMARK  Name = 
REMARK  6 active torsions:
REMARK  status: ('A' for Active; 'I' for Inactive)
REMARK    1  A    between atoms: C_1  and  O_2
REMARK    2  A    between atoms: O_2  and  C_3
REMARK    3  A    between atoms: C_6  and  C_7
REMARK    4  A    between atoms: C_7  and  C_8
REMARK    5  A    between atoms: C_11  and  C_12
REMARK    6  A    between atoms: C_12  and  N_13
REMARK                            x       y       z     vdW  Elec       q    Type
REMARK                         _______ _______ _______ _____ _____    ______ ____
ROOT
ATOM      1  N   UNL     1       2.202   8.210  18.907  0.00  0.00    +0.000 N 
ATOM      2  C   UNL     1       1.766   8.000  20.175  0.00  0.00    +0.000 C 
ATOM      3  O   UNL     1       1.229   8.791  20.929  0.00  0.00    +0.000 OA
ATOM      4  N   UNL     1       2.066   6.697  20.521  0.00  0.00    +0.000 N 
ATOM      5  C   UNL     1       2.562   5.919  19.391  0.00  0.00    +0.000 C 
ATOM      6  C   UNL     1       1.393   5.074  18.852  0.00  0.00    +0.000 C 
ATOM      7  C   UNL     1       1.618   4.389  17.508  0.00  0.00    +0.000 C 
ATOM      8  C   UNL     1       2.778   3.397  17.463  0.00  0.00    +0.000 C 
ATOM      9  C   UNL     1       4.151   4.050  17.433  0.00  0.00    +0.000 C 
ATOM     10  C   UNL     1       4.707   4.539  18.767  0.00  0.00    +0.000 C 
ATOM     11  C   UNL     1       3.746   5.063  19.829  0.00  0.00    +0.000 C 
ATOM     12  C   UNL     1       2.868   7.107  18.455  0.00  0.00    +0.000 C 
ATOM     13  O   UNL     1       3.528   7.068  17.421  0.00  0.00    +0.000 OA
ATOM     14  H   UNL     1       1.758   6.324  21.411  0.00  0.00    +0.000 HD
ENDROOT
BRANCH   1  15
ATOM     15  C   UNL     1       2.096   9.464  18.183  0.00  0.00    +0.000 C 
BRANCH  15  21
ATOM     16  C   UNL     1       0.618  11.229  19.302  0.00  0.00    +0.000 A 
ATOM     17  C   UNL     1      -0.624  11.861  19.447  0.00  0.00    +0.000 A 
ATOM     18  C   UNL     1      -1.754  11.382  18.780  0.00  0.00    +0.000 A 
ATOM     19  C   UNL     1      -1.640  10.288  17.923  0.00  0.00    +0.000 A 
ATOM     20  C   UNL     1      -0.383   9.698  17.727  0.00  0.00    +0.000 A 
ATOM     21  C   UNL     1       0.760  10.150  18.416  0.00  0.00    +0.000 A 
BRANCH  19  22
ATOM     22  C   UNL     1      -2.815   9.684  17.237  0.00  0.00    +0.000 C 
ATOM     23  C   UNL     1      -2.896   9.676  15.733  0.00  0.00    +0.000 C 
ATOM     24  O   UNL     1      -3.712   9.186  17.916  0.00  0.00    +0.000 OA
ENDBRANCH  19  22
BRANCH  16  26
ATOM     25  C   UNL     1       1.883  13.062  20.066  0.00  0.00    +0.000 C 
ATOM     26  O   UNL     1       1.734  11.645  19.980  0.00  0.00    +0.000 OA
ENDBRANCH  16  26
ENDBRANCH  15  21
ENDBRANCH   1  15
TORSDOF 4
ENDMDL
MODEL 4
REMARK VINA RESULT:      -7.9      1.289      2.079
REMARK  Name = 
REMARK  6 active torsions:
REMARK  status: ('A' for Active; 'I' for Inactive)
REMARK    1  A    between atoms: C_1  and  O_2
REMARK    2  A    between atoms: O_2  and  C_3
REMARK    3  A    between atoms: C_6  and  C_7
REMARK    4  A    between atoms: C_7  and  C_8
REMARK    5  A    between atoms: C_11  and  C_12
REMARK    6  A    between atoms: C_12  and  N_13
REMARK                            x       y       z     vdW  Elec       q    Type
REMARK                         _______ _______ _______ _____ _____    ______ ____
ROOT
ATOM      1  N   UNL     1       4.674   4.715  17.639  0.00  0.00    +0.000 N 
ATOM      2  C   UNL     1       5.656   4.162  18.393  0.00  0.00    +0.000 C 
ATOM      3  O   UNL     1       6.851   4.398  18.366  0.00  0.00    +0.000 OA
ATOM      4  N   UNL     1       5.082   3.216  19.218  0.00  0.00    +0.000 N 
ATOM      5  C   UNL     1       3.624   3.241  19.167  0.00  0.00    +0.000 C 
ATOM      6  C   UNL     1       3.123   4.022  20.397  0.00  0.00    +0.000 C 
ATOM      7  C   UNL     1       1.646   4.400  20.400  0.00  0.00    +0.000 C 
ATOM      8  C   UNL     1       0.669   3.229  20.346  0.00  0.00    +0.000 C 
ATOM      9  C   UNL     1       0.563   2.574  18.977  0.00  0.00    +0.000 C 
ATOM     10  C   UNL     1       1.665   1.587  18.602  0.00  0.00    +0.000 C 
ATOM     11  C   UNL     1       3.081   1.817  19.121  0.00  0.00    +0.000 C 
ATOM     12  C   UNL     1       3.488   4.082  17.881  0.00  0.00    +0.000 C 
ATOM     13  O   UNL     1       2.468   4.239  17.218  0.00  0.00    +0.000 OA
ATOM     14  H   UNL     1       5.645   2.737  19.912  0.00  0.00    +0.000 HD
ENDROOT
BRANCH   1  15
ATOM     15  C   UNL     1       4.871   5.737  16.626  0.00  0.00    +0.000 C 
BRANCH  15  21
ATOM     16  C   UNL     1       7.092   5.550  15.367  0.00  0.00    +0.000 A 
ATOM     17  C   UNL     1       7.851   5.032  14.309  0.00  0.00    +0.000 A 
ATOM     18  C   UNL     1       7.251   4.272  13.303  0.00  0.00    +0.000 A 
ATOM     19  C   UNL     1       5.889   3.986  13.370  0.00  0.00    +0.000 A 
ATOM     20  C   UNL     1       5.143   4.450  14.464  0.00  0.00    +0.000 A 
ATOM     21  C   UNL     1       5.726   5.243  15.471  0.00  0.00    +0.000 A 
BRANCH  19  22
ATOM     22  C   UNL     1       5.173   3.243  12.296  0.00  0.00    +0.000 C 
ATOM     23  C   UNL     1       5.839   2.085  11.598  0.00  0.00    +0.000 C 
ATOM     24  O   UNL     1       4.030   3.583  11.995  0.00  0.00    +0.000 OA
ENDBRANCH  19  22
BRANCH  16  26
ATOM     25  C   UNL     1       6.848   7.469  16.709  0.00  0.00    +0.000 C 
ATOM     26  O   UNL     1       7.641   6.340  16.343  0.00  0.00    +0.000 OA
ENDBRANCH  16  26
ENDBRANCH  15  21
ENDBRANCH   1  15
TORSDOF 4
ENDMDL
MODEL 5
REMARK VINA RESULT:      -7.8      1.886      2.469
REMARK  Name = 
REMARK  6 active torsions:
REMARK  status: ('A' for Active; 'I' for Inactive)
REMARK    1  A    between atoms: C_1  and  O_2
REMARK    2  A    between atoms: O_2  and  C_3
REMARK    3  A    between atoms: C_6  and  C_7
REMARK    4  A    between atoms: C_7  and  C_8
REMARK    5  A    between atoms: C_11  and  C_12
REMARK    6  A    between atoms: C_12  and  N_13
REMARK                            x       y       z     vdW  Elec       q    Type
REMARK                         _______ _______ _______ _____ _____    ______ ____
ROOT
ATOM      1  N   UNL     1       3.672   6.499  18.478  0.00  0.00    +0.000 N 
ATOM      2  C   UNL     1       2.549   7.117  18.033  0.00  0.00    +0.000 C 
ATOM      3  O   UNL     1       2.450   8.201  17.488  0.00  0.00    +0.000 OA
ATOM      4  N   UNL     1       1.468   6.312  18.336  0.00  0.00    +0.000 N 
ATOM      5  C   UNL     1       1.870   5.005  18.843  0.00  0.00    +0.000 C 
ATOM      6  C   UNL     1       1.773   3.998  17.681  0.00  0.00    +0.000 C 
ATOM      7  C   UNL     1       2.401   2.630  17.919  0.00  0.00    +0.000 C 
ATOM      8  C   UNL     1       1.817   1.832  19.082  0.00  0.00    +0.000 C 
ATOM      9  C   UNL     1       2.242   2.336  20.454  0.00  0.00    +0.000 C 
ATOM     10  C   UNL     1       1.497   3.551  20.998  0.00  0.00    +0.000 C 
ATOM     11  C   UNL     1       0.991   4.614  20.027  0.00  0.00    +0.000 C 
ATOM     12  C   UNL     1       3.340   5.358  19.151  0.00  0.00    +0.000 C 
ATOM     13  O   UNL     1       4.125   4.691  19.819  0.00  0.00    +0.000 OA
ATOM     14  H   UNL     1       0.540   6.569  18.023  0.00  0.00    +0.000 HD
ENDROOT
BRANCH   1  15
ATOM     15  C   UNL     1       5.018   7.032  18.372  0.00  0.00    +0.000 C 
BRANCH  15  21
ATOM     16  C   UNL     1       6.965   5.371  18.418  0.00  0.00    +0.000 A 
ATOM     17  C   UNL     1       7.790   4.445  17.766  0.00  0.00    +0.000 A 
ATOM     18  C   UNL     1       7.692   4.246  16.387  0.00  0.00    +0.000 A 
ATOM     19  C   UNL     1       6.735   4.944  15.652  0.00  0.00    +0.000 A 
ATOM     20  C   UNL     1       5.865   5.822  16.317  0.00  0.00    +0.000 A 
ATOM     21  C   UNL     1       5.971   6.057  17.702  0.00  0.00    +0.000 A 
BRANCH  19  22
ATOM     22  C   UNL     1       6.624   4.832  14.172  0.00  0.00    +0.000 C 
ATOM     23  C   UNL     1       5.526   4.008  13.551  0.00  0.00    +0.000 C 
ATOM     24  O   UNL     1       7.436   5.429  13.466  0.00  0.00    +0.000 OA
ENDBRANCH  19  22
BRANCH  16  26
ATOM     25  C   UNL     1       8.381   5.450  20.298  0.00  0.00    +0.000 C 
ATOM     26  O   UNL     1       7.070   5.625  19.761  0.00  0.00    +0.000 OA
ENDBRANCH  16  26
ENDBRANCH  15  21
ENDBRANCH   1  15
TORSDOF 4
ENDMDL
MODEL 6
REMARK VINA RESULT:      -7.5      4.067      6.340
REMARK  Name = 
REMARK  6 active torsions:
REMARK  status: ('A' for Active; 'I' for Inactive)
REMARK    1  A    between atoms: C_1  and  O_2
REMARK    2  A    between atoms: O_2  and  C_3
REMARK    3  A    between atoms: C_6  and  C_7
REMARK    4  A    between atoms: C_7  and  C_8
REMARK    5  A    between atoms: C_11  and  C_12
REMARK    6  A    between atoms: C_12  and  N_13
REMARK                            x       y       z     vdW  Elec       q    Type
REMARK                         _______ _______ _______ _____ _____    ______ ____
ROOT
ATOM      1  N   UNL     1       1.961   7.901  19.179  0.00  0.00    +0.000 N 
ATOM      2  C   UNL     1       2.503   8.284  17.995  0.00  0.00    +0.000 C 
ATOM      3  O   UNL     1       3.212   7.637  17.246  0.00  0.00    +0.000 OA
ATOM      4  N   UNL     1       2.146   9.598  17.766  0.00  0.00    +0.000 N 
ATOM      5  C   UNL     1       1.169  10.088  18.732  0.00  0.00    +0.000 C 
ATOM      6  C   UNL     1      -0.221  10.023  18.072  0.00  0.00    +0.000 C 
ATOM      7  C   UNL     1      -1.417  10.235  18.993  0.00  0.00    +0.000 C 
ATOM      8  C   UNL     1      -1.465  11.584  19.707  0.00  0.00    +0.000 C 
ATOM      9  C   UNL     1      -0.476  11.711  20.856  0.00  0.00    +0.000 C 
ATOM     10  C   UNL     1       0.968  12.033  20.485  0.00  0.00    +0.000 C 
ATOM     11  C   UNL     1       1.539  11.501  19.174  0.00  0.00    +0.000 C 
ATOM     12  C   UNL     1       1.343   8.963  19.774  0.00  0.00    +0.000 C 
ATOM     13  O   UNL     1       0.924   8.968  20.927  0.00  0.00    +0.000 OA
ATOM     14  H   UNL     1       2.398  10.048  16.894  0.00  0.00    +0.000 HD
ENDROOT
BRANCH   1  15
ATOM     15  C   UNL     1       2.124   6.594  19.790  0.00  0.00    +0.000 C 
BRANCH  15  21
ATOM     16  C   UNL     1       2.911   4.706  18.250  0.00  0.00    +0.000 A 
ATOM     17  C   UNL     1       3.945   4.010  17.609  0.00  0.00    +0.000 A 
ATOM     18  C   UNL     1       5.283   4.312  17.873  0.00  0.00    +0.000 A 
ATOM     19  C   UNL     1       5.599   5.347  18.752  0.00  0.00    +0.000 A 
ATOM     20  C   UNL     1       4.564   6.086  19.343  0.00  0.00    +0.000 A 
ATOM     21  C   UNL     1       3.209   5.775  19.110  0.00  0.00    +0.000 A 
BRANCH  19  22
ATOM     22  C   UNL     1       7.001   5.674  19.131  0.00  0.00    +0.000 C 
ATOM     23  C   UNL     1       7.819   6.614  18.285  0.00  0.00    +0.000 C 
ATOM     24  O   UNL     1       7.476   5.172  20.149  0.00  0.00    +0.000 OA
ENDBRANCH  19  22
BRANCH  16  26
ATOM     25  C   UNL     1       1.230   3.065  18.400  0.00  0.00    +0.000 C 
ATOM     26  O   UNL     1       1.591   4.401  18.050  0.00  0.00    +0.000 OA
ENDBRANCH  16  26
ENDBRANCH  15  21
ENDBRANCH   1  15
TORSDOF 4
ENDMDL
MODEL 7
REMARK VINA RESULT:      -7.5      2.590      6.712
REMARK  Name = 
REMARK  6 active torsions:
REMARK  status: ('A' for Active; 'I' for Inactive)
REMARK    1  A    between atoms: C_1  and  O_2
REMARK    2  A    between atoms: O_2  and  C_3
REMARK    3  A    between atoms: C_6  and  C_7
REMARK    4  A    between atoms: C_7  and  C_8
REMARK    5  A    between atoms: C_11  and  C_12
REMARK    6  A    between atoms: C_12  and  N_13
REMARK                            x       y       z     vdW  Elec       q    Type
REMARK                         _______ _______ _______ _____ _____    ______ ____
ROOT
ATOM      1  N   UNL     1       3.916   4.205  17.925  0.00  0.00    +0.000 N 
ATOM      2  C   UNL     1       4.060   3.661  16.691  0.00  0.00    +0.000 C 
ATOM      3  O   UNL     1       3.262   2.986  16.065  0.00  0.00    +0.000 OA
ATOM      4  N   UNL     1       5.326   3.969  16.232  0.00  0.00    +0.000 N 
ATOM      5  C   UNL     1       6.019   4.916  17.100  0.00  0.00    +0.000 C 
ATOM      6  C   UNL     1       5.894   6.314  16.466  0.00  0.00    +0.000 C 
ATOM      7  C   UNL     1       6.315   7.490  17.340  0.00  0.00    +0.000 C 
ATOM      8  C   UNL     1       7.769   7.478  17.803  0.00  0.00    +0.000 C 
ATOM      9  C   UNL     1       8.059   6.472  18.907  0.00  0.00    +0.000 C 
ATOM     10  C   UNL     1       8.251   5.021  18.479  0.00  0.00    +0.000 C 
ATOM     11  C   UNL     1       7.471   4.486  17.282  0.00  0.00    +0.000 C 
ATOM     12  C   UNL     1       5.091   4.775  18.324  0.00  0.00    +0.000 C 
ATOM     13  O   UNL     1       5.317   5.180  19.460  0.00  0.00    +0.000 OA
ATOM     14  H   UNL     1       5.604   3.709  15.293  0.00  0.00    +0.000 HD
ENDROOT
BRANCH   1  15
ATOM     15  C   UNL     1       2.732   4.087  18.758  0.00  0.00    +0.000 C 
BRANCH  15  21
ATOM     16  C   UNL     1       1.956   5.558  20.704  0.00  0.00    +0.000 A 
ATOM     17  C   UNL     1       1.624   6.818  21.219  0.00  0.00    +0.000 A 
ATOM     18  C   UNL     1       1.564   7.938  20.388  0.00  0.00    +0.000 A 
ATOM     19  C   UNL     1       1.881   7.816  19.036  0.00  0.00    +0.000 A 
ATOM     20  C   UNL     1       2.278   6.567  18.534  0.00  0.00    +0.000 A 
ATOM     21  C   UNL     1       2.313   5.420  19.353  0.00  0.00    +0.000 A 
BRANCH  19  22
ATOM     22  C   UNL     1       1.770   8.953  18.081  0.00  0.00    +0.000 C 
ATOM     23  C   UNL     1       0.729  10.021  18.288  0.00  0.00    +0.000 C 
ATOM     24  O   UNL     1       2.546   9.010  17.128  0.00  0.00    +0.000 OA
ENDBRANCH  19  22
BRANCH  16  26
ATOM     25  C   UNL     1       1.103   3.390  21.043  0.00  0.00    +0.000 C 
ATOM     26  O   UNL     1       1.976   4.431  21.483  0.00  0.00    +0.000 OA
ENDBRANCH  16  26
ENDBRANCH  15  21
ENDBRANCH   1  15
TORSDOF 4
ENDMDL
MODEL 8
REMARK VINA RESULT:      -7.4      9.785     12.154
REMARK  Name = 
REMARK  6 active torsions:
REMARK  status: ('A' for Active; 'I' for Inactive)
REMARK    1  A    between atoms: C_1  and  O_2
REMARK    2  A    between atoms: O_2  and  C_3
REMARK    3  A    between atoms: C_6  and  C_7
REMARK    4  A    between atoms: C_7  and  C_8
REMARK    5  A    between atoms: C_11  and  C_12
REMARK    6  A    between atoms: C_12  and  N_13
REMARK                            x       y       z     vdW  Elec       q    Type
REMARK                         _______ _______ _______ _____ _____    ______ ____
ROOT
ATOM      1  N   UNL     1      -2.273  12.872  22.045  0.00  0.00    +0.000 N 
ATOM      2  C   UNL     1      -2.286  11.914  23.005  0.00  0.00    +0.000 C 
ATOM      3  O   UNL     1      -1.452  11.053  23.223  0.00  0.00    +0.000 OA
ATOM      4  N   UNL     1      -3.462  12.037  23.718  0.00  0.00    +0.000 N 
ATOM      5  C   UNL     1      -4.208  13.239  23.361  0.00  0.00    +0.000 C 
ATOM      6  C   UNL     1      -3.923  14.307  24.434  0.00  0.00    +0.000 C 
ATOM      7  C   UNL     1      -4.387  15.724  24.116  0.00  0.00    +0.000 C 
ATOM      8  C   UNL     1      -5.888  15.889  23.891  0.00  0.00    +0.000 C 
ATOM      9  C   UNL     1      -6.375  15.359  22.550  0.00  0.00    +0.000 C 
ATOM     10  C   UNL     1      -6.591  13.853  22.445  0.00  0.00    +0.000 C 
ATOM     11  C   UNL     1      -5.693  12.913  23.244  0.00  0.00    +0.000 C 
ATOM     12  C   UNL     1      -3.456  13.553  22.051  0.00  0.00    +0.000 C 
ATOM     13  O   UNL     1      -3.806  14.348  21.183  0.00  0.00    +0.000 OA
ATOM     14  H   UNL     1      -3.629  11.452  24.528  0.00  0.00    +0.000 HD
ENDROOT
BRANCH   1  15
ATOM     15  C   UNL     1      -1.217  13.062  21.067  0.00  0.00    +0.000 C 
BRANCH  15  21
ATOM     16  C   UNL     1      -0.300  10.993  19.870  0.00  0.00    +0.000 A 
ATOM     17  C   UNL     1      -0.407  10.022  18.866  0.00  0.00    +0.000 A 
ATOM     18  C   UNL     1      -1.414  10.096  17.901  0.00  0.00    +0.000 A 
ATOM     19  C   UNL     1      -2.354  11.124  17.960  0.00  0.00    +0.000 A 
ATOM     20  C   UNL     1      -2.286  12.058  19.004  0.00  0.00    +0.000 A 
ATOM     21  C   UNL     1      -1.258  12.015  19.967  0.00  0.00    +0.000 A 
BRANCH  19  22
ATOM     22  C   UNL     1      -3.410  11.302  16.925  0.00  0.00    +0.000 C 
ATOM     23  C   UNL     1      -3.165  10.866  15.505  0.00  0.00    +0.000 C 
ATOM     24  O   UNL     1      -4.486  11.802  17.251  0.00  0.00    +0.000 OA
ENDBRANCH  19  22
BRANCH  16  26
ATOM     25  C   UNL     1       1.060   9.674  21.268  0.00  0.00    +0.000 C 
ATOM     26  O   UNL     1       0.706  10.976  20.800  0.00  0.00    +0.000 OA
ENDBRANCH  16  26
ENDBRANCH  15  21
ENDBRANCH   1  15
TORSDOF 4
ENDMDL
MODEL 9
REMARK VINA RESULT:      -7.3      2.360      6.929
REMARK  Name = 
REMARK  6 active torsions:
REMARK  status: ('A' for Active; 'I' for Inactive)
REMARK    1  A    between atoms: C_1  and  O_2
REMARK    2  A    between atoms: O_2  and  C_3
REMARK    3  A    between atoms: C_6  and  C_7
REMARK    4  A    between atoms: C_7  and  C_8
REMARK    5  A    between atoms: C_11  and  C_12
REMARK    6  A    between atoms: C_12  and  N_13
REMARK                            x       y       z     vdW  Elec       q    Type
REMARK                         _______ _______ _______ _____ _____    ______ ____
ROOT
ATOM      1  N   UNL     1       3.175   4.314  17.777  0.00  0.00    +0.000 N 
ATOM      2  C   UNL     1       3.527   3.089  18.244  0.00  0.00    +0.000 C 
ATOM      3  O   UNL     1       2.818   2.249  18.769  0.00  0.00    +0.000 OA
ATOM      4  N   UNL     1       4.887   2.937  18.063  0.00  0.00    +0.000 N 
ATOM      5  C   UNL     1       5.470   4.017  17.274  0.00  0.00    +0.000 C 
ATOM      6  C   UNL     1       5.634   3.510  15.829  0.00  0.00    +0.000 C 
ATOM      7  C   UNL     1       5.975   4.561  14.779  0.00  0.00    +0.000 C 
ATOM      8  C   UNL     1       7.285   5.313  15.005  0.00  0.00    +0.000 C 
ATOM      9  C   UNL     1       7.219   6.351  16.116  0.00  0.00    +0.000 C 
ATOM     10  C   UNL     1       7.346   5.834  17.545  0.00  0.00    +0.000 C 
ATOM     11  C   UNL     1       6.794   4.455  17.892  0.00  0.00    +0.000 C 
ATOM     12  C   UNL     1       4.288   5.002  17.387  0.00  0.00    +0.000 C 
ATOM     13  O   UNL     1       4.302   6.193  17.096  0.00  0.00    +0.000 OA
ATOM     14  H   UNL     1       5.334   2.055  18.287  0.00  0.00    +0.000 HD
ENDROOT
BRANCH   1  15
ATOM     15  C   UNL     1       1.832   4.866  17.808  0.00  0.00    +0.000 C 
BRANCH  15  21
ATOM     16  C   UNL     1       1.513   5.848  20.151  0.00  0.00    +0.000 A 
ATOM     17  C   UNL     1       1.459   6.955  21.009  0.00  0.00    +0.000 A 
ATOM     18  C   UNL     1       1.523   8.255  20.505  0.00  0.00    +0.000 A 
ATOM     19  C   UNL     1       1.688   8.461  19.136  0.00  0.00    +0.000 A 
ATOM     20  C   UNL     1       1.808   7.352  18.285  0.00  0.00    +0.000 A 
ATOM     21  C   UNL     1       1.714   6.033  18.774  0.00  0.00    +0.000 A 
BRANCH  19  22
ATOM     22  C   UNL     1       1.693   9.819  18.526  0.00  0.00    +0.000 C 
ATOM     23  C   UNL     1       1.079  10.984  19.256  0.00  0.00    +0.000 C 
ATOM     24  O   UNL     1       2.215   9.975  17.423  0.00  0.00    +0.000 OA
ENDBRANCH  19  22
BRANCH  16  26
ATOM     25  C   UNL     1       2.409   4.176  21.545  0.00  0.00    +0.000 C 
ATOM     26  O   UNL     1       1.403   4.561  20.608  0.00  0.00    +0.000 OA
ENDBRANCH  16  26
ENDBRANCH  15  21
ENDBRANCH   1  15
TORSDOF 4
ENDMDL
