MODEL 1
REMARK VINA RESULT:      -6.5      0.000      0.000
REMARK  Name = 
REMARK  5 active torsions:
REMARK  status: ('A' for Active; 'I' for Inactive)
REMARK    1  A    between atoms: C_1  and  N_2
REMARK    2  A    between atoms: N_2  and  C_3
REMARK    3  A    between atoms: C_7  and  C_8
REMARK    4  A    between atoms: C_12  and  C_13
REMARK    5  A    between atoms: C_12  and  C_19
REMARK                            x       y       z     vdW  Elec       q    Type
REMARK                         _______ _______ _______ _____ _____    ______ ____
ROOT
ATOM      1  C   UNL     1      -1.454  13.095  20.959  0.00  0.00    +0.000 C 
ATOM      2  C   UNL     1      -0.944  13.827  19.726  0.00  0.00    +0.000 C 
ATOM      3  S   UNL     1       0.066  12.697  18.808  0.00  0.00    +0.000 S 
ATOM      4  O   UNL     1       1.247  12.713  20.045  0.00  0.00    +0.000 OA
ATOM      5  C   UNL     1      -1.114  11.365  19.374  0.00  0.00    +0.000 C 
ATOM      6  O   UNL     1      -1.814  11.777  20.560  0.00  0.00    +0.000 OA
ENDROOT
BRANCH   1  13
ATOM      7  C   UNL     1      -1.257  14.315  23.776  0.00  0.00    +0.000 C 
ATOM      8  N   UNL     1      -2.484  14.588  22.983  0.00  0.00    +0.000 N 
ATOM      9  C   UNL     1      -2.535  16.039  22.688  0.00  0.00    +0.000 C 
ATOM     10  C   UNL     1      -3.647  14.209  23.828  0.00  0.00    +0.000 C 
ATOM     11  C   UNL     1      -3.862  12.736  23.544  0.00  0.00    +0.000 C 
ATOM     12  C   UNL     1      -3.816  12.754  22.029  0.00  0.00    +0.000 C 
ATOM     13  C   UNL     1      -2.682  13.773  21.710  0.00  0.00    +0.000 C 
ENDBRANCH   1  13
BRANCH   5  14
ATOM     14  C   UNL     1      -2.152  11.183  18.217  0.00  0.00    +0.000 A 
ATOM     15  C   UNL     1      -1.842  10.455  17.028  0.00  0.00    +0.000 A 
ATOM     16  C   UNL     1      -2.776  10.272  16.013  0.00  0.00    +0.000 A 
ATOM     17  C   UNL     1      -4.053  10.806  16.136  0.00  0.00    +0.000 A 
ATOM     18  C   UNL     1      -4.402  11.506  17.288  0.00  0.00    +0.000 A 
ATOM     19  C   UNL     1      -3.474  11.692  18.323  0.00  0.00    +0.000 A 
ENDBRANCH   5  14
BRANCH   5  20
ATOM     20  C   UNL     1      -0.435   9.962  19.639  0.00  0.00    +0.000 C 
ATOM     21  C   UNL     1      -0.273   9.626  21.146  0.00  0.00    +0.000 C 
ATOM     22  C   UNL     1       0.405   8.277  21.382  0.00  0.00    +0.000 C 
ATOM     23  C   UNL     1       1.777   8.261  20.698  0.00  0.00    +0.000 C 
ATOM     24  C   UNL     1       1.596   8.464  19.194  0.00  0.00    +0.000 C 
ATOM     25  C   UNL     1       0.931   9.825  18.917  0.00  0.00    +0.000 C 
ENDBRANCH   5  20
TORSDOF 3
ENDMDL
MODEL 2
REMARK VINA RESULT:      -6.4      2.623      5.205
REMARK  Name = 
REMARK  5 active torsions:
REMARK  status: ('A' for Active; 'I' for Inactive)
REMARK    1  A    between atoms: C_1  and  N_2
REMARK    2  A    between atoms: N_2  and  C_3
REMARK    3  A    between atoms: C_7  and  C_8
REMARK    4  A    between atoms: C_12  and  C_13
REMARK    5  A    between atoms: C_12  and  C_19
REMARK                            x       y       z     vdW  Elec       q    Type
REMARK                         _______ _______ _______ _____ _____    ______ ____
ROOT
ATOM      1  C   UNL     1      -3.748  11.879  18.637  0.00  0.00    +0.000 C 
ATOM      2  C   UNL     1      -3.444  10.432  18.279  0.00  0.00    +0.000 C 
ATOM      3  S   UNL     1      -1.758  10.352  17.741  0.00  0.00    +0.000 S 
ATOM      4  O   UNL     1      -2.141  11.249  16.336  0.00  0.00    +0.000 OA
ATOM      5  C   UNL     1      -1.414  11.683  19.005  0.00  0.00    +0.000 C 
ATOM      6  O   UNL     1      -2.618  12.398  19.329  0.00  0.00    +0.000 OA
ENDROOT
BRANCH   1  13
ATOM      7  C   UNL     1      -6.509  12.487  17.424  0.00  0.00    +0.000 C 
ATOM      8  N   UNL     1      -6.441  12.159  18.872  0.00  0.00    +0.000 N 
ATOM      9  C   UNL     1      -7.157  10.881  19.094  0.00  0.00    +0.000 C 
ATOM     10  C   UNL     1      -7.134  13.253  19.604  0.00  0.00    +0.000 C 
ATOM     11  C   UNL     1      -6.056  14.290  19.848  0.00  0.00    +0.000 C 
ATOM     12  C   UNL     1      -4.955  13.400  20.389  0.00  0.00    +0.000 C 
ATOM     13  C   UNL     1      -5.056  12.119  19.509  0.00  0.00    +0.000 C 
ENDBRANCH   1  13
BRANCH   5  14
ATOM     14  C   UNL     1      -0.909  10.944  20.288  0.00  0.00    +0.000 A 
ATOM     15  C   UNL     1      -1.097  11.483  21.597  0.00  0.00    +0.000 A 
ATOM     16  C   UNL     1      -0.671  10.811  22.739  0.00  0.00    +0.000 A 
ATOM     17  C   UNL     1      -0.039   9.578  22.626  0.00  0.00    +0.000 A 
ATOM     18  C   UNL     1       0.147   9.008  21.369  0.00  0.00    +0.000 A 
ATOM     19  C   UNL     1      -0.283   9.671  20.211  0.00  0.00    +0.000 A 
ENDBRANCH   5  14
BRANCH   5  20
ATOM     20  C   UNL     1      -0.300  12.719  18.575  0.00  0.00    +0.000 C 
ATOM     21  C   UNL     1       1.146  12.177  18.734  0.00  0.00    +0.000 C 
ATOM     22  C   UNL     1       2.209  13.200  18.335  0.00  0.00    +0.000 C 
ATOM     23  C   UNL     1       2.039  14.474  19.170  0.00  0.00    +0.000 C 
ATOM     24  C   UNL     1       0.658  15.073  18.907  0.00  0.00    +0.000 C 
ATOM     25  C   UNL     1      -0.441  14.075  19.316  0.00  0.00    +0.000 C 
ENDBRANCH   5  20
TORSDOF 3
ENDMDL
MODEL 3
REMARK VINA RESULT:      -6.4      1.186      1.709
REMARK  Name = 
REMARK  5 active torsions:
REMARK  status: ('A' for Active; 'I' for Inactive)
REMARK    1  A    between atoms: C_1  and  N_2
REMARK    2  A    between atoms: N_2  and  C_3
REMARK    3  A    between atoms: C_7  and  C_8
REMARK    4  A    between atoms: C_12  and  C_13
REMARK    5  A    between atoms: C_12  and  C_19
REMARK                            x       y       z     vdW  Elec       q    Type
REMARK                         _______ _______ _______ _____ _____    ______ ____
ROOT
ATOM      1  C   UNL     1      -1.314  14.001  20.677  0.00  0.00    +0.000 C 
ATOM      2  C   UNL     1      -0.561  14.159  19.364  0.00  0.00    +0.000 C 
ATOM      3  S   UNL     1       0.365  12.674  19.090  0.00  0.00    +0.000 S 
ATOM      4  O   UNL     1       1.386  13.041  20.413  0.00  0.00    +0.000 OA
ATOM      5  C   UNL     1      -1.059  11.776  19.899  0.00  0.00    +0.000 C 
ATOM      6  O   UNL     1      -1.820  12.672  20.726  0.00  0.00    +0.000 OA
ENDROOT
BRANCH   1  13
ATOM      7  C   UNL     1      -1.502  15.815  23.155  0.00  0.00    +0.000 C 
ATOM      8  N   UNL     1      -2.428  16.083  22.023  0.00  0.00    +0.000 N 
ATOM      9  C   UNL     1      -2.094  17.409  21.453  0.00  0.00    +0.000 C 
ATOM     10  C   UNL     1      -3.806  16.111  22.580  0.00  0.00    +0.000 C 
ATOM     11  C   UNL     1      -4.265  14.668  22.536  0.00  0.00    +0.000 C 
ATOM     12  C   UNL     1      -3.873  14.312  21.115  0.00  0.00    +0.000 C 
ATOM     13  C   UNL     1      -2.503  15.028  20.925  0.00  0.00    +0.000 C 
ENDBRANCH   1  13
BRANCH   5  14
ATOM     14  C   UNL     1      -1.974  11.272  18.732  0.00  0.00    +0.000 A 
ATOM     15  C   UNL     1      -3.329  11.699  18.594  0.00  0.00    +0.000 A 
ATOM     16  C   UNL     1      -4.132  11.270  17.541  0.00  0.00    +0.000 A 
ATOM     17  C   UNL     1      -3.621  10.400  16.586  0.00  0.00    +0.000 A 
ATOM     18  C   UNL     1      -2.298   9.975  16.673  0.00  0.00    +0.000 A 
ATOM     19  C   UNL     1      -1.476  10.404  17.725  0.00  0.00    +0.000 A 
ENDBRANCH   5  14
BRANCH   5  20
ATOM     20  C   UNL     1      -0.634  10.518  20.756  0.00  0.00    +0.000 C 
ATOM     21  C   UNL     1      -0.549  10.807  22.279  0.00  0.00    +0.000 C 
ATOM     22  C   UNL     1      -0.115   9.585  23.089  0.00  0.00    +0.000 C 
ATOM     23  C   UNL     1       1.242   9.083  22.581  0.00  0.00    +0.000 C 
ATOM     24  C   UNL     1       1.115   8.679  21.113  0.00  0.00    +0.000 C 
ATOM     25  C   UNL     1       0.697   9.892  20.261  0.00  0.00    +0.000 C 
ENDBRANCH   5  20
TORSDOF 3
ENDMDL
MODEL 4
REMARK VINA RESULT:      -6.3      1.379      1.737
REMARK  Name = 
REMARK  5 active torsions:
REMARK  status: ('A' for Active; 'I' for Inactive)
REMARK    1  A    between atoms: C_1  and  N_2
REMARK    2  A    between atoms: N_2  and  C_3
REMARK    3  A    between atoms: C_7  and  C_8
REMARK    4  A    between atoms: C_12  and  C_13
REMARK    5  A    between atoms: C_12  and  C_19
REMARK                            x       y       z     vdW  Elec       q    Type
REMARK                         _______ _______ _______ _____ _____    ______ ____
ROOT
ATOM      1  C   UNL     1      -0.781  14.057  20.393  0.00  0.00    +0.000 C 
ATOM      2  C   UNL     1      -0.060  14.038  19.053  0.00  0.00    +0.000 C 
ATOM      3  S   UNL     1       0.675  12.438  18.859  0.00  0.00    +0.000 S 
ATOM      4  O   UNL     1       1.776  12.765  20.126  0.00  0.00    +0.000 OA
ATOM      5  C   UNL     1      -0.817  11.772  19.764  0.00  0.00    +0.000 C 
ATOM      6  O   UNL     1      -1.438  12.804  20.547  0.00  0.00    +0.000 OA
ENDROOT
BRANCH   1  13
ATOM      7  C   UNL     1      -0.496  16.225  22.557  0.00  0.00    +0.000 C 
ATOM      8  N   UNL     1      -1.526  16.424  21.503  0.00  0.00    +0.000 N 
ATOM      9  C   UNL     1      -1.144  17.607  20.697  0.00  0.00    +0.000 C 
ATOM     10  C   UNL     1      -2.817  16.684  22.192  0.00  0.00    +0.000 C 
ATOM     11  C   UNL     1      -3.408  15.309  22.428  0.00  0.00    +0.000 C 
ATOM     12  C   UNL     1      -3.228  14.708  21.048  0.00  0.00    +0.000 C 
ATOM     13  C   UNL     1      -1.832  15.233  20.601  0.00  0.00    +0.000 C 
ENDBRANCH   1  13
BRANCH   5  14
ATOM     14  C   UNL     1      -1.824  11.307  18.659  0.00  0.00    +0.000 A 
ATOM     15  C   UNL     1      -1.460  10.364  17.650  0.00  0.00    +0.000 A 
ATOM     16  C   UNL     1      -2.365   9.933  16.685  0.00  0.00    +0.000 A 
ATOM     17  C   UNL     1      -3.666  10.421  16.683  0.00  0.00    +0.000 A 
ATOM     18  C   UNL     1      -4.067  11.326  17.661  0.00  0.00    +0.000 A 
ATOM     19  C   UNL     1      -3.168  11.765  18.643  0.00  0.00    +0.000 A 
ENDBRANCH   5  14
BRANCH   5  20
ATOM     20  C   UNL     1      -0.515  10.531  20.694  0.00  0.00    +0.000 C 
ATOM     21  C   UNL     1      -0.435  10.892  22.202  0.00  0.00    +0.000 C 
ATOM     22  C   UNL     1      -0.120   9.683  23.084  0.00  0.00    +0.000 C 
ATOM     23  C   UNL     1       1.200   9.046  22.635  0.00  0.00    +0.000 C 
ATOM     24  C   UNL     1       1.069   8.577  21.186  0.00  0.00    +0.000 C 
ATOM     25  C   UNL     1       0.769   9.773  20.264  0.00  0.00    +0.000 C 
ENDBRANCH   5  20
TORSDOF 3
ENDMDL
MODEL 5
REMARK VINA RESULT:      -6.3      2.622      5.348
REMARK  Name = 
REMARK  5 active torsions:
REMARK  status: ('A' for Active; 'I' for Inactive)
REMARK    1  A    between atoms: C_1  and  N_2
REMARK    2  A    between atoms: N_2  and  C_3
REMARK    3  A    between atoms: C_7  and  C_8
REMARK    4  A    between atoms: C_12  and  C_13
REMARK    5  A    between atoms: C_12  and  C_19
REMARK                            x       y       z     vdW  Elec       q    Type
REMARK                         _______ _______ _______ _____ _____    ______ ____
ROOT
ATOM      1  C   UNL     1       0.391  13.023  20.356  0.00  0.00    +0.000 C 
ATOM      2  C   UNL     1       0.571  12.147  21.587  0.00  0.00    +0.000 C 
ATOM      3  S   UNL     1      -0.626  10.844  21.501  0.00  0.00    +0.000 S 
ATOM      4  O   UNL     1      -1.895  11.964  21.745  0.00  0.00    +0.000 OA
ATOM      5  C   UNL     1      -0.375  10.893  19.651  0.00  0.00    +0.000 C 
ATOM      6  O   UNL     1       0.159  12.164  19.245  0.00  0.00    +0.000 OA
ENDROOT
BRANCH   1  13
ATOM      7  C   UNL     1       0.055  15.643  18.778  0.00  0.00    +0.000 C 
ATOM      8  N   UNL     1       1.350  15.406  19.469  0.00  0.00    +0.000 N 
ATOM      9  C   UNL     1       1.501  16.424  20.535  0.00  0.00    +0.000 C 
ATOM     10  C   UNL     1       2.426  15.580  18.457  0.00  0.00    +0.000 C 
ATOM     11  C   UNL     1       2.581  14.211  17.826  0.00  0.00    +0.000 C 
ATOM     12  C   UNL     1       2.646  13.354  19.074  0.00  0.00    +0.000 C 
ATOM     13  C   UNL     1       1.596  14.006  20.021  0.00  0.00    +0.000 C 
ENDBRANCH   1  13
BRANCH   5  14
ATOM     14  C   UNL     1       0.676   9.780  19.325  0.00  0.00    +0.000 A 
ATOM     15  C   UNL     1       0.963   8.719  20.236  0.00  0.00    +0.000 A 
ATOM     16  C   UNL     1       1.879   7.716  19.931  0.00  0.00    +0.000 A 
ATOM     17  C   UNL     1       2.547   7.729  18.713  0.00  0.00    +0.000 A 
ATOM     18  C   UNL     1       2.281   8.735  17.788  0.00  0.00    +0.000 A 
ATOM     19  C   UNL     1       1.356   9.749  18.078  0.00  0.00    +0.000 A 
ENDBRANCH   5  14
BRANCH   5  20
ATOM     20  C   UNL     1      -1.677  10.590  18.808  0.00  0.00    +0.000 C 
ATOM     21  C   UNL     1      -1.382   9.995  17.405  0.00  0.00    +0.000 C 
ATOM     22  C   UNL     1      -2.652   9.729  16.596  0.00  0.00    +0.000 C 
ATOM     23  C   UNL     1      -3.453  11.028  16.449  0.00  0.00    +0.000 C 
ATOM     24  C   UNL     1      -3.850  11.538  17.834  0.00  0.00    +0.000 C 
ATOM     25  C   UNL     1      -2.593  11.835  18.672  0.00  0.00    +0.000 C 
ENDBRANCH   5  20
TORSDOF 3
ENDMDL
MODEL 6
REMARK VINA RESULT:      -6.3      1.993      2.785
REMARK  Name = 
REMARK  5 active torsions:
REMARK  status: ('A' for Active; 'I' for Inactive)
REMARK    1  A    between atoms: C_1  and  N_2
REMARK    2  A    between atoms: N_2  and  C_3
REMARK    3  A    between atoms: C_7  and  C_8
REMARK    4  A    between atoms: C_12  and  C_13
REMARK    5  A    between atoms: C_12  and  C_19
REMARK                            x       y       z     vdW  Elec       q    Type
REMARK                         _______ _______ _______ _____ _____    ______ ____
ROOT
ATOM      1  C   UNL     1      -0.441  14.143  19.817  0.00  0.00    +0.000 C 
ATOM      2  C   UNL     1       0.372  13.734  18.598  0.00  0.00    +0.000 C 
ATOM      3  S   UNL     1       0.780  12.019  18.771  0.00  0.00    +0.000 S 
ATOM      4  O   UNL     1       1.813  12.375  20.087  0.00  0.00    +0.000 OA
ATOM      5  C   UNL     1      -0.888  11.826  19.589  0.00  0.00    +0.000 C 
ATOM      6  O   UNL     1      -1.350  13.086  20.102  0.00  0.00    +0.000 OA
ENDROOT
BRANCH   1  13
ATOM      7  C   UNL     1       0.849  16.910  20.199  0.00  0.00    +0.000 C 
ATOM      8  N   UNL     1      -0.524  16.853  19.630  0.00  0.00    +0.000 N 
ATOM      9  C   UNL     1      -0.472  17.357  18.238  0.00  0.00    +0.000 C 
ATOM     10  C   UNL     1      -1.379  17.748  20.454  0.00  0.00    +0.000 C 
ATOM     11  C   UNL     1      -1.874  16.869  21.584  0.00  0.00    +0.000 C 
ATOM     12  C   UNL     1      -2.334  15.661  20.792  0.00  0.00    +0.000 C 
ATOM     13  C   UNL     1      -1.244  15.510  19.690  0.00  0.00    +0.000 C 
ENDBRANCH   1  13
BRANCH   5  14
ATOM     14  C   UNL     1      -1.870  11.351  18.467  0.00  0.00    +0.000 A 
ATOM     15  C   UNL     1      -1.496  10.372  17.496  0.00  0.00    +0.000 A 
ATOM     16  C   UNL     1      -2.381   9.933  16.516  0.00  0.00    +0.000 A 
ATOM     17  C   UNL     1      -3.670  10.449  16.459  0.00  0.00    +0.000 A 
ATOM     18  C   UNL     1      -4.081  11.390  17.399  0.00  0.00    +0.000 A 
ATOM     19  C   UNL     1      -3.203  11.838  18.396  0.00  0.00    +0.000 A 
ENDBRANCH   5  14
BRANCH   5  20
ATOM     20  C   UNL     1      -0.925  10.753  20.749  0.00  0.00    +0.000 C 
ATOM     21  C   UNL     1      -0.842  11.372  22.170  0.00  0.00    +0.000 C 
ATOM     22  C   UNL     1      -0.857  10.318  23.276  0.00  0.00    +0.000 C 
ATOM     23  C   UNL     1       0.304   9.337  23.072  0.00  0.00    +0.000 C 
ATOM     24  C   UNL     1       0.143   8.636  21.723  0.00  0.00    +0.000 C 
ATOM     25  C   UNL     1       0.172   9.668  20.580  0.00  0.00    +0.000 C 
ENDBRANCH   5  20
TORSDOF 3
ENDMDL
MODEL 7
REMARK VINA RESULT:      -6.3      1.594      2.372
REMARK  Name = 
REMARK  5 active torsions:
REMARK  status: ('A' for Active; 'I' for Inactive)
REMARK    1  A    between atoms: C_1  and  N_2
REMARK    2  A    between atoms: N_2  and  C_3
REMARK    3  A    between atoms: C_7  and  C_8
REMARK    4  A    between atoms: C_12  and  C_13
REMARK    5  A    between atoms: C_12  and  C_19
REMARK                            x       y       z     vdW  Elec       q    Type
REMARK                         _______ _______ _______ _____ _____    ______ ____
ROOT
ATOM      1  C   UNL     1      -0.725  14.059  20.201  0.00  0.00    +0.000 C 
ATOM      2  C   UNL     1       0.028  13.927  18.885  0.00  0.00    +0.000 C 
ATOM      3  S   UNL     1       0.702  12.290  18.812  0.00  0.00    +0.000 S 
ATOM      4  O   UNL     1       1.783  12.654  20.086  0.00  0.00    +0.000 OA
ATOM      5  C   UNL     1      -0.838  11.741  19.715  0.00  0.00    +0.000 C 
ATOM      6  O   UNL     1      -1.436  12.845  20.415  0.00  0.00    +0.000 OA
ENDROOT
BRANCH   1  13
ATOM      7  C   UNL     1       0.092  16.843  21.224  0.00  0.00    +0.000 C 
ATOM      8  N   UNL     1      -1.235  16.703  20.568  0.00  0.00    +0.000 N 
ATOM      9  C   UNL     1      -1.220  17.493  19.314  0.00  0.00    +0.000 C 
ATOM     10  C   UNL     1      -2.248  17.265  21.500  0.00  0.00    +0.000 C 
ATOM     11  C   UNL     1      -2.631  16.102  22.392  0.00  0.00    +0.000 C 
ATOM     12  C   UNL     1      -2.867  15.034  21.342  0.00  0.00    +0.000 C 
ATOM     13  C   UNL     1      -1.732  15.286  20.305  0.00  0.00    +0.000 C 
ENDBRANCH   1  13
BRANCH   5  14
ATOM     14  C   UNL     1      -1.835  11.246  18.614  0.00  0.00    +0.000 A 
ATOM     15  C   UNL     1      -3.179  11.724  18.538  0.00  0.00    +0.000 A 
ATOM     16  C   UNL     1      -4.054  11.302  17.543  0.00  0.00    +0.000 A 
ATOM     17  C   UNL     1      -3.632  10.388  16.584  0.00  0.00    +0.000 A 
ATOM     18  C   UNL     1      -2.323   9.913  16.611  0.00  0.00    +0.000 A 
ATOM     19  C   UNL     1      -1.428  10.334  17.605  0.00  0.00    +0.000 A 
ENDBRANCH   5  14
BRANCH   5  20
ATOM     20  C   UNL     1      -0.610  10.551  20.730  0.00  0.00    +0.000 C 
ATOM     21  C   UNL     1      -0.589  10.999  22.216  0.00  0.00    +0.000 C 
ATOM     22  C   UNL     1      -0.345   9.838  23.180  0.00  0.00    +0.000 C 
ATOM     23  C   UNL     1       0.977   9.145  22.830  0.00  0.00    +0.000 C 
ATOM     24  C   UNL     1       0.899   8.593  21.407  0.00  0.00    +0.000 C 
ATOM     25  C   UNL     1       0.672   9.740  20.404  0.00  0.00    +0.000 C 
ENDBRANCH   5  20
TORSDOF 3
ENDMDL
MODEL 8
REMARK VINA RESULT:      -6.3      2.913      5.587
REMARK  Name = 
REMARK  5 active torsions:
REMARK  status: ('A' for Active; 'I' for Inactive)
REMARK    1  A    between atoms: C_1  and  N_2
REMARK    2  A    between atoms: N_2  and  C_3
REMARK    3  A    between atoms: C_7  and  C_8
REMARK    4  A    between atoms: C_12  and  C_13
REMARK    5  A    between atoms: C_12  and  C_19
REMARK                            x       y       z     vdW  Elec       q    Type
REMARK                         _______ _______ _______ _____ _____    ______ ____
ROOT
ATOM      1  C   UNL     1       1.035  12.777  19.769  0.00  0.00    +0.000 C 
ATOM      2  C   UNL     1       0.805  12.040  21.080  0.00  0.00    +0.000 C 
ATOM      3  S   UNL     1      -0.555  10.929  20.843  0.00  0.00    +0.000 S 
ATOM      4  O   UNL     1      -1.635  12.247  20.700  0.00  0.00    +0.000 OA
ATOM      5  C   UNL     1       0.076  10.715  19.098  0.00  0.00    +0.000 C 
ATOM      6  O   UNL     1       0.893  11.834  18.713  0.00  0.00    +0.000 OA
ENDROOT
BRANCH   1  13
ATOM      7  C   UNL     1       1.482  15.715  20.564  0.00  0.00    +0.000 C 
ATOM      8  N   UNL     1       2.679  14.884  20.266  0.00  0.00    +0.000 N 
ATOM      9  C   UNL     1       3.469  14.743  21.512  0.00  0.00    +0.000 C 
ATOM     10  C   UNL     1       3.478  15.613  19.246  0.00  0.00    +0.000 C 
ATOM     11  C   UNL     1       2.906  15.161  17.919  0.00  0.00    +0.000 C 
ATOM     12  C   UNL     1       2.881  13.662  18.142  0.00  0.00    +0.000 C 
ATOM     13  C   UNL     1       2.434  13.522  19.627  0.00  0.00    +0.000 C 
ENDBRANCH   1  13
BRANCH   5  14
ATOM     14  C   UNL     1       0.965   9.427  19.111  0.00  0.00    +0.000 A 
ATOM     15  C   UNL     1       1.702   9.002  17.964  0.00  0.00    +0.000 A 
ATOM     16  C   UNL     1       2.512   7.871  17.988  0.00  0.00    +0.000 A 
ATOM     17  C   UNL     1       2.621   7.116  19.149  0.00  0.00    +0.000 A 
ATOM     18  C   UNL     1       1.934   7.506  20.295  0.00  0.00    +0.000 A 
ATOM     19  C   UNL     1       1.119   8.648  20.289  0.00  0.00    +0.000 A 
ENDBRANCH   5  14
BRANCH   5  20
ATOM     20  C   UNL     1      -1.057  10.509  18.015  0.00  0.00    +0.000 C 
ATOM     21  C   UNL     1      -1.571  11.836  17.395  0.00  0.00    +0.000 C 
ATOM     22  C   UNL     1      -2.681  11.617  16.367  0.00  0.00    +0.000 C 
ATOM     23  C   UNL     1      -3.848  10.864  17.018  0.00  0.00    +0.000 C 
ATOM     24  C   UNL     1      -3.360   9.503  17.512  0.00  0.00    +0.000 C 
ATOM     25  C   UNL     1      -2.251   9.685  18.565  0.00  0.00    +0.000 C 
ENDBRANCH   5  20
TORSDOF 3
ENDMDL
MODEL 9
REMARK VINA RESULT:      -6.2      1.255      1.756
REMARK  Name = 
REMARK  5 active torsions:
REMARK  status: ('A' for Active; 'I' for Inactive)
REMARK    1  A    between atoms: C_1  and  N_2
REMARK    2  A    between atoms: N_2  and  C_3
REMARK    3  A    between atoms: C_7  and  C_8
REMARK    4  A    between atoms: C_12  and  C_13
REMARK    5  A    between atoms: C_12  and  C_19
REMARK                            x       y       z     vdW  Elec       q    Type
REMARK                         _______ _______ _______ _____ _____    ______ ____
ROOT
ATOM      1  C   UNL     1      -2.125  13.778  21.270  0.00  0.00    +0.000 C 
ATOM      2  C   UNL     1      -1.332  14.268  20.068  0.00  0.00    +0.000 C 
ATOM      3  S   UNL     1      -0.113  13.039  19.689  0.00  0.00    +0.000 S 
ATOM      4  O   UNL     1       0.723  13.389  21.140  0.00  0.00    +0.000 OA
ATOM      5  C   UNL     1      -1.382  11.781  20.231  0.00  0.00    +0.000 C 
ATOM      6  O   UNL     1      -2.360  12.385  21.093  0.00  0.00    +0.000 OA
ENDROOT
BRANCH   1  13
ATOM      7  C   UNL     1      -3.460  13.931  24.038  0.00  0.00    +0.000 C 
ATOM      8  N   UNL     1      -4.003  14.791  22.953  0.00  0.00    +0.000 N 
ATOM      9  C   UNL     1      -3.771  16.207  23.323  0.00  0.00    +0.000 C 
ATOM     10  C   UNL     1      -5.464  14.528  22.873  0.00  0.00    +0.000 C 
ATOM     11  C   UNL     1      -5.589  13.354  21.924  0.00  0.00    +0.000 C 
ATOM     12  C   UNL     1      -4.697  13.833  20.797  0.00  0.00    +0.000 C 
ATOM     13  C   UNL     1      -3.509  14.516  21.537  0.00  0.00    +0.000 C 
ENDBRANCH   1  13
BRANCH   5  14
ATOM     14  C   UNL     1      -2.097  11.295  18.926  0.00  0.00    +0.000 A 
ATOM     15  C   UNL     1      -3.407  11.738  18.569  0.00  0.00    +0.000 A 
ATOM     16  C   UNL     1      -4.029  11.325  17.395  0.00  0.00    +0.000 A 
ATOM     17  C   UNL     1      -3.378  10.454  16.530  0.00  0.00    +0.000 A 
ATOM     18  C   UNL     1      -2.092  10.013  16.831  0.00  0.00    +0.000 A 
ATOM     19  C   UNL     1      -1.449  10.426  18.007  0.00  0.00    +0.000 A 
ENDBRANCH   5  14
BRANCH   5  20
ATOM     20  C   UNL     1      -0.775  10.511  20.950  0.00  0.00    +0.000 C 
ATOM     21  C   UNL     1      -0.663  10.665  22.491  0.00  0.00    +0.000 C 
ATOM     22  C   UNL     1      -0.055   9.437  23.166  0.00  0.00    +0.000 C 
ATOM     23  C   UNL     1       1.331   9.154  22.573  0.00  0.00    +0.000 C 
ATOM     24  C   UNL     1       1.195   8.876  21.076  0.00  0.00    +0.000 C 
ATOM     25  C   UNL     1       0.600  10.102  20.359  0.00  0.00    +0.000 C 
ENDBRANCH   5  20
TORSDOF 3
ENDMDL
