MODEL 1
REMARK VINA RESULT:      -6.4      0.000      0.000
REMARK  Name = 
REMARK  6 active torsions:
REMARK  status: ('A' for Active; 'I' for Inactive)
REMARK    1  A    between atoms: C_2  and  C_3
REMARK    2  A    between atoms: C_3  and  C_4
REMARK    3  A    between atoms: C_4  and  N_5
REMARK    4  A    between atoms: N_5  and  C_6
REMARK    5  A    between atoms: C_6  and  C_7
REMARK    6  A    between atoms: C_13  and  C_15
REMARK                            x       y       z     vdW  Elec       q    Type
REMARK                         _______ _______ _______ _____ _____    ______ ____
ROOT
ATOM      1  N   UNL     1       4.663   4.478  16.555  0.00  0.00    +0.000 N 
ATOM      2  C   UNL     1       5.051   5.534  17.413  0.00  0.00    +0.000 C 
ATOM      3  O   UNL     1       6.253   5.790  17.522  0.00  0.00    +0.000 OA
ENDROOT
BRANCH   2   4
ATOM      4  C   UNL     1       4.068   6.346  18.122  0.00  0.00    +0.000 A 
ATOM      5  S   UNL     1       3.354   7.711  17.394  0.00  0.00    +0.000 S 
ATOM      6  C   UNL     1       2.341   8.028  18.745  0.00  0.00    +0.000 A 
ATOM      7  C   UNL     1       1.490   9.134  18.902  0.00  0.00    +0.000 A 
ATOM      8  C   UNL     1       0.650   9.168  20.012  0.00  0.00    +0.000 A 
ATOM      9  F   UNL     1      -0.174  10.207  20.174  0.00  0.00    +0.000 F 
ATOM     10  C   UNL     1       0.644   8.138  20.940  0.00  0.00    +0.000 A 
ATOM     11  C   UNL     1       1.527   7.067  20.797  0.00  0.00    +0.000 A 
ATOM     12  C   UNL     1       2.422   7.007  19.690  0.00  0.00    +0.000 A 
ATOM     13  C   UNL     1       3.457   6.065  19.339  0.00  0.00    +0.000 A 
ATOM     14 CL   UNL     1       3.872   4.754  20.373  0.00  0.00    +0.000 Cl
ENDBRANCH   2   4
BRANCH   1  15
ATOM     15  C   UNL     1       5.728   3.723  15.881  0.00  0.00    +0.000 C 
BRANCH  15  16
ATOM     16  C   UNL     1       5.842   4.010  14.383  0.00  0.00    +0.000 C 
BRANCH  16  18
ATOM     17  N   UNL     1       8.060   5.571  13.767  0.00  0.00    +0.000 NA
ATOM     18  C   UNL     1       7.054   4.863  14.046  0.00  0.00    +0.000 C 
ENDBRANCH  16  18
ENDBRANCH  15  16
ENDBRANCH   1  15
BRANCH   1  19
ATOM     19  C   UNL     1       3.290   4.033  16.287  0.00  0.00    +0.000 C 
BRANCH  19  20
ATOM     20  C   UNL     1       2.615   3.307  17.414  0.00  0.00    +0.000 A 
ATOM     21  C   UNL     1       1.390   3.682  17.970  0.00  0.00    +0.000 A 
ATOM     22  C   UNL     1       0.921   3.030  19.102  0.00  0.00    +0.000 A 
ATOM     23  C   UNL     1       1.666   1.982  19.616  0.00  0.00    +0.000 A 
ATOM     24  N   UNL     1       2.805   1.529  19.052  0.00  0.00    +0.000 NA
ATOM     25  C   UNL     1       3.248   2.194  17.964  0.00  0.00    +0.000 A 
ENDBRANCH  19  20
ENDBRANCH   1  19
TORSDOF 6
ENDMDL
MODEL 2
REMARK VINA RESULT:      -6.4      2.221      4.721
REMARK  Name = 
REMARK  6 active torsions:
REMARK  status: ('A' for Active; 'I' for Inactive)
REMARK    1  A    between atoms: C_2  and  C_3
REMARK    2  A    between atoms: C_3  and  C_4
REMARK    3  A    between atoms: C_4  and  N_5
REMARK    4  A    between atoms: N_5  and  C_6
REMARK    5  A    between atoms: C_6  and  C_7
REMARK    6  A    between atoms: C_13  and  C_15
REMARK                            x       y       z     vdW  Elec       q    Type
REMARK                         _______ _______ _______ _____ _____    ______ ____
ROOT
ATOM      1  N   UNL     1       3.654   4.709  18.732  0.00  0.00    +0.000 N 
ATOM      2  C   UNL     1       2.375   5.309  18.808  0.00  0.00    +0.000 C 
ATOM      3  O   UNL     1       1.385   4.573  18.853  0.00  0.00    +0.000 OA
ENDROOT
BRANCH   2   4
ATOM      4  C   UNL     1       2.210   6.756  18.882  0.00  0.00    +0.000 A 
ATOM      5  S   UNL     1       2.541   7.756  17.543  0.00  0.00    +0.000 S 
ATOM      6  C   UNL     1       2.060   9.186  18.363  0.00  0.00    +0.000 A 
ATOM      7  C   UNL     1       2.161  10.498  17.872  0.00  0.00    +0.000 A 
ATOM      8  C   UNL     1       1.609  11.531  18.628  0.00  0.00    +0.000 A 
ATOM      9  F   UNL     1       1.687  12.784  18.173  0.00  0.00    +0.000 F 
ATOM     10  C   UNL     1       0.971  11.277  19.832  0.00  0.00    +0.000 A 
ATOM     11  C   UNL     1       0.917   9.974  20.330  0.00  0.00    +0.000 A 
ATOM     12  C   UNL     1       1.493   8.894  19.602  0.00  0.00    +0.000 A 
ATOM     13  C   UNL     1       1.628   7.491  19.908  0.00  0.00    +0.000 A 
ATOM     14 CL   UNL     1       1.124   6.845  21.421  0.00  0.00    +0.000 Cl
ENDBRANCH   2   4
BRANCH   1  15
ATOM     15  C   UNL     1       3.716   3.243  18.668  0.00  0.00    +0.000 C 
BRANCH  15  16
ATOM     16  C   UNL     1       4.150   2.580  19.976  0.00  0.00    +0.000 C 
BRANCH  16  18
ATOM     17  N   UNL     1       2.194   2.736  21.947  0.00  0.00    +0.000 NA
ATOM     18  C   UNL     1       3.081   2.666  21.053  0.00  0.00    +0.000 C 
ENDBRANCH  16  18
ENDBRANCH  15  16
ENDBRANCH   1  15
BRANCH   1  19
ATOM     19  C   UNL     1       4.943   5.411  18.681  0.00  0.00    +0.000 C 
BRANCH  19  20
ATOM     20  C   UNL     1       5.697   5.283  17.390  0.00  0.00    +0.000 A 
ATOM     21  C   UNL     1       5.160   5.570  16.134  0.00  0.00    +0.000 A 
ATOM     22  C   UNL     1       5.894   5.283  14.991  0.00  0.00    +0.000 A 
ATOM     23  C   UNL     1       7.170   4.767  15.139  0.00  0.00    +0.000 A 
ATOM     24  N   UNL     1       7.759   4.566  16.336  0.00  0.00    +0.000 NA
ATOM     25  C   UNL     1       7.016   4.834  17.429  0.00  0.00    +0.000 A 
ENDBRANCH  19  20
ENDBRANCH   1  19
TORSDOF 6
ENDMDL
MODEL 3
REMARK VINA RESULT:      -6.4      2.136      4.566
REMARK  Name = 
REMARK  6 active torsions:
REMARK  status: ('A' for Active; 'I' for Inactive)
REMARK    1  A    between atoms: C_2  and  C_3
REMARK    2  A    between atoms: C_3  and  C_4
REMARK    3  A    between atoms: C_4  and  N_5
REMARK    4  A    between atoms: N_5  and  C_6
REMARK    5  A    between atoms: C_6  and  C_7
REMARK    6  A    between atoms: C_13  and  C_15
REMARK                            x       y       z     vdW  Elec       q    Type
REMARK                         _______ _______ _______ _____ _____    ______ ____
ROOT
ATOM      1  N   UNL     1       3.763   4.403  18.273  0.00  0.00    +0.000 N 
ATOM      2  C   UNL     1       2.564   5.116  18.034  0.00  0.00    +0.000 C 
ATOM      3  O   UNL     1       1.754   4.647  17.230  0.00  0.00    +0.000 OA
ENDROOT
BRANCH   2   4
ATOM      4  C   UNL     1       2.253   6.351  18.746  0.00  0.00    +0.000 A 
ATOM      5  S   UNL     1       2.055   7.826  17.918  0.00  0.00    +0.000 S 
ATOM      6  C   UNL     1       1.662   8.693  19.347  0.00  0.00    +0.000 A 
ATOM      7  C   UNL     1       1.454  10.078  19.447  0.00  0.00    +0.000 A 
ATOM      8  C   UNL     1       1.025  10.596  20.667  0.00  0.00    +0.000 A 
ATOM      9  F   UNL     1       0.813  11.910  20.779  0.00  0.00    +0.000 F 
ATOM     10  C   UNL     1       0.800   9.771  21.758  0.00  0.00    +0.000 A 
ATOM     11  C   UNL     1       1.054   8.401  21.659  0.00  0.00    +0.000 A 
ATOM     12  C   UNL     1       1.520   7.837  20.437  0.00  0.00    +0.000 A 
ATOM     13  C   UNL     1       1.909   6.492  20.086  0.00  0.00    +0.000 A 
ATOM     14 CL   UNL     1       1.951   5.230  21.254  0.00  0.00    +0.000 Cl
ENDBRANCH   2   4
BRANCH   1  15
ATOM     15  C   UNL     1       3.982   3.166  17.511  0.00  0.00    +0.000 C 
BRANCH  15  16
ATOM     16  C   UNL     1       3.716   1.888  18.308  0.00  0.00    +0.000 C 
BRANCH  16  18
ATOM     17  N   UNL     1       1.388   2.044  19.821  0.00  0.00    +0.000 NA
ATOM     18  C   UNL     1       2.444   1.973  19.134  0.00  0.00    +0.000 C 
ENDBRANCH  16  18
ENDBRANCH  15  16
ENDBRANCH   1  15
BRANCH   1  19
ATOM     19  C   UNL     1       4.837   4.790  19.196  0.00  0.00    +0.000 C 
BRANCH  19  20
ATOM     20  C   UNL     1       5.920   5.644  18.603  0.00  0.00    +0.000 A 
ATOM     21  C   UNL     1       7.197   5.785  19.148  0.00  0.00    +0.000 A 
ATOM     22  C   UNL     1       8.079   6.708  18.603  0.00  0.00    +0.000 A 
ATOM     23  C   UNL     1       7.675   7.429  17.492  0.00  0.00    +0.000 A 
ATOM     24  N   UNL     1       6.485   7.253  16.880  0.00  0.00    +0.000 NA
ATOM     25  C   UNL     1       5.642   6.363  17.443  0.00  0.00    +0.000 A 
ENDBRANCH  19  20
ENDBRANCH   1  19
TORSDOF 6
ENDMDL
MODEL 4
REMARK VINA RESULT:      -6.3      3.375      5.446
REMARK  Name = 
REMARK  6 active torsions:
REMARK  status: ('A' for Active; 'I' for Inactive)
REMARK    1  A    between atoms: C_2  and  C_3
REMARK    2  A    between atoms: C_3  and  C_4
REMARK    3  A    between atoms: C_4  and  N_5
REMARK    4  A    between atoms: N_5  and  C_6
REMARK    5  A    between atoms: C_6  and  C_7
REMARK    6  A    between atoms: C_13  and  C_15
REMARK                            x       y       z     vdW  Elec       q    Type
REMARK                         _______ _______ _______ _____ _____    ______ ____
ROOT
ATOM      1  N   UNL     1       6.672   6.484  18.130  0.00  0.00    +0.000 N 
ATOM      2  C   UNL     1       6.279   5.542  19.110  0.00  0.00    +0.000 C 
ATOM      3  O   UNL     1       7.021   5.361  20.080  0.00  0.00    +0.000 OA
ENDROOT
BRANCH   2   4
ATOM      4  C   UNL     1       5.011   4.828  19.022  0.00  0.00    +0.000 A 
ATOM      5  S   UNL     1       4.956   3.140  18.796  0.00  0.00    +0.000 S 
ATOM      6  C   UNL     1       3.241   3.083  18.875  0.00  0.00    +0.000 A 
ATOM      7  C   UNL     1       2.439   1.951  18.659  0.00  0.00    +0.000 A 
ATOM      8  C   UNL     1       1.068   2.061  18.881  0.00  0.00    +0.000 A 
ATOM      9  F   UNL     1       0.289   0.993  18.691  0.00  0.00    +0.000 F 
ATOM     10  C   UNL     1       0.503   3.253  19.310  0.00  0.00    +0.000 A 
ATOM     11  C   UNL     1       1.306   4.383  19.477  0.00  0.00    +0.000 A 
ATOM     12  C   UNL     1       2.708   4.319  19.233  0.00  0.00    +0.000 A 
ATOM     13  C   UNL     1       3.738   5.329  19.270  0.00  0.00    +0.000 A 
ATOM     14 CL   UNL     1       3.370   6.982  19.572  0.00  0.00    +0.000 Cl
ENDBRANCH   2   4
BRANCH   1  15
ATOM     15  C   UNL     1       7.965   7.156  18.311  0.00  0.00    +0.000 C 
BRANCH  15  16
ATOM     16  C   UNL     1       8.008   8.582  17.761  0.00  0.00    +0.000 C 
BRANCH  16  18
ATOM     17  N   UNL     1       9.419  10.317  19.415  0.00  0.00    +0.000 NA
ATOM     18  C   UNL     1       8.779   9.530  18.665  0.00  0.00    +0.000 C 
ENDBRANCH  16  18
ENDBRANCH  15  16
ENDBRANCH   1  15
BRANCH   1  19
ATOM     19  C   UNL     1       5.924   6.843  16.919  0.00  0.00    +0.000 C 
BRANCH  19  20
ATOM     20  C   UNL     1       6.056   5.886  15.771  0.00  0.00    +0.000 A 
ATOM     21  C   UNL     1       5.076   4.965  15.398  0.00  0.00    +0.000 A 
ATOM     22  C   UNL     1       5.352   4.028  14.412  0.00  0.00    +0.000 A 
ATOM     23  C   UNL     1       6.587   4.074  13.786  0.00  0.00    +0.000 A 
ATOM     24  N   UNL     1       7.524   5.008  14.052  0.00  0.00    +0.000 NA
ATOM     25  C   UNL     1       7.235   5.894  15.029  0.00  0.00    +0.000 A 
ENDBRANCH  19  20
ENDBRANCH   1  19
TORSDOF 6
ENDMDL
MODEL 5
REMARK VINA RESULT:      -6.3      5.351      8.321
REMARK  Name = 
REMARK  6 active torsions:
REMARK  status: ('A' for Active; 'I' for Inactive)
REMARK    1  A    between atoms: C_2  and  C_3
REMARK    2  A    between atoms: C_3  and  C_4
REMARK    3  A    between atoms: C_4  and  N_5
REMARK    4  A    between atoms: N_5  and  C_6
REMARK    5  A    between atoms: C_6  and  C_7
REMARK    6  A    between atoms: C_13  and  C_15
REMARK                            x       y       z     vdW  Elec       q    Type
REMARK                         _______ _______ _______ _____ _____    ______ ____
ROOT
ATOM      1  N   UNL     1      -0.210  11.620  18.877  0.00  0.00    +0.000 N 
ATOM      2  C   UNL     1       1.111  11.117  18.812  0.00  0.00    +0.000 C 
ATOM      3  O   UNL     1       2.038  11.920  18.677  0.00  0.00    +0.000 OA
ENDROOT
BRANCH   2   4
ATOM      4  C   UNL     1       1.396   9.693  18.951  0.00  0.00    +0.000 A 
ATOM      5  S   UNL     1       2.211   8.829  17.730  0.00  0.00    +0.000 S 
ATOM      6  C   UNL     1       2.218   7.365  18.629  0.00  0.00    +0.000 A 
ATOM      7  C   UNL     1       2.673   6.116  18.176  0.00  0.00    +0.000 A 
ATOM      8  C   UNL     1       2.714   5.060  19.083  0.00  0.00    +0.000 A 
ATOM      9  F   UNL     1       3.152   3.867  18.675  0.00  0.00    +0.000 F 
ATOM     10  C   UNL     1       2.323   5.231  20.402  0.00  0.00    +0.000 A 
ATOM     11  C   UNL     1       1.830   6.466  20.828  0.00  0.00    +0.000 A 
ATOM     12  C   UNL     1       1.745   7.564  19.924  0.00  0.00    +0.000 A 
ATOM     13  C   UNL     1       1.232   8.903  20.083  0.00  0.00    +0.000 A 
ATOM     14 CL   UNL     1       0.475   9.413  21.541  0.00  0.00    +0.000 Cl
ENDBRANCH   2   4
BRANCH   1  15
ATOM     15  C   UNL     1      -0.394  13.071  18.734  0.00  0.00    +0.000 C 
BRANCH  15  16
ATOM     16  C   UNL     1      -1.003  13.746  19.963  0.00  0.00    +0.000 C 
BRANCH  16  18
ATOM     17  N   UNL     1       0.846  14.096  22.011  0.00  0.00    +0.000 NA
ATOM     18  C   UNL     1       0.007  13.937  21.082  0.00  0.00    +0.000 C 
ENDBRANCH  16  18
ENDBRANCH  15  16
ENDBRANCH   1  15
BRANCH   1  19
ATOM     19  C   UNL     1      -1.436  10.830  19.047  0.00  0.00    +0.000 C 
BRANCH  19  20
ATOM     20  C   UNL     1      -2.307  10.721  17.830  0.00  0.00    +0.000 A 
ATOM     21  C   UNL     1      -2.007   9.936  16.716  0.00  0.00    +0.000 A 
ATOM     22  C   UNL     1      -2.807  10.015  15.584  0.00  0.00    +0.000 A 
ATOM     23  C   UNL     1      -3.919  10.838  15.619  0.00  0.00    +0.000 A 
ATOM     24  N   UNL     1      -4.295  11.539  16.710  0.00  0.00    +0.000 NA
ATOM     25  C   UNL     1      -3.489  11.459  17.788  0.00  0.00    +0.000 A 
ENDBRANCH  19  20
ENDBRANCH   1  19
TORSDOF 6
ENDMDL
MODEL 6
REMARK VINA RESULT:      -6.2      2.093      3.565
REMARK  Name = 
REMARK  6 active torsions:
REMARK  status: ('A' for Active; 'I' for Inactive)
REMARK    1  A    between atoms: C_2  and  C_3
REMARK    2  A    between atoms: C_3  and  C_4
REMARK    3  A    between atoms: C_4  and  N_5
REMARK    4  A    between atoms: N_5  and  C_6
REMARK    5  A    between atoms: C_6  and  C_7
REMARK    6  A    between atoms: C_13  and  C_15
REMARK                            x       y       z     vdW  Elec       q    Type
REMARK                         _______ _______ _______ _____ _____    ______ ____
ROOT
ATOM      1  N   UNL     1       4.134   5.126  16.976  0.00  0.00    +0.000 N 
ATOM      2  C   UNL     1       2.923   5.155  17.707  0.00  0.00    +0.000 C 
ATOM      3  O   UNL     1       2.231   4.133  17.736  0.00  0.00    +0.000 OA
ENDROOT
BRANCH   2   4
ATOM      4  C   UNL     1       2.509   6.335  18.457  0.00  0.00    +0.000 A 
ATOM      5  S   UNL     1       2.148   7.803  17.671  0.00  0.00    +0.000 S 
ATOM      6  C   UNL     1       1.706   8.593  19.131  0.00  0.00    +0.000 A 
ATOM      7  C   UNL     1       1.365   9.948  19.270  0.00  0.00    +0.000 A 
ATOM      8  C   UNL     1       0.916  10.392  20.512  0.00  0.00    +0.000 A 
ATOM      9  F   UNL     1       0.579  11.676  20.663  0.00  0.00    +0.000 F 
ATOM     10  C   UNL     1       0.800   9.523  21.586  0.00  0.00    +0.000 A 
ATOM     11  C   UNL     1       1.184   8.189  21.446  0.00  0.00    +0.000 A 
ATOM     12  C   UNL     1       1.675   7.701  20.201  0.00  0.00    +0.000 A 
ATOM     13  C   UNL     1       2.185   6.411  19.807  0.00  0.00    +0.000 A 
ATOM     14 CL   UNL     1       2.378   5.131  20.941  0.00  0.00    +0.000 Cl
ENDBRANCH   2   4
BRANCH   1  15
ATOM     15  C   UNL     1       4.467   3.888  16.259  0.00  0.00    +0.000 C 
BRANCH  15  16
ATOM     16  C   UNL     1       5.919   3.817  15.781  0.00  0.00    +0.000 C 
BRANCH  16  18
ATOM     17  N   UNL     1       6.122   3.745  13.008  0.00  0.00    +0.000 NA
ATOM     18  C   UNL     1       6.030   3.778  14.266  0.00  0.00    +0.000 C 
ENDBRANCH  16  18
ENDBRANCH  15  16
ENDBRANCH   1  15
BRANCH   1  19
ATOM     19  C   UNL     1       5.092   6.230  16.834  0.00  0.00    +0.000 C 
BRANCH  19  20
ATOM     20  C   UNL     1       6.189   6.268  17.858  0.00  0.00    +0.000 A 
ATOM     21  C   UNL     1       7.314   7.090  17.775  0.00  0.00    +0.000 A 
ATOM     22  C   UNL     1       8.340   6.947  18.700  0.00  0.00    +0.000 A 
ATOM     23  C   UNL     1       8.186   6.020  19.716  0.00  0.00    +0.000 A 
ATOM     24  N   UNL     1       7.073   5.275  19.885  0.00  0.00    +0.000 NA
ATOM     25  C   UNL     1       6.102   5.420  18.961  0.00  0.00    +0.000 A 
ENDBRANCH  19  20
ENDBRANCH   1  19
TORSDOF 6
ENDMDL
MODEL 7
REMARK VINA RESULT:      -6.0      2.186      2.871
REMARK  Name = 
REMARK  6 active torsions:
REMARK  status: ('A' for Active; 'I' for Inactive)
REMARK    1  A    between atoms: C_2  and  C_3
REMARK    2  A    between atoms: C_3  and  C_4
REMARK    3  A    between atoms: C_4  and  N_5
REMARK    4  A    between atoms: N_5  and  C_6
REMARK    5  A    between atoms: C_6  and  C_7
REMARK    6  A    between atoms: C_13  and  C_15
REMARK                            x       y       z     vdW  Elec       q    Type
REMARK                         _______ _______ _______ _____ _____    ______ ____
ROOT
ATOM      1  N   UNL     1       3.027   5.471  17.727  0.00  0.00    +0.000 N 
ATOM      2  C   UNL     1       3.309   6.778  18.189  0.00  0.00    +0.000 C 
ATOM      3  O   UNL     1       4.343   7.327  17.799  0.00  0.00    +0.000 OA
ENDROOT
BRANCH   2   4
ATOM      4  C   UNL     1       2.390   7.496  19.065  0.00  0.00    +0.000 A 
ATOM      5  S   UNL     1       2.097   6.976  20.661  0.00  0.00    +0.000 S 
ATOM      6  C   UNL     1       1.052   8.295  21.006  0.00  0.00    +0.000 A 
ATOM      7  C   UNL     1       0.314   8.481  22.187  0.00  0.00    +0.000 A 
ATOM      8  C   UNL     1      -0.392   9.672  22.344  0.00  0.00    +0.000 A 
ATOM      9  F   UNL     1      -1.092   9.872  23.463  0.00  0.00    +0.000 F 
ATOM     10  C   UNL     1      -0.366  10.656  21.367  0.00  0.00    +0.000 A 
ATOM     11  C   UNL     1       0.334  10.439  20.179  0.00  0.00    +0.000 A 
ATOM     12  C   UNL     1       1.046   9.224  19.968  0.00  0.00    +0.000 A 
ATOM     13  C   UNL     1       1.787   8.727  18.834  0.00  0.00    +0.000 A 
ATOM     14 CL   UNL     1       1.866   9.602  17.354  0.00  0.00    +0.000 Cl
ENDBRANCH   2   4
BRANCH   1  15
ATOM     15  C   UNL     1       4.012   4.834  16.843  0.00  0.00    +0.000 C 
BRANCH  15  16
ATOM     16  C   UNL     1       5.400   4.678  17.467  0.00  0.00    +0.000 C 
BRANCH  16  18
ATOM     17  N   UNL     1       7.439   5.380  15.711  0.00  0.00    +0.000 NA
ATOM     18  C   UNL     1       6.514   5.062  16.508  0.00  0.00    +0.000 C 
ENDBRANCH  16  18
ENDBRANCH  15  16
ENDBRANCH   1  15
BRANCH   1  19
ATOM     19  C   UNL     1       1.849   4.662  18.067  0.00  0.00    +0.000 C 
BRANCH  19  20
ATOM     20  C   UNL     1       1.977   3.824  19.305  0.00  0.00    +0.000 A 
ATOM     21  C   UNL     1       0.924   3.547  20.179  0.00  0.00    +0.000 A 
ATOM     22  C   UNL     1       1.178   2.881  21.371  0.00  0.00    +0.000 A 
ATOM     23  C   UNL     1       2.472   2.462  21.630  0.00  0.00    +0.000 A 
ATOM     24  N   UNL     1       3.497   2.627  20.767  0.00  0.00    +0.000 NA
ATOM     25  C   UNL     1       3.225   3.295  19.626  0.00  0.00    +0.000 A 
ENDBRANCH  19  20
ENDBRANCH   1  19
TORSDOF 6
ENDMDL
MODEL 8
REMARK VINA RESULT:      -6.0      5.499      8.332
REMARK  Name = 
REMARK  6 active torsions:
REMARK  status: ('A' for Active; 'I' for Inactive)
REMARK    1  A    between atoms: C_2  and  C_3
REMARK    2  A    between atoms: C_3  and  C_4
REMARK    3  A    between atoms: C_4  and  N_5
REMARK    4  A    between atoms: N_5  and  C_6
REMARK    5  A    between atoms: C_6  and  C_7
REMARK    6  A    between atoms: C_13  and  C_15
REMARK                            x       y       z     vdW  Elec       q    Type
REMARK                         _______ _______ _______ _____ _____    ______ ____
ROOT
ATOM      1  N   UNL     1      -0.497  11.525  19.541  0.00  0.00    +0.000 N 
ATOM      2  C   UNL     1       0.859  11.124  19.491  0.00  0.00    +0.000 C 
ATOM      3  O   UNL     1       1.730  11.992  19.593  0.00  0.00    +0.000 OA
ENDROOT
BRANCH   2   4
ATOM      4  C   UNL     1       1.239   9.721  19.374  0.00  0.00    +0.000 A 
ATOM      5  S   UNL     1       2.026   9.129  17.983  0.00  0.00    +0.000 S 
ATOM      6  C   UNL     1       2.181   7.542  18.623  0.00  0.00    +0.000 A 
ATOM      7  C   UNL     1       2.682   6.420  17.944  0.00  0.00    +0.000 A 
ATOM      8  C   UNL     1       2.847   5.235  18.658  0.00  0.00    +0.000 A 
ATOM      9  F   UNL     1       3.331   4.159  18.032  0.00  0.00    +0.000 F 
ATOM     10  C   UNL     1       2.533   5.160  20.006  0.00  0.00    +0.000 A 
ATOM     11  C   UNL     1       1.993   6.270  20.658  0.00  0.00    +0.000 A 
ATOM     12  C   UNL     1       1.782   7.492  19.957  0.00  0.00    +0.000 A 
ATOM     13  C   UNL     1       1.198   8.747  20.364  0.00  0.00    +0.000 A 
ATOM     14 CL   UNL     1       0.508   8.956  21.926  0.00  0.00    +0.000 Cl
ENDBRANCH   2   4
BRANCH   1  15
ATOM     15  C   UNL     1      -0.779  12.961  19.667  0.00  0.00    +0.000 C 
BRANCH  15  16
ATOM     16  C   UNL     1      -0.449  13.772  18.413  0.00  0.00    +0.000 C 
BRANCH  16  18
ATOM     17  N   UNL     1       0.379  16.360  19.009  0.00  0.00    +0.000 NA
ATOM     18  C   UNL     1       0.003  15.186  18.739  0.00  0.00    +0.000 C 
ENDBRANCH  16  18
ENDBRANCH  15  16
ENDBRANCH   1  15
BRANCH   1  19
ATOM     19  C   UNL     1      -1.669  10.645  19.450  0.00  0.00    +0.000 C 
BRANCH  19  20
ATOM     20  C   UNL     1      -2.366  10.633  18.121  0.00  0.00    +0.000 A 
ATOM     21  C   UNL     1      -1.901   9.953  16.995  0.00  0.00    +0.000 A 
ATOM     22  C   UNL     1      -2.543  10.122  15.775  0.00  0.00    +0.000 A 
ATOM     23  C   UNL     1      -3.668  10.927  15.729  0.00  0.00    +0.000 A 
ATOM     24  N   UNL     1      -4.204  11.525  16.814  0.00  0.00    +0.000 NA
ATOM     25  C   UNL     1      -3.548  11.359  17.981  0.00  0.00    +0.000 A 
ENDBRANCH  19  20
ENDBRANCH   1  19
TORSDOF 6
ENDMDL
MODEL 9
REMARK VINA RESULT:      -6.0      3.496      6.741
REMARK  Name = 
REMARK  6 active torsions:
REMARK  status: ('A' for Active; 'I' for Inactive)
REMARK    1  A    between atoms: C_2  and  C_3
REMARK    2  A    between atoms: C_3  and  C_4
REMARK    3  A    between atoms: C_4  and  N_5
REMARK    4  A    between atoms: N_5  and  C_6
REMARK    5  A    between atoms: C_6  and  C_7
REMARK    6  A    between atoms: C_13  and  C_15
REMARK                            x       y       z     vdW  Elec       q    Type
REMARK                         _______ _______ _______ _____ _____    ______ ____
ROOT
ATOM      1  N   UNL     1       3.072   4.645  19.720  0.00  0.00    +0.000 N 
ATOM      2  C   UNL     1       4.307   4.052  19.366  0.00  0.00    +0.000 C 
ATOM      3  O   UNL     1       4.854   3.305  20.183  0.00  0.00    +0.000 OA
ENDROOT
BRANCH   2   4
ATOM      4  C   UNL     1       4.912   4.264  18.057  0.00  0.00    +0.000 A 
ATOM      5  S   UNL     1       6.452   4.975  17.896  0.00  0.00    +0.000 S 
ATOM      6  C   UNL     1       6.463   4.806  16.186  0.00  0.00    +0.000 A 
ATOM      7  C   UNL     1       7.448   5.294  15.311  0.00  0.00    +0.000 A 
ATOM      8  C   UNL     1       7.356   4.960  13.962  0.00  0.00    +0.000 A 
ATOM      9  F   UNL     1       8.287   5.406  13.115  0.00  0.00    +0.000 F 
ATOM     10  C   UNL     1       6.326   4.162  13.488  0.00  0.00    +0.000 A 
ATOM     11  C   UNL     1       5.329   3.721  14.361  0.00  0.00    +0.000 A 
ATOM     12  C   UNL     1       5.371   4.063  15.742  0.00  0.00    +0.000 A 
ATOM     13  C   UNL     1       4.459   3.796  16.828  0.00  0.00    +0.000 A 
ATOM     14 CL   UNL     1       2.959   2.995  16.570  0.00  0.00    +0.000 Cl
ENDBRANCH   2   4
BRANCH   1  15
ATOM     15  C   UNL     1       2.541   4.365  21.060  0.00  0.00    +0.000 C 
BRANCH  15  16
ATOM     16  C   UNL     1       1.808   3.027  21.173  0.00  0.00    +0.000 C 
BRANCH  16  18
ATOM     17  N   UNL     1       0.364   2.409  18.878  0.00  0.00    +0.000 NA
ATOM     18  C   UNL     1       1.019   2.690  19.919  0.00  0.00    +0.000 C 
ENDBRANCH  16  18
ENDBRANCH  15  16
ENDBRANCH   1  15
BRANCH   1  19
ATOM     19  C   UNL     1       2.268   5.546  18.884  0.00  0.00    +0.000 C 
BRANCH  19  20
ATOM     20  C   UNL     1       1.957   6.883  19.492  0.00  0.00    +0.000 A 
ATOM     21  C   UNL     1       1.554   7.071  20.815  0.00  0.00    +0.000 A 
ATOM     22  C   UNL     1       1.154   8.331  21.239  0.00  0.00    +0.000 A 
ATOM     23  C   UNL     1       1.219   9.381  20.339  0.00  0.00    +0.000 A 
ATOM     24  N   UNL     1       1.693   9.258  19.081  0.00  0.00    +0.000 NA
ATOM     25  C   UNL     1       2.056   8.019  18.690  0.00  0.00    +0.000 A 
ENDBRANCH  19  20
ENDBRANCH   1  19
TORSDOF 6
ENDMDL
