MODEL 1
REMARK VINA RESULT:      -7.7      0.000      0.000
REMARK  Name = 
REMARK  4 active torsions:
REMARK  status: ('A' for Active; 'I' for Inactive)
REMARK    1  A    between atoms: C_6  and  C_7
REMARK    2  A    between atoms: C_6  and  C_15
REMARK    3  A    between atoms: C_7  and  C_8
REMARK    4  A    between atoms: C_8  and  N_9
REMARK                            x       y       z     vdW  Elec       q    Type
REMARK                         _______ _______ _______ _____ _____    ______ ____
ROOT
ATOM      1  O   UNL     1       1.672   3.673  17.198  0.00  0.00    +0.000 OA
ATOM      2  C   UNL     1       1.794   3.666  18.416  0.00  0.00    +0.000 C 
ATOM      3  C   UNL     1       1.000   2.728  19.286  0.00  0.00    +0.000 C 
ATOM      4  C   UNL     1       1.234   3.232  20.687  0.00  0.00    +0.000 C 
ATOM      5  C   UNL     1       2.530   4.034  20.663  0.00  0.00    +0.000 C 
ATOM      6  C   UNL     1       2.768   4.542  19.208  0.00  0.00    +0.000 C 
ENDROOT
BRANCH   6   7
ATOM      7  C   UNL     1       2.455   6.020  19.072  0.00  0.00    +0.000 C 
ATOM      8  C   UNL     1       2.065   6.853  20.049  0.00  0.00    +0.000 C 
ATOM      9  C   UNL     1       1.865   8.249  19.568  0.00  0.00    +0.000 C 
ATOM     10  C   UNL     1       2.436   8.220  18.154  0.00  0.00    +0.000 C 
ATOM     11  C   UNL     1       2.571   6.749  17.766  0.00  0.00    +0.000 C 
ENDBRANCH   6   7
BRANCH   6  12
ATOM     12  C   UNL     1       4.223   4.211  18.785  0.00  0.00    +0.000 C 
BRANCH  12  13
ATOM     13  C   UNL     1       5.363   5.144  19.279  0.00  0.00    +0.000 C 
BRANCH  13  14
ATOM     14  N   UNL     1       6.660   4.758  18.692  0.00  0.00    +0.000 NA
ATOM     15  C   UNL     1       7.736   5.746  18.888  0.00  0.00    +0.000 C 
ATOM     16  C   UNL     1       7.631   6.981  17.983  0.00  0.00    +0.000 C 
ATOM     17  O   UNL     1       7.637   6.608  16.603  0.00  0.00    +0.000 OA
ATOM     18  C   UNL     1       6.579   5.688  16.308  0.00  0.00    +0.000 C 
ATOM     19  C   UNL     1       6.577   4.461  17.244  0.00  0.00    +0.000 C 
ENDBRANCH  13  14
ENDBRANCH  12  13
ENDBRANCH   6  12
TORSDOF 4
ENDMDL
MODEL 2
REMARK VINA RESULT:      -7.3      2.102      5.197
REMARK  Name = 
REMARK  4 active torsions:
REMARK  status: ('A' for Active; 'I' for Inactive)
REMARK    1  A    between atoms: C_6  and  C_7
REMARK    2  A    between atoms: C_6  and  C_15
REMARK    3  A    between atoms: C_7  and  C_8
REMARK    4  A    between atoms: C_8  and  N_9
REMARK                            x       y       z     vdW  Elec       q    Type
REMARK                         _______ _______ _______ _____ _____    ______ ____
ROOT
ATOM      1  O   UNL     1       6.152   4.271  19.326  0.00  0.00    +0.000 OA
ATOM      2  C   UNL     1       6.119   4.663  18.167  0.00  0.00    +0.000 C 
ATOM      3  C   UNL     1       7.379   4.931  17.385  0.00  0.00    +0.000 C 
ATOM      4  C   UNL     1       6.902   5.648  16.148  0.00  0.00    +0.000 C 
ATOM      5  C   UNL     1       5.433   5.291  15.963  0.00  0.00    +0.000 C 
ATOM      6  C   UNL     1       4.845   4.887  17.349  0.00  0.00    +0.000 C 
ENDROOT
BRANCH   6   7
ATOM      7  C   UNL     1       3.973   5.984  17.930  0.00  0.00    +0.000 C 
ATOM      8  C   UNL     1       3.568   7.103  17.310  0.00  0.00    +0.000 C 
ATOM      9  C   UNL     1       2.699   7.954  18.170  0.00  0.00    +0.000 C 
ATOM     10  C   UNL     1       2.413   7.064  19.374  0.00  0.00    +0.000 C 
ATOM     11  C   UNL     1       3.428   5.923  19.326  0.00  0.00    +0.000 C 
ENDBRANCH   6   7
BRANCH   6  12
ATOM     12  C   UNL     1       4.079   3.546  17.207  0.00  0.00    +0.000 C 
BRANCH  12  13
ATOM     13  C   UNL     1       2.536   3.558  17.386  0.00  0.00    +0.000 C 
BRANCH  13  14
ATOM     14  N   UNL     1       2.070   2.340  18.076  0.00  0.00    +0.000 NA
ATOM     15  C   UNL     1       0.786   2.495  18.785  0.00  0.00    +0.000 C 
ATOM     16  C   UNL     1       0.885   3.273  20.104  0.00  0.00    +0.000 C 
ATOM     17  O   UNL     1       1.800   2.642  21.004  0.00  0.00    +0.000 OA
ATOM     18  C   UNL     1       3.099   2.504  20.414  0.00  0.00    +0.000 C 
ATOM     19  C   UNL     1       3.058   1.805  19.039  0.00  0.00    +0.000 C 
ENDBRANCH  13  14
ENDBRANCH  12  13
ENDBRANCH   6  12
TORSDOF 4
ENDMDL
MODEL 3
REMARK VINA RESULT:      -7.3      2.239      5.651
REMARK  Name = 
REMARK  4 active torsions:
REMARK  status: ('A' for Active; 'I' for Inactive)
REMARK    1  A    between atoms: C_6  and  C_7
REMARK    2  A    between atoms: C_6  and  C_15
REMARK    3  A    between atoms: C_7  and  C_8
REMARK    4  A    between atoms: C_8  and  N_9
REMARK                            x       y       z     vdW  Elec       q    Type
REMARK                         _______ _______ _______ _____ _____    ______ ____
ROOT
ATOM      1  O   UNL     1       8.179   4.168  17.173  0.00  0.00    +0.000 OA
ATOM      2  C   UNL     1       7.153   4.731  16.814  0.00  0.00    +0.000 C 
ATOM      3  C   UNL     1       6.477   4.390  15.512  0.00  0.00    +0.000 C 
ATOM      4  C   UNL     1       5.450   5.479  15.330  0.00  0.00    +0.000 C 
ATOM      5  C   UNL     1       5.166   6.059  16.710  0.00  0.00    +0.000 C 
ATOM      6  C   UNL     1       6.402   5.792  17.621  0.00  0.00    +0.000 C 
ENDROOT
BRANCH   6   7
ATOM      7  C   UNL     1       7.226   7.048  17.831  0.00  0.00    +0.000 C 
ATOM      8  C   UNL     1       7.082   8.220  17.194  0.00  0.00    +0.000 C 
ATOM      9  C   UNL     1       8.050   9.252  17.663  0.00  0.00    +0.000 C 
ATOM     10  C   UNL     1       8.683   8.609  18.892  0.00  0.00    +0.000 C 
ATOM     11  C   UNL     1       8.338   7.122  18.836  0.00  0.00    +0.000 C 
ENDBRANCH   6   7
BRANCH   6  12
ATOM     12  C   UNL     1       5.923   5.178  18.963  0.00  0.00    +0.000 C 
BRANCH  12  13
ATOM     13  C   UNL     1       4.458   4.669  19.057  0.00  0.00    +0.000 C 
BRANCH  13  14
ATOM     14  N   UNL     1       4.397   3.198  18.960  0.00  0.00    +0.000 NA
ATOM     15  C   UNL     1       3.708   2.695  17.758  0.00  0.00    +0.000 C 
ATOM     16  C   UNL     1       2.179   2.810  17.814  0.00  0.00    +0.000 C 
ATOM     17  O   UNL     1       1.651   2.104  18.939  0.00  0.00    +0.000 OA
ATOM     18  C   UNL     1       2.226   2.573  20.165  0.00  0.00    +0.000 C 
ATOM     19  C   UNL     1       3.770   2.564  20.141  0.00  0.00    +0.000 C 
ENDBRANCH  13  14
ENDBRANCH  12  13
ENDBRANCH   6  12
TORSDOF 4
ENDMDL
MODEL 4
REMARK VINA RESULT:      -7.2      2.355      6.185
REMARK  Name = 
REMARK  4 active torsions:
REMARK  status: ('A' for Active; 'I' for Inactive)
REMARK    1  A    between atoms: C_6  and  C_7
REMARK    2  A    between atoms: C_6  and  C_15
REMARK    3  A    between atoms: C_7  and  C_8
REMARK    4  A    between atoms: C_8  and  N_9
REMARK                            x       y       z     vdW  Elec       q    Type
REMARK                         _______ _______ _______ _____ _____    ______ ____
ROOT
ATOM      1  O   UNL     1       4.653   6.998  15.884  0.00  0.00    +0.000 OA
ATOM      2  C   UNL     1       5.542   6.326  16.390  0.00  0.00    +0.000 C 
ATOM      3  C   UNL     1       6.494   6.907  17.403  0.00  0.00    +0.000 C 
ATOM      4  C   UNL     1       7.570   5.861  17.546  0.00  0.00    +0.000 C 
ATOM      5  C   UNL     1       6.968   4.537  17.090  0.00  0.00    +0.000 C 
ATOM      6  C   UNL     1       5.787   4.840  16.119  0.00  0.00    +0.000 C 
ENDROOT
BRANCH   6   7
ATOM      7  C   UNL     1       6.166   4.573  14.675  0.00  0.00    +0.000 C 
ATOM      8  C   UNL     1       7.270   4.995  14.041  0.00  0.00    +0.000 C 
ATOM      9  C   UNL     1       7.336   4.530  12.627  0.00  0.00    +0.000 C 
ATOM     10  C   UNL     1       6.194   3.524  12.534  0.00  0.00    +0.000 C 
ATOM     11  C   UNL     1       5.309   3.750  13.758  0.00  0.00    +0.000 C 
ENDBRANCH   6   7
BRANCH   6  12
ATOM     12  C   UNL     1       4.544   4.023  16.557  0.00  0.00    +0.000 C 
BRANCH  12  13
ATOM     13  C   UNL     1       4.033   4.186  18.016  0.00  0.00    +0.000 C 
BRANCH  13  14
ATOM     14  N   UNL     1       2.751   4.914  18.054  0.00  0.00    +0.000 NA
ATOM     15  C   UNL     1       2.536   5.706  19.279  0.00  0.00    +0.000 C 
ATOM     16  C   UNL     1       2.162   4.871  20.511  0.00  0.00    +0.000 C 
ATOM     17  O   UNL     1       0.974   4.112  20.276  0.00  0.00    +0.000 OA
ATOM     18  C   UNL     1       1.116   3.264  19.130  0.00  0.00    +0.000 C 
ATOM     19  C   UNL     1       1.576   4.032  17.873  0.00  0.00    +0.000 C 
ENDBRANCH  13  14
ENDBRANCH  12  13
ENDBRANCH   6  12
TORSDOF 4
ENDMDL
MODEL 5
REMARK VINA RESULT:      -7.1      2.030      5.017
REMARK  Name = 
REMARK  4 active torsions:
REMARK  status: ('A' for Active; 'I' for Inactive)
REMARK    1  A    between atoms: C_6  and  C_7
REMARK    2  A    between atoms: C_6  and  C_15
REMARK    3  A    between atoms: C_7  and  C_8
REMARK    4  A    between atoms: C_8  and  N_9
REMARK                            x       y       z     vdW  Elec       q    Type
REMARK                         _______ _______ _______ _____ _____    ______ ____
ROOT
ATOM      1  O   UNL     1       6.046   4.797  19.811  0.00  0.00    +0.000 OA
ATOM      2  C   UNL     1       6.066   5.327  18.709  0.00  0.00    +0.000 C 
ATOM      3  C   UNL     1       7.330   5.910  18.133  0.00  0.00    +0.000 C 
ATOM      4  C   UNL     1       6.866   6.691  16.931  0.00  0.00    +0.000 C 
ATOM      5  C   UNL     1       5.517   6.115  16.517  0.00  0.00    +0.000 C 
ATOM      6  C   UNL     1       4.869   5.436  17.761  0.00  0.00    +0.000 C 
ENDROOT
BRANCH   6   7
ATOM      7  C   UNL     1       3.749   6.279  18.341  0.00  0.00    +0.000 C 
ATOM      8  C   UNL     1       3.169   6.130  19.541  0.00  0.00    +0.000 C 
ATOM      9  C   UNL     1       2.113   7.149  19.800  0.00  0.00    +0.000 C 
ATOM     10  C   UNL     1       2.287   8.136  18.651  0.00  0.00    +0.000 C 
ATOM     11  C   UNL     1       3.152   7.441  17.602  0.00  0.00    +0.000 C 
ENDBRANCH   6   7
BRANCH   6  12
ATOM     12  C   UNL     1       4.387   4.014  17.373  0.00  0.00    +0.000 C 
BRANCH  12  13
ATOM     13  C   UNL     1       2.860   3.726  17.383  0.00  0.00    +0.000 C 
BRANCH  13  14
ATOM     14  N   UNL     1       2.569   2.411  17.986  0.00  0.00    +0.000 NA
ATOM     15  C   UNL     1       1.219   2.292  18.566  0.00  0.00    +0.000 C 
ATOM     16  C   UNL     1       1.045   3.010  19.911  0.00  0.00    +0.000 C 
ATOM     17  O   UNL     1       1.974   2.517  20.880  0.00  0.00    +0.000 OA
ATOM     18  C   UNL     1       3.325   2.649  20.420  0.00  0.00    +0.000 C 
ATOM     19  C   UNL     1       3.546   2.022  19.027  0.00  0.00    +0.000 C 
ENDBRANCH  13  14
ENDBRANCH  12  13
ENDBRANCH   6  12
TORSDOF 4
ENDMDL
MODEL 6
REMARK VINA RESULT:      -7.1      2.576      6.179
REMARK  Name = 
REMARK  4 active torsions:
REMARK  status: ('A' for Active; 'I' for Inactive)
REMARK    1  A    between atoms: C_6  and  C_7
REMARK    2  A    between atoms: C_6  and  C_15
REMARK    3  A    between atoms: C_7  and  C_8
REMARK    4  A    between atoms: C_8  and  N_9
REMARK                            x       y       z     vdW  Elec       q    Type
REMARK                         _______ _______ _______ _____ _____    ______ ____
ROOT
ATOM      1  O   UNL     1       4.846   7.050  15.568  0.00  0.00    +0.000 OA
ATOM      2  C   UNL     1       5.637   6.326  16.159  0.00  0.00    +0.000 C 
ATOM      3  C   UNL     1       6.518   6.851  17.263  0.00  0.00    +0.000 C 
ATOM      4  C   UNL     1       7.506   5.740  17.510  0.00  0.00    +0.000 C 
ATOM      5  C   UNL     1       6.870   4.454  16.995  0.00  0.00    +0.000 C 
ATOM      6  C   UNL     1       5.814   4.826  15.912  0.00  0.00    +0.000 C 
ENDROOT
BRANCH   6   7
ATOM      7  C   UNL     1       6.316   4.529  14.512  0.00  0.00    +0.000 C 
ATOM      8  C   UNL     1       5.765   3.691  13.621  0.00  0.00    +0.000 C 
ATOM      9  C   UNL     1       6.508   3.654  12.330  0.00  0.00    +0.000 C 
ATOM     10  C   UNL     1       7.498   4.806  12.460  0.00  0.00    +0.000 C 
ATOM     11  C   UNL     1       7.538   5.186  13.940  0.00  0.00    +0.000 C 
ENDBRANCH   6   7
BRANCH   6  12
ATOM     12  C   UNL     1       4.484   4.091  16.223  0.00  0.00    +0.000 C 
BRANCH  12  13
ATOM     13  C   UNL     1       3.666   4.542  17.464  0.00  0.00    +0.000 C 
BRANCH  13  14
ATOM     14  N   UNL     1       2.786   3.460  17.945  0.00  0.00    +0.000 NA
ATOM     15  C   UNL     1       1.909   3.842  19.068  0.00  0.00    +0.000 C 
ATOM     16  C   UNL     1       2.624   3.938  20.422  0.00  0.00    +0.000 C 
ATOM     17  O   UNL     1       3.245   2.697  20.764  0.00  0.00    +0.000 OA
ATOM     18  C   UNL     1       4.165   2.277  19.749  0.00  0.00    +0.000 C 
ATOM     19  C   UNL     1       3.527   2.243  18.343  0.00  0.00    +0.000 C 
ENDBRANCH  13  14
ENDBRANCH  12  13
ENDBRANCH   6  12
TORSDOF 4
ENDMDL
MODEL 7
REMARK VINA RESULT:      -7.1      1.161      1.726
REMARK  Name = 
REMARK  4 active torsions:
REMARK  status: ('A' for Active; 'I' for Inactive)
REMARK    1  A    between atoms: C_6  and  C_7
REMARK    2  A    between atoms: C_6  and  C_15
REMARK    3  A    between atoms: C_7  and  C_8
REMARK    4  A    between atoms: C_8  and  N_9
REMARK                            x       y       z     vdW  Elec       q    Type
REMARK                         _______ _______ _______ _____ _____    ______ ____
ROOT
ATOM      1  O   UNL     1       1.316   3.880  17.354  0.00  0.00    +0.000 OA
ATOM      2  C   UNL     1       1.538   3.770  18.552  0.00  0.00    +0.000 C 
ATOM      3  C   UNL     1       0.819   2.753  19.401  0.00  0.00    +0.000 C 
ATOM      4  C   UNL     1       1.168   3.137  20.816  0.00  0.00    +0.000 C 
ATOM      5  C   UNL     1       2.456   3.947  20.755  0.00  0.00    +0.000 C 
ATOM      6  C   UNL     1       2.573   4.581  19.335  0.00  0.00    +0.000 C 
ENDROOT
BRANCH   6   7
ATOM      7  C   UNL     1       2.250   6.063  19.354  0.00  0.00    +0.000 C 
ATOM      8  C   UNL     1       1.903   6.797  20.422  0.00  0.00    +0.000 C 
ATOM      9  C   UNL     1       1.676   8.231  20.085  0.00  0.00    +0.000 C 
ATOM     10  C   UNL     1       2.181   8.339  18.650  0.00  0.00    +0.000 C 
ATOM     11  C   UNL     1       2.303   6.913  18.119  0.00  0.00    +0.000 C 
ENDBRANCH   6   7
BRANCH   6  12
ATOM     12  C   UNL     1       3.988   4.299  18.766  0.00  0.00    +0.000 C 
BRANCH  12  13
ATOM     13  C   UNL     1       4.174   4.298  17.224  0.00  0.00    +0.000 C 
BRANCH  13  14
ATOM     14  N   UNL     1       5.046   5.407  16.791  0.00  0.00    +0.000 NA
ATOM     15  C   UNL     1       5.556   5.278  15.413  0.00  0.00    +0.000 C 
ATOM     16  C   UNL     1       6.686   4.254  15.253  0.00  0.00    +0.000 C 
ATOM     17  O   UNL     1       7.796   4.577  16.094  0.00  0.00    +0.000 OA
ATOM     18  C   UNL     1       7.400   4.664  17.468  0.00  0.00    +0.000 C 
ATOM     19  C   UNL     1       6.205   5.617  17.686  0.00  0.00    +0.000 C 
ENDBRANCH  13  14
ENDBRANCH  12  13
ENDBRANCH   6  12
TORSDOF 4
ENDMDL
MODEL 8
REMARK VINA RESULT:      -7.1      1.056      1.556
REMARK  Name = 
REMARK  4 active torsions:
REMARK  status: ('A' for Active; 'I' for Inactive)
REMARK    1  A    between atoms: C_6  and  C_7
REMARK    2  A    between atoms: C_6  and  C_15
REMARK    3  A    between atoms: C_7  and  C_8
REMARK    4  A    between atoms: C_8  and  N_9
REMARK                            x       y       z     vdW  Elec       q    Type
REMARK                         _______ _______ _______ _____ _____    ______ ____
ROOT
ATOM      1  O   UNL     1       1.057   4.418  17.296  0.00  0.00    +0.000 OA
ATOM      2  C   UNL     1       1.727   4.451  18.320  0.00  0.00    +0.000 C 
ATOM      3  C   UNL     1       1.450   3.526  19.477  0.00  0.00    +0.000 C 
ATOM      4  C   UNL     1       2.289   4.077  20.602  0.00  0.00    +0.000 C 
ATOM      5  C   UNL     1       3.403   4.899  19.967  0.00  0.00    +0.000 C 
ATOM      6  C   UNL     1       2.930   5.366  18.557  0.00  0.00    +0.000 C 
ENDROOT
BRANCH   6   7
ATOM      7  C   UNL     1       2.548   6.834  18.552  0.00  0.00    +0.000 C 
ATOM      8  C   UNL     1       2.640   7.685  17.519  0.00  0.00    +0.000 C 
ATOM      9  C   UNL     1       2.155   9.053  17.855  0.00  0.00    +0.000 C 
ATOM     10  C   UNL     1       1.501   8.869  19.220  0.00  0.00    +0.000 C 
ATOM     11  C   UNL     1       1.980   7.522  19.758  0.00  0.00    +0.000 C 
ENDBRANCH   6   7
BRANCH   6  12
ATOM     12  C   UNL     1       4.035   5.047  17.517  0.00  0.00    +0.000 C 
BRANCH  12  13
ATOM     13  C   UNL     1       5.278   4.241  17.987  0.00  0.00    +0.000 C 
BRANCH  13  14
ATOM     14  N   UNL     1       6.472   4.594  17.196  0.00  0.00    +0.000 NA
ATOM     15  C   UNL     1       7.722   4.659  17.976  0.00  0.00    +0.000 C 
ATOM     16  C   UNL     1       7.858   5.916  18.846  0.00  0.00    +0.000 C 
ATOM     17  O   UNL     1       7.786   7.101  18.050  0.00  0.00    +0.000 OA
ATOM     18  C   UNL     1       6.567   7.151  17.298  0.00  0.00    +0.000 C 
ATOM     19  C   UNL     1       6.328   5.873  16.465  0.00  0.00    +0.000 C 
ENDBRANCH  13  14
ENDBRANCH  12  13
ENDBRANCH   6  12
TORSDOF 4
ENDMDL
MODEL 9
REMARK VINA RESULT:      -7.1      2.358      6.280
REMARK  Name = 
REMARK  4 active torsions:
REMARK  status: ('A' for Active; 'I' for Inactive)
REMARK    1  A    between atoms: C_6  and  C_7
REMARK    2  A    between atoms: C_6  and  C_15
REMARK    3  A    between atoms: C_7  and  C_8
REMARK    4  A    between atoms: C_8  and  N_9
REMARK                            x       y       z     vdW  Elec       q    Type
REMARK                         _______ _______ _______ _____ _____    ______ ____
ROOT
ATOM      1  O   UNL     1       4.865   7.106  15.579  0.00  0.00    +0.000 OA
ATOM      2  C   UNL     1       5.638   6.374  16.183  0.00  0.00    +0.000 C 
ATOM      3  C   UNL     1       6.561   6.904  17.250  0.00  0.00    +0.000 C 
ATOM      4  C   UNL     1       7.508   5.763  17.522  0.00  0.00    +0.000 C 
ATOM      5  C   UNL     1       6.811   4.486  17.069  0.00  0.00    +0.000 C 
ATOM      6  C   UNL     1       5.749   4.859  15.991  0.00  0.00    +0.000 C 
ENDROOT
BRANCH   6   7
ATOM      7  C   UNL     1       6.212   4.488  14.595  0.00  0.00    +0.000 C 
ATOM      8  C   UNL     1       5.606   3.646  13.744  0.00  0.00    +0.000 C 
ATOM      9  C   UNL     1       6.323   3.528  12.443  0.00  0.00    +0.000 C 
ATOM     10  C   UNL     1       7.369   4.636  12.516  0.00  0.00    +0.000 C 
ATOM     11  C   UNL     1       7.453   5.065  13.979  0.00  0.00    +0.000 C 
ENDBRANCH   6   7
BRANCH   6  12
ATOM     12  C   UNL     1       4.397   4.191  16.354  0.00  0.00    +0.000 C 
BRANCH  12  13
ATOM     13  C   UNL     1       3.612   4.738  17.578  0.00  0.00    +0.000 C 
BRANCH  13  14
ATOM     14  N   UNL     1       3.743   3.840  18.741  0.00  0.00    +0.000 NA
ATOM     15  C   UNL     1       3.366   2.440  18.475  0.00  0.00    +0.000 C 
ATOM     16  C   UNL     1       1.853   2.200  18.391  0.00  0.00    +0.000 C 
ATOM     17  O   UNL     1       1.201   2.599  19.599  0.00  0.00    +0.000 OA
ATOM     18  C   UNL     1       1.467   3.973  19.905  0.00  0.00    +0.000 C 
ATOM     19  C   UNL     1       2.975   4.301  19.919  0.00  0.00    +0.000 C 
ENDBRANCH  13  14
ENDBRANCH  12  13
ENDBRANCH   6  12
TORSDOF 4
ENDMDL
