MODEL 1
REMARK VINA RESULT:      -7.5      0.000      0.000
REMARK  Name = 
REMARK  6 active torsions:
REMARK  status: ('A' for Active; 'I' for Inactive)
REMARK    1  A    between atoms: C_1  and  C_2
REMARK    2  A    between atoms: C_5  and  C_6
REMARK    3  A    between atoms: C_6  and  N_7
REMARK    4  A    between atoms: N_7  and  C_8
REMARK    5  A    between atoms: C_8  and  C_9
REMARK    6  A    between atoms: C_14  and  C_16
REMARK                            x       y       z     vdW  Elec       q    Type
REMARK                         _______ _______ _______ _____ _____    ______ ____
ROOT
ATOM      1  C   UNL     1       2.486   5.659  18.986  0.00  0.00    +0.000 C 
ATOM      2  F   UNL     1       3.750   5.829  19.500  0.00  0.00    +0.000 F 
ATOM      3  C   UNL     1       1.543   5.514  20.180  0.00  0.00    +0.000 C 
ATOM      4  C   UNL     1       1.675   6.746  21.076  0.00  0.00    +0.000 C 
ATOM      5  N   UNL     1       1.440   7.981  20.320  0.00  0.00    +0.000 N 
ATOM      6  C   UNL     1       0.813   9.035  20.997  0.00  0.00    +0.000 C 
ATOM      7  O   UNL     1       0.471   8.912  22.169  0.00  0.00    +0.000 OA
ATOM      8  C   UNL     1       2.299   8.128  19.144  0.00  0.00    +0.000 C 
ATOM      9  C   UNL     1       2.119   6.936  18.215  0.00  0.00    +0.000 C 
ENDROOT
BRANCH   6  10
ATOM     10  C   UNL     1       0.547  10.282  20.290  0.00  0.00    +0.000 A 
ATOM     11  C   UNL     1       1.241  11.513  20.290  0.00  0.00    +0.000 A 
ATOM     12  N   UNL     1       0.688  12.443  19.513  0.00  0.00    +0.000 NA
ATOM     13  N   UNL     1      -0.333  11.802  18.895  0.00  0.00    +0.000 N 
ATOM     14  C   UNL     1      -1.184  12.331  17.924  0.00  0.00    +0.000 A 
ATOM     15  C   UNL     1      -2.132  11.563  17.364  0.00  0.00    +0.000 A 
ATOM     16  C   UNL     1      -2.255  10.183  17.796  0.00  0.00    +0.000 A 
ATOM     17  C   UNL     1      -1.451   9.665  18.745  0.00  0.00    +0.000 A 
ATOM     18  C   UNL     1      -0.438  10.483  19.336  0.00  0.00    +0.000 A 
ENDBRANCH   6  10
BRANCH   1  19
ATOM     19  C   UNL     1       2.540   4.391  18.106  0.00  0.00    +0.000 C 
BRANCH  19  20
ATOM     20  N   UNL     1       3.853   3.769  18.246  0.00  0.00    +0.000 NA
ATOM     21  H   UNL     1       4.391   4.214  18.989  0.00  0.00    +0.000 HD
BRANCH  20  22
ATOM     22  C   UNL     1       4.689   3.786  17.052  0.00  0.00    +0.000 C 
BRANCH  22  27
ATOM     23  C   UNL     1       8.133   8.326  17.911  0.00  0.00    +0.000 C 
ATOM     24  C   UNL     1       7.298   7.107  17.687  0.00  0.00    +0.000 A 
ATOM     25  C   UNL     1       7.621   5.876  18.257  0.00  0.00    +0.000 A 
ATOM     26  C   UNL     1       6.806   4.771  18.020  0.00  0.00    +0.000 A 
ATOM     27  C   UNL     1       5.690   4.920  17.198  0.00  0.00    +0.000 A 
ATOM     28  N   UNL     1       5.349   6.111  16.642  0.00  0.00    +0.000 NA
ATOM     29  C   UNL     1       6.157   7.165  16.895  0.00  0.00    +0.000 A 
ENDBRANCH  22  27
ENDBRANCH  20  22
ENDBRANCH  19  20
ENDBRANCH   1  19
TORSDOF 5
ENDMDL
MODEL 2
REMARK VINA RESULT:      -7.4      0.929      1.859
REMARK  Name = 
REMARK  6 active torsions:
REMARK  status: ('A' for Active; 'I' for Inactive)
REMARK    1  A    between atoms: C_1  and  C_2
REMARK    2  A    between atoms: C_5  and  C_6
REMARK    3  A    between atoms: C_6  and  N_7
REMARK    4  A    between atoms: N_7  and  C_8
REMARK    5  A    between atoms: C_8  and  C_9
REMARK    6  A    between atoms: C_14  and  C_16
REMARK                            x       y       z     vdW  Elec       q    Type
REMARK                         _______ _______ _______ _____ _____    ______ ____
ROOT
ATOM      1  C   UNL     1       2.628   5.719  19.216  0.00  0.00    +0.000 C 
ATOM      2  F   UNL     1       3.881   6.138  19.599  0.00  0.00    +0.000 F 
ATOM      3  C   UNL     1       1.768   5.697  20.480  0.00  0.00    +0.000 C 
ATOM      4  C   UNL     1       1.777   7.086  21.118  0.00  0.00    +0.000 C 
ATOM      5  N   UNL     1       1.345   8.112  20.162  0.00  0.00    +0.000 N 
ATOM      6  C   UNL     1       0.616   9.193  20.671  0.00  0.00    +0.000 C 
ATOM      7  O   UNL     1       0.346   9.261  21.867  0.00  0.00    +0.000 OA
ATOM      8  C   UNL     1       2.123   8.130  18.921  0.00  0.00    +0.000 C 
ATOM      9  C   UNL     1       2.060   6.767  18.247  0.00  0.00    +0.000 C 
ENDROOT
BRANCH   6  10
ATOM     10  C   UNL     1       0.154  10.237  19.764  0.00  0.00    +0.000 A 
ATOM     11  C   UNL     1      -0.887  10.240  18.809  0.00  0.00    +0.000 A 
ATOM     12  N   UNL     1      -1.012  11.392  18.152  0.00  0.00    +0.000 NA
ATOM     13  N   UNL     1      -0.115  12.217  18.744  0.00  0.00    +0.000 N 
ATOM     14  C   UNL     1       0.093  13.566  18.457  0.00  0.00    +0.000 A 
ATOM     15  C   UNL     1       0.992  14.275  19.157  0.00  0.00    +0.000 A 
ATOM     16  C   UNL     1       1.742  13.608  20.204  0.00  0.00    +0.000 A 
ATOM     17  C   UNL     1       1.564  12.301  20.480  0.00  0.00    +0.000 A 
ATOM     18  C   UNL     1       0.600  11.549  19.737  0.00  0.00    +0.000 A 
ENDBRANCH   6  10
BRANCH   1  19
ATOM     19  C   UNL     1       2.810   4.320  18.588  0.00  0.00    +0.000 C 
BRANCH  19  20
ATOM     20  N   UNL     1       3.460   4.462  17.289  0.00  0.00    +0.000 NA
ATOM     21  H   UNL     1       2.906   4.025  16.552  0.00  0.00    +0.000 HD
BRANCH  20  22
ATOM     22  C   UNL     1       4.803   3.905  17.192  0.00  0.00    +0.000 C 
BRANCH  22  27
ATOM     23  C   UNL     1       8.214   8.483  17.974  0.00  0.00    +0.000 C 
ATOM     24  C   UNL     1       7.388   7.255  17.770  0.00  0.00    +0.000 A 
ATOM     25  C   UNL     1       7.726   6.033  18.350  0.00  0.00    +0.000 A 
ATOM     26  C   UNL     1       6.919   4.918  18.131  0.00  0.00    +0.000 A 
ATOM     27  C   UNL     1       5.795   5.048  17.317  0.00  0.00    +0.000 A 
ATOM     28  N   UNL     1       5.439   6.231  16.751  0.00  0.00    +0.000 NA
ATOM     29  C   UNL     1       6.240   7.294  16.986  0.00  0.00    +0.000 A 
ENDBRANCH  22  27
ENDBRANCH  20  22
ENDBRANCH  19  20
ENDBRANCH   1  19
TORSDOF 5
ENDMDL
MODEL 3
REMARK VINA RESULT:      -7.2      2.500      4.276
REMARK  Name = 
REMARK  6 active torsions:
REMARK  status: ('A' for Active; 'I' for Inactive)
REMARK    1  A    between atoms: C_1  and  C_2
REMARK    2  A    between atoms: C_5  and  C_6
REMARK    3  A    between atoms: C_6  and  N_7
REMARK    4  A    between atoms: N_7  and  C_8
REMARK    5  A    between atoms: C_8  and  C_9
REMARK    6  A    between atoms: C_14  and  C_16
REMARK                            x       y       z     vdW  Elec       q    Type
REMARK                         _______ _______ _______ _____ _____    ______ ____
ROOT
ATOM      1  C   UNL     1       3.267   6.352  18.215  0.00  0.00    +0.000 C 
ATOM      2  F   UNL     1       2.213   5.834  17.500  0.00  0.00    +0.000 F 
ATOM      3  C   UNL     1       3.563   7.730  17.622  0.00  0.00    +0.000 C 
ATOM      4  C   UNL     1       2.300   8.588  17.692  0.00  0.00    +0.000 C 
ATOM      5  N   UNL     1       1.784   8.665  19.063  0.00  0.00    +0.000 N 
ATOM      6  C   UNL     1       1.180   9.867  19.452  0.00  0.00    +0.000 C 
ATOM      7  O   UNL     1       1.103  10.811  18.672  0.00  0.00    +0.000 OA
ATOM      8  C   UNL     1       1.531   7.358  19.674  0.00  0.00    +0.000 C 
ATOM      9  C   UNL     1       2.806   6.526  19.670  0.00  0.00    +0.000 C 
ENDROOT
BRANCH   6  10
ATOM     10  C   UNL     1       0.658  10.001  20.807  0.00  0.00    +0.000 A 
ATOM     11  C   UNL     1       1.127   9.483  22.035  0.00  0.00    +0.000 A 
ATOM     12  N   UNL     1       0.375   9.817  23.082  0.00  0.00    +0.000 NA
ATOM     13  N   UNL     1      -0.556  10.660  22.574  0.00  0.00    +0.000 N 
ATOM     14  C   UNL     1      -1.543  11.340  23.287  0.00  0.00    +0.000 A 
ATOM     15  C   UNL     1      -2.377  12.181  22.655  0.00  0.00    +0.000 A 
ATOM     16  C   UNL     1      -2.231  12.358  21.222  0.00  0.00    +0.000 A 
ATOM     17  C   UNL     1      -1.293  11.694  20.519  0.00  0.00    +0.000 A 
ATOM     18  C   UNL     1      -0.403  10.803  21.196  0.00  0.00    +0.000 A 
ENDBRANCH   6  10
BRANCH   1  19
ATOM     19  C   UNL     1       4.439   5.361  18.045  0.00  0.00    +0.000 C 
BRANCH  19  20
ATOM     20  N   UNL     1       4.175   4.504  16.893  0.00  0.00    +0.000 NA
ATOM     21  H   UNL     1       3.258   4.702  16.492  0.00  0.00    +0.000 HD
BRANCH  20  22
ATOM     22  C   UNL     1       4.222   3.070  17.150  0.00  0.00    +0.000 C 
BRANCH  22  27
ATOM     23  C   UNL     1       1.243   2.491  22.048  0.00  0.00    +0.000 C 
ATOM     24  C   UNL     1       1.966   2.602  20.745  0.00  0.00    +0.000 A 
ATOM     25  C   UNL     1       1.287   2.722  19.533  0.00  0.00    +0.000 A 
ATOM     26  C   UNL     1       2.009   2.827  18.346  0.00  0.00    +0.000 A 
ATOM     27  C   UNL     1       3.402   2.791  18.397  0.00  0.00    +0.000 A 
ATOM     28  N   UNL     1       4.085   2.687  19.567  0.00  0.00    +0.000 NA
ATOM     29  C   UNL     1       3.355   2.592  20.702  0.00  0.00    +0.000 A 
ENDBRANCH  22  27
ENDBRANCH  20  22
ENDBRANCH  19  20
ENDBRANCH   1  19
TORSDOF 5
ENDMDL
MODEL 4
REMARK VINA RESULT:      -7.1      3.019      8.379
REMARK  Name = 
REMARK  6 active torsions:
REMARK  status: ('A' for Active; 'I' for Inactive)
REMARK    1  A    between atoms: C_1  and  C_2
REMARK    2  A    between atoms: C_5  and  C_6
REMARK    3  A    between atoms: C_6  and  N_7
REMARK    4  A    between atoms: N_7  and  C_8
REMARK    5  A    between atoms: C_8  and  C_9
REMARK    6  A    between atoms: C_14  and  C_16
REMARK                            x       y       z     vdW  Elec       q    Type
REMARK                         _______ _______ _______ _____ _____    ______ ____
ROOT
ATOM      1  C   UNL     1       0.288  10.454  20.340  0.00  0.00    +0.000 C 
ATOM      2  F   UNL     1       1.370  11.050  20.944  0.00  0.00    +0.000 F 
ATOM      3  C   UNL     1       0.647  10.287  18.863  0.00  0.00    +0.000 C 
ATOM      4  C   UNL     1       1.935   9.471  18.749  0.00  0.00    +0.000 C 
ATOM      5  N   UNL     1       1.814   8.186  19.447  0.00  0.00    +0.000 N 
ATOM      6  C   UNL     1       2.484   7.090  18.889  0.00  0.00    +0.000 C 
ATOM      7  O   UNL     1       3.132   7.212  17.854  0.00  0.00    +0.000 OA
ATOM      8  C   UNL     1       1.427   8.311  20.854  0.00  0.00    +0.000 C 
ATOM      9  C   UNL     1       0.109   9.063  20.967  0.00  0.00    +0.000 C 
ENDROOT
BRANCH   6  10
ATOM     10  C   UNL     1       2.389   5.787  19.537  0.00  0.00    +0.000 A 
ATOM     11  C   UNL     1       2.066   5.435  20.866  0.00  0.00    +0.000 A 
ATOM     12  N   UNL     1       2.086   4.123  21.096  0.00  0.00    +0.000 NA
ATOM     13  N   UNL     1       2.320   3.572  19.881  0.00  0.00    +0.000 N 
ATOM     14  C   UNL     1       2.367   2.211  19.578  0.00  0.00    +0.000 A 
ATOM     15  C   UNL     1       2.569   1.806  18.314  0.00  0.00    +0.000 A 
ATOM     16  C   UNL     1       2.743   2.810  17.281  0.00  0.00    +0.000 A 
ATOM     17  C   UNL     1       2.717   4.127  17.563  0.00  0.00    +0.000 A 
ATOM     18  C   UNL     1       2.496   4.556  18.909  0.00  0.00    +0.000 A 
ENDBRANCH   6  10
BRANCH   1  19
ATOM     19  C   UNL     1      -0.912  11.399  20.563  0.00  0.00    +0.000 C 
BRANCH  19  20
ATOM     20  N   UNL     1      -1.451  11.800  19.267  0.00  0.00    +0.000 NA
ATOM     21  H   UNL     1      -1.221  12.772  19.059  0.00  0.00    +0.000 HD
BRANCH  20  22
ATOM     22  C   UNL     1      -2.894  11.667  19.115  0.00  0.00    +0.000 C 
BRANCH  22  27
ATOM     23  C   UNL     1      -3.751   9.943  13.684  0.00  0.00    +0.000 C 
ATOM     24  C   UNL     1      -3.513  10.323  15.110  0.00  0.00    +0.000 A 
ATOM     25  C   UNL     1      -2.519   9.719  15.879  0.00  0.00    +0.000 A 
ATOM     26  C   UNL     1      -2.337  10.113  17.203  0.00  0.00    +0.000 A 
ATOM     27  C   UNL     1      -3.170  11.095  17.736  0.00  0.00    +0.000 A 
ATOM     28  N   UNL     1      -4.137  11.706  17.003  0.00  0.00    +0.000 NA
ATOM     29  C   UNL     1      -4.286  11.305  15.720  0.00  0.00    +0.000 A 
ENDBRANCH  22  27
ENDBRANCH  20  22
ENDBRANCH  19  20
ENDBRANCH   1  19
TORSDOF 5
ENDMDL
MODEL 5
REMARK VINA RESULT:      -7.1      3.436      8.947
REMARK  Name = 
REMARK  6 active torsions:
REMARK  status: ('A' for Active; 'I' for Inactive)
REMARK    1  A    between atoms: C_1  and  C_2
REMARK    2  A    between atoms: C_5  and  C_6
REMARK    3  A    between atoms: C_6  and  N_7
REMARK    4  A    between atoms: N_7  and  C_8
REMARK    5  A    between atoms: C_8  and  C_9
REMARK    6  A    between atoms: C_14  and  C_16
REMARK                            x       y       z     vdW  Elec       q    Type
REMARK                         _______ _______ _______ _____ _____    ______ ____
ROOT
ATOM      1  C   UNL     1       0.615   9.530  19.567  0.00  0.00    +0.000 C 
ATOM      2  F   UNL     1       1.546  10.403  20.078  0.00  0.00    +0.000 F 
ATOM      3  C   UNL     1       0.858   9.463  18.058  0.00  0.00    +0.000 C 
ATOM      4  C   UNL     1       2.302   9.033  17.801  0.00  0.00    +0.000 C 
ATOM      5  N   UNL     1       2.607   7.767  18.476  0.00  0.00    +0.000 N 
ATOM      6  C   UNL     1       3.493   6.896  17.830  0.00  0.00    +0.000 C 
ATOM      7  O   UNL     1       3.977   7.188  16.740  0.00  0.00    +0.000 OA
ATOM      8  C   UNL     1       2.344   7.785  19.917  0.00  0.00    +0.000 C 
ATOM      9  C   UNL     1       0.888   8.146  20.175  0.00  0.00    +0.000 C 
ENDROOT
BRANCH   6  10
ATOM     10  C   UNL     1       3.825   5.620  18.453  0.00  0.00    +0.000 A 
ATOM     11  C   UNL     1       4.970   5.209  19.170  0.00  0.00    +0.000 A 
ATOM     12  N   UNL     1       4.919   3.946  19.590  0.00  0.00    +0.000 NA
ATOM     13  N   UNL     1       3.678   3.527  19.245  0.00  0.00    +0.000 N 
ATOM     14  C   UNL     1       3.109   2.285  19.527  0.00  0.00    +0.000 A 
ATOM     15  C   UNL     1       1.846   2.019  19.159  0.00  0.00    +0.000 A 
ATOM     16  C   UNL     1       1.095   3.045  18.459  0.00  0.00    +0.000 A 
ATOM     17  C   UNL     1       1.638   4.243  18.165  0.00  0.00    +0.000 A 
ATOM     18  C   UNL     1       2.982   4.525  18.564  0.00  0.00    +0.000 A 
ENDBRANCH   6  10
BRANCH   1  19
ATOM     19  C   UNL     1      -0.770  10.109  19.927  0.00  0.00    +0.000 C 
BRANCH  19  20
ATOM     20  N   UNL     1      -0.592  11.244  20.828  0.00  0.00    +0.000 NA
ATOM     21  H   UNL     1       0.277  11.739  20.627  0.00  0.00    +0.000 HD
BRANCH  20  22
ATOM     22  C   UNL     1      -0.574  10.924  22.250  0.00  0.00    +0.000 C 
BRANCH  22  27
ATOM     23  C   UNL     1      -3.279  15.429  24.616  0.00  0.00    +0.000 C 
ATOM     24  C   UNL     1      -2.618  14.217  24.041  0.00  0.00    +0.000 A 
ATOM     25  C   UNL     1      -3.326  13.045  23.781  0.00  0.00    +0.000 A 
ATOM     26  C   UNL     1      -2.663  11.944  23.241  0.00  0.00    +0.000 A 
ATOM     27  C   UNL     1      -1.295  12.037  22.990  0.00  0.00    +0.000 A 
ATOM     28  N   UNL     1      -0.587  13.172  23.225  0.00  0.00    +0.000 NA
ATOM     29  C   UNL     1      -1.260  14.224  23.744  0.00  0.00    +0.000 A 
ENDBRANCH  22  27
ENDBRANCH  20  22
ENDBRANCH  19  20
ENDBRANCH   1  19
TORSDOF 5
ENDMDL
MODEL 6
REMARK VINA RESULT:      -7.1      2.973      8.313
REMARK  Name = 
REMARK  6 active torsions:
REMARK  status: ('A' for Active; 'I' for Inactive)
REMARK    1  A    between atoms: C_1  and  C_2
REMARK    2  A    between atoms: C_5  and  C_6
REMARK    3  A    between atoms: C_6  and  N_7
REMARK    4  A    between atoms: N_7  and  C_8
REMARK    5  A    between atoms: C_8  and  C_9
REMARK    6  A    between atoms: C_14  and  C_16
REMARK                            x       y       z     vdW  Elec       q    Type
REMARK                         _______ _______ _______ _____ _____    ______ ____
ROOT
ATOM      1  C   UNL     1       2.302   5.461  19.430  0.00  0.00    +0.000 C 
ATOM      2  F   UNL     1       1.212   5.412  18.593  0.00  0.00    +0.000 F 
ATOM      3  C   UNL     1       2.780   4.020  19.613  0.00  0.00    +0.000 C 
ATOM      4  C   UNL     1       3.090   3.416  18.243  0.00  0.00    +0.000 C 
ATOM      5  N   UNL     1       4.056   4.239  17.506  0.00  0.00    +0.000 N 
ATOM      6  C   UNL     1       4.965   3.570  16.678  0.00  0.00    +0.000 C 
ATOM      7  O   UNL     1       4.951   2.345  16.592  0.00  0.00    +0.000 OA
ATOM      8  C   UNL     1       3.647   5.637  17.352  0.00  0.00    +0.000 C 
ATOM      9  C   UNL     1       3.403   6.262  18.718  0.00  0.00    +0.000 C 
ENDROOT
BRANCH   6  10
ATOM     10  C   UNL     1       5.953   4.339  15.930  0.00  0.00    +0.000 A 
ATOM     11  C   UNL     1       6.924   5.269  16.363  0.00  0.00    +0.000 A 
ATOM     12  N   UNL     1       7.657   5.782  15.376  0.00  0.00    +0.000 NA
ATOM     13  N   UNL     1       7.250   5.111  14.271  0.00  0.00    +0.000 N 
ATOM     14  C   UNL     1       7.766   5.238  12.981  0.00  0.00    +0.000 A 
ATOM     15  C   UNL     1       7.292   4.475  11.984  0.00  0.00    +0.000 A 
ATOM     16  C   UNL     1       6.233   3.527  12.277  0.00  0.00    +0.000 A 
ATOM     17  C   UNL     1       5.714   3.406  13.515  0.00  0.00    +0.000 A 
ATOM     18  C   UNL     1       6.225   4.217  14.577  0.00  0.00    +0.000 A 
ENDBRANCH   6  10
BRANCH   1  19
ATOM     19  C   UNL     1       1.813   6.103  20.746  0.00  0.00    +0.000 C 
BRANCH  19  20
ATOM     20  N   UNL     1       2.142   7.526  20.733  0.00  0.00    +0.000 NA
ATOM     21  H   UNL     1       3.092   7.684  21.068  0.00  0.00    +0.000 HD
BRANCH  20  22
ATOM     22  C   UNL     1       1.267   8.382  21.523  0.00  0.00    +0.000 C 
BRANCH  22  27
ATOM     23  C   UNL     1      -1.118  12.427  18.184  0.00  0.00    +0.000 C 
ATOM     24  C   UNL     1      -0.497  11.335  18.993  0.00  0.00    +0.000 A 
ATOM     25  C   UNL     1       0.470  10.483  18.463  0.00  0.00    +0.000 A 
ATOM     26  C   UNL     1       1.021   9.483  19.262  0.00  0.00    +0.000 A 
ATOM     27  C   UNL     1       0.575   9.346  20.576  0.00  0.00    +0.000 A 
ATOM     28  N   UNL     1      -0.358  10.172  21.117  0.00  0.00    +0.000 NA
ATOM     29  C   UNL     1      -0.869  11.135  20.318  0.00  0.00    +0.000 A 
ENDBRANCH  22  27
ENDBRANCH  20  22
ENDBRANCH  19  20
ENDBRANCH   1  19
TORSDOF 5
ENDMDL
MODEL 7
REMARK VINA RESULT:      -7.1      1.495      1.855
REMARK  Name = 
REMARK  6 active torsions:
REMARK  status: ('A' for Active; 'I' for Inactive)
REMARK    1  A    between atoms: C_1  and  C_2
REMARK    2  A    between atoms: C_5  and  C_6
REMARK    3  A    between atoms: C_6  and  N_7
REMARK    4  A    between atoms: N_7  and  C_8
REMARK    5  A    between atoms: C_8  and  C_9
REMARK    6  A    between atoms: C_14  and  C_16
REMARK                            x       y       z     vdW  Elec       q    Type
REMARK                         _______ _______ _______ _____ _____    ______ ____
ROOT
ATOM      1  C   UNL     1       3.076   4.925  18.750  0.00  0.00    +0.000 C 
ATOM      2  F   UNL     1       4.189   4.996  19.554  0.00  0.00    +0.000 F 
ATOM      3  C   UNL     1       1.886   4.657  19.671  0.00  0.00    +0.000 C 
ATOM      4  C   UNL     1       1.807   5.763  20.725  0.00  0.00    +0.000 C 
ATOM      5  N   UNL     1       1.746   7.088  20.099  0.00  0.00    +0.000 N 
ATOM      6  C   UNL     1       0.979   8.065  20.746  0.00  0.00    +0.000 C 
ATOM      7  O   UNL     1       0.378   7.805  21.785  0.00  0.00    +0.000 OA
ATOM      8  C   UNL     1       2.850   7.359  19.176  0.00  0.00    +0.000 C 
ATOM      9  C   UNL     1       2.890   6.298  18.086  0.00  0.00    +0.000 C 
ENDROOT
BRANCH   6  10
ATOM     10  C   UNL     1       0.876   9.398  20.163  0.00  0.00    +0.000 A 
ATOM     11  C   UNL     1       1.147   9.860  18.856  0.00  0.00    +0.000 A 
ATOM     12  N   UNL     1       0.939  11.166  18.693  0.00  0.00    +0.000 NA
ATOM     13  N   UNL     1       0.419  11.575  19.874  0.00  0.00    +0.000 N 
ATOM     14  C   UNL     1      -0.031  12.857  20.189  0.00  0.00    +0.000 A 
ATOM     15  C   UNL     1      -0.566  13.110  21.394  0.00  0.00    +0.000 A 
ATOM     16  C   UNL     1      -0.656  12.029  22.356  0.00  0.00    +0.000 A 
ATOM     17  C   UNL     1      -0.209  10.789  22.072  0.00  0.00    +0.000 A 
ATOM     18  C   UNL     1       0.355  10.521  20.785  0.00  0.00    +0.000 A 
ENDBRANCH   6  10
BRANCH   1  19
ATOM     19  C   UNL     1       3.333   3.777  17.750  0.00  0.00    +0.000 C 
BRANCH  19  20
ATOM     20  N   UNL     1       4.765   3.501  17.699  0.00  0.00    +0.000 NA
ATOM     21  H   UNL     1       5.242   3.887  18.514  0.00  0.00    +0.000 HD
BRANCH  20  22
ATOM     22  C   UNL     1       5.463   4.009  16.524  0.00  0.00    +0.000 C 
BRANCH  22  27
ATOM     23  C   UNL     1       8.412   8.589  18.405  0.00  0.00    +0.000 C 
ATOM     24  C   UNL     1       7.704   7.360  17.932  0.00  0.00    +0.000 A 
ATOM     25  C   UNL     1       7.878   6.124  18.552  0.00  0.00    +0.000 A 
ATOM     26  C   UNL     1       7.190   5.010  18.074  0.00  0.00    +0.000 A 
ATOM     27  C   UNL     1       6.353   5.156  16.968  0.00  0.00    +0.000 A 
ATOM     28  N   UNL     1       6.160   6.353  16.355  0.00  0.00    +0.000 NA
ATOM     29  C   UNL     1       6.837   7.415  16.846  0.00  0.00    +0.000 A 
ENDBRANCH  22  27
ENDBRANCH  20  22
ENDBRANCH  19  20
ENDBRANCH   1  19
TORSDOF 5
ENDMDL
MODEL 8
REMARK VINA RESULT:      -7.1      2.592      8.364
REMARK  Name = 
REMARK  6 active torsions:
REMARK  status: ('A' for Active; 'I' for Inactive)
REMARK    1  A    between atoms: C_1  and  C_2
REMARK    2  A    between atoms: C_5  and  C_6
REMARK    3  A    between atoms: C_6  and  N_7
REMARK    4  A    between atoms: N_7  and  C_8
REMARK    5  A    between atoms: C_8  and  C_9
REMARK    6  A    between atoms: C_14  and  C_16
REMARK                            x       y       z     vdW  Elec       q    Type
REMARK                         _______ _______ _______ _____ _____    ______ ____
ROOT
ATOM      1  C   UNL     1       0.573   9.497  19.760  0.00  0.00    +0.000 C 
ATOM      2  F   UNL     1       1.508  10.371  20.264  0.00  0.00    +0.000 F 
ATOM      3  C   UNL     1       0.773   9.466  18.245  0.00  0.00    +0.000 C 
ATOM      4  C   UNL     1       2.215   9.059  17.937  0.00  0.00    +0.000 C 
ATOM      5  N   UNL     1       2.554   7.782  18.576  0.00  0.00    +0.000 N 
ATOM      6  C   UNL     1       3.431   6.936  17.887  0.00  0.00    +0.000 C 
ATOM      7  O   UNL     1       3.881   7.258  16.790  0.00  0.00    +0.000 OA
ATOM      8  C   UNL     1       2.331   7.766  20.023  0.00  0.00    +0.000 C 
ATOM      9  C   UNL     1       0.879   8.104  20.330  0.00  0.00    +0.000 C 
ENDROOT
BRANCH   6  10
ATOM     10  C   UNL     1       3.795   5.651  18.471  0.00  0.00    +0.000 A 
ATOM     11  C   UNL     1       4.959   5.243  19.160  0.00  0.00    +0.000 A 
ATOM     12  N   UNL     1       4.936   3.970  19.549  0.00  0.00    +0.000 NA
ATOM     13  N   UNL     1       3.697   3.536  19.214  0.00  0.00    +0.000 N 
ATOM     14  C   UNL     1       3.155   2.278  19.473  0.00  0.00    +0.000 A 
ATOM     15  C   UNL     1       1.891   1.999  19.118  0.00  0.00    +0.000 A 
ATOM     16  C   UNL     1       1.111   3.028  18.456  0.00  0.00    +0.000 A 
ATOM     17  C   UNL     1       1.629   4.243  18.184  0.00  0.00    +0.000 A 
ATOM     18  C   UNL     1       2.974   4.539  18.568  0.00  0.00    +0.000 A 
ENDBRANCH   6  10
BRANCH   1  19
ATOM     19  C   UNL     1      -0.808  10.052  20.172  0.00  0.00    +0.000 C 
BRANCH  19  20
ATOM     20  N   UNL     1      -0.793  11.506  20.050  0.00  0.00    +0.000 NA
ATOM     21  H   UNL     1      -0.363  11.938  20.868  0.00  0.00    +0.000 HD
BRANCH  20  22
ATOM     22  C   UNL     1      -2.095  12.138  19.876  0.00  0.00    +0.000 C 
BRANCH  22  27
ATOM     23  C   UNL     1      -3.847  10.145  14.761  0.00  0.00    +0.000 C 
ATOM     24  C   UNL     1      -3.459  10.687  16.098  0.00  0.00    +0.000 A 
ATOM     25  C   UNL     1      -4.336  10.676  17.182  0.00  0.00    +0.000 A 
ATOM     26  C   UNL     1      -3.922  11.190  18.410  0.00  0.00    +0.000 A 
ATOM     27  C   UNL     1      -2.639  11.724  18.520  0.00  0.00    +0.000 A 
ATOM     28  N   UNL     1      -1.763  11.735  17.482  0.00  0.00    +0.000 NA
ATOM     29  C   UNL     1      -2.193  11.224  16.306  0.00  0.00    +0.000 A 
ENDBRANCH  22  27
ENDBRANCH  20  22
ENDBRANCH  19  20
ENDBRANCH   1  19
TORSDOF 5
ENDMDL
MODEL 9
REMARK VINA RESULT:      -7.0      1.967      8.634
REMARK  Name = 
REMARK  6 active torsions:
REMARK  status: ('A' for Active; 'I' for Inactive)
REMARK    1  A    between atoms: C_1  and  C_2
REMARK    2  A    between atoms: C_5  and  C_6
REMARK    3  A    between atoms: C_6  and  N_7
REMARK    4  A    between atoms: N_7  and  C_8
REMARK    5  A    between atoms: C_8  and  C_9
REMARK    6  A    between atoms: C_14  and  C_16
REMARK                            x       y       z     vdW  Elec       q    Type
REMARK                         _______ _______ _______ _____ _____    ______ ____
ROOT
ATOM      1  C   UNL     1       1.163   9.479  19.565  0.00  0.00    +0.000 C 
ATOM      2  F   UNL     1      -0.120   9.067  19.292  0.00  0.00    +0.000 F 
ATOM      3  C   UNL     1       1.568   8.811  20.879  0.00  0.00    +0.000 C 
ATOM      4  C   UNL     1       1.434   7.295  20.733  0.00  0.00    +0.000 C 
ATOM      5  N   UNL     1       2.208   6.800  19.589  0.00  0.00    +0.000 N 
ATOM      6  C   UNL     1       2.795   5.536  19.714  0.00  0.00    +0.000 C 
ATOM      7  O   UNL     1       2.669   4.884  20.747  0.00  0.00    +0.000 OA
ATOM      8  C   UNL     1       1.873   7.453  18.322  0.00  0.00    +0.000 C 
ATOM      9  C   UNL     1       2.072   8.957  18.442  0.00  0.00    +0.000 C 
ENDROOT
BRANCH   6  10
ATOM     10  C   UNL     1       3.583   4.999  18.610  0.00  0.00    +0.000 A 
ATOM     11  C   UNL     1       3.186   4.422  17.384  0.00  0.00    +0.000 A 
ATOM     12  N   UNL     1       4.203   4.036  16.616  0.00  0.00    +0.000 NA
ATOM     13  N   UNL     1       5.306   4.453  17.282  0.00  0.00    +0.000 N 
ATOM     14  C   UNL     1       6.630   4.345  16.855  0.00  0.00    +0.000 A 
ATOM     15  C   UNL     1       7.626   4.844  17.604  0.00  0.00    +0.000 A 
ATOM     16  C   UNL     1       7.296   5.486  18.863  0.00  0.00    +0.000 A 
ATOM     17  C   UNL     1       6.023   5.582  19.295  0.00  0.00    +0.000 A 
ATOM     18  C   UNL     1       4.963   5.055  18.492  0.00  0.00    +0.000 A 
ENDBRANCH   6  10
BRANCH   1  19
ATOM     19  C   UNL     1       1.114  11.019  19.664  0.00  0.00    +0.000 C 
BRANCH  19  20
ATOM     20  N   UNL     1       0.727  11.568  18.368  0.00  0.00    +0.000 NA
ATOM     21  H   UNL     1       1.543  11.896  17.851  0.00  0.00    +0.000 HD
BRANCH  20  22
ATOM     22  C   UNL     1      -0.219  12.676  18.409  0.00  0.00    +0.000 C 
BRANCH  22  27
ATOM     23  C   UNL     1      -5.715  10.955  18.209  0.00  0.00    +0.000 C 
ATOM     24  C   UNL     1      -4.271  11.339  18.232  0.00  0.00    +0.000 A 
ATOM     25  C   UNL     1      -3.392  10.967  17.215  0.00  0.00    +0.000 A 
ATOM     26  C   UNL     1      -2.055  11.355  17.283  0.00  0.00    +0.000 A 
ATOM     27  C   UNL     1      -1.622  12.095  18.382  0.00  0.00    +0.000 A 
ATOM     28  N   UNL     1      -2.462  12.478  19.378  0.00  0.00    +0.000 NA
ATOM     29  C   UNL     1      -3.754  12.091  19.281  0.00  0.00    +0.000 A 
ENDBRANCH  22  27
ENDBRANCH  20  22
ENDBRANCH  19  20
ENDBRANCH   1  19
TORSDOF 5
ENDMDL
