MODEL 1
REMARK VINA RESULT:      -7.8      0.000      0.000
REMARK  Name = 
REMARK  7 active torsions:
REMARK  status: ('A' for Active; 'I' for Inactive)
REMARK    1  A    between atoms: C_1  and  C_2
REMARK    2  A    between atoms: C_2  and  N_3
REMARK    3  A    between atoms: C_4  and  C_6
REMARK    4  A    between atoms: C_6  and  N_7
REMARK    5  A    between atoms: N_7  and  C_8
REMARK    6  A    between atoms: N_7  and  S_14
REMARK    7  A    between atoms: S_14  and  C_17
REMARK                            x       y       z     vdW  Elec       q    Type
REMARK                         _______ _______ _______ _____ _____    ______ ____
ROOT
ATOM      1  N   UNL     1       3.807   5.357  18.931  0.00  0.00    +0.000 N 
ENDROOT
BRANCH   1   2
ATOM      2  C   UNL     1       2.701   4.487  19.224  0.00  0.00    +0.000 A 
ATOM      3  C   UNL     1       2.330   4.325  20.558  0.00  0.00    +0.000 A 
ATOM      4  C   UNL     1       1.278   3.474  20.902  0.00  0.00    +0.000 A 
ATOM      5  C   UNL     1       0.592   2.777  19.908  0.00  0.00    +0.000 A 
ATOM      6  C   UNL     1       0.956   2.933  18.571  0.00  0.00    +0.000 A 
ATOM      7  C   UNL     1       2.013   3.787  18.227  0.00  0.00    +0.000 A 
ENDBRANCH   1   2
BRANCH   1   8
ATOM      8  S   UNL     1       5.376   4.697  18.970  0.00  0.00    +0.000 S 
ATOM      9  O   UNL     1       6.243   5.652  19.631  0.00  0.00    +0.000 OA
ATOM     10  O   UNL     1       5.287   3.337  19.456  0.00  0.00    +0.000 OA
BRANCH   8  11
ATOM     11  C   UNL     1       5.889   4.618  17.261  0.00  0.00    +0.000 A 
ATOM     12  C   UNL     1       7.067   5.253  16.850  0.00  0.00    +0.000 A 
ATOM     13  C   UNL     1       7.439   5.212  15.504  0.00  0.00    +0.000 A 
ATOM     14  C   UNL     1       6.654   4.512  14.586  0.00  0.00    +0.000 A 
ATOM     15 CL   UNL     1       7.076   4.523  12.918  0.00  0.00    +0.000 Cl
ATOM     16  C   UNL     1       5.522   3.815  15.008  0.00  0.00    +0.000 A 
ATOM     17  C   UNL     1       5.141   3.858  16.351  0.00  0.00    +0.000 A 
ENDBRANCH   8  11
ENDBRANCH   1   8
BRANCH   1  18
ATOM     18  C   UNL     1       3.568   6.493  18.011  0.00  0.00    +0.000 C 
BRANCH  18  20
ATOM     19  N   UNL     1       2.136   8.492  17.670  0.00  0.00    +0.000 N 
ATOM     20  C   UNL     1       2.610   7.547  18.555  0.00  0.00    +0.000 C 
ATOM     21  O   UNL     1       2.301   7.553  19.752  0.00  0.00    +0.000 OA
ATOM     22  H   UNL     1       2.400   8.408  16.695  0.00  0.00    +0.000 HD
BRANCH  19  24
ATOM     23  C   UNL     1       1.823  10.855  18.301  0.00  0.00    +0.000 C 
ATOM     24  C   UNL     1       1.172   9.504  18.058  0.00  0.00    +0.000 C 
ENDBRANCH  19  24
ENDBRANCH  18  20
ENDBRANCH   1  18
TORSDOF 6
ENDMDL
MODEL 2
REMARK VINA RESULT:      -7.8      0.294      1.106
REMARK  Name = 
REMARK  7 active torsions:
REMARK  status: ('A' for Active; 'I' for Inactive)
REMARK    1  A    between atoms: C_1  and  C_2
REMARK    2  A    between atoms: C_2  and  N_3
REMARK    3  A    between atoms: C_4  and  C_6
REMARK    4  A    between atoms: C_6  and  N_7
REMARK    5  A    between atoms: N_7  and  C_8
REMARK    6  A    between atoms: N_7  and  S_14
REMARK    7  A    between atoms: S_14  and  C_17
REMARK                            x       y       z     vdW  Elec       q    Type
REMARK                         _______ _______ _______ _____ _____    ______ ____
ROOT
ATOM      1  N   UNL     1       3.733   5.260  18.924  0.00  0.00    +0.000 N 
ENDROOT
BRANCH   1   2
ATOM      2  C   UNL     1       2.675   4.360  19.294  0.00  0.00    +0.000 A 
ATOM      3  C   UNL     1       2.022   3.664  18.278  0.00  0.00    +0.000 A 
ATOM      4  C   UNL     1       0.972   2.794  18.578  0.00  0.00    +0.000 A 
ATOM      5  C   UNL     1       0.567   2.620  19.901  0.00  0.00    +0.000 A 
ATOM      6  C   UNL     1       1.214   3.314  20.923  0.00  0.00    +0.000 A 
ATOM      7  C   UNL     1       2.268   4.186  20.621  0.00  0.00    +0.000 A 
ENDBRANCH   1   2
BRANCH   1   8
ATOM      8  S   UNL     1       5.332   4.676  18.968  0.00  0.00    +0.000 S 
ATOM      9  O   UNL     1       6.154   5.682  19.611  0.00  0.00    +0.000 OA
ATOM     10  O   UNL     1       5.309   3.322  19.476  0.00  0.00    +0.000 OA
BRANCH   8  11
ATOM     11  C   UNL     1       5.843   4.594  17.258  0.00  0.00    +0.000 A 
ATOM     12  C   UNL     1       7.014   5.240  16.843  0.00  0.00    +0.000 A 
ATOM     13  C   UNL     1       7.384   5.196  15.496  0.00  0.00    +0.000 A 
ATOM     14  C   UNL     1       6.605   4.483  14.583  0.00  0.00    +0.000 A 
ATOM     15 CL   UNL     1       7.025   4.489  12.914  0.00  0.00    +0.000 Cl
ATOM     16  C   UNL     1       5.482   3.775  15.010  0.00  0.00    +0.000 A 
ATOM     17  C   UNL     1       5.102   3.821  16.354  0.00  0.00    +0.000 A 
ENDBRANCH   8  11
ENDBRANCH   1   8
BRANCH   1  18
ATOM     18  C   UNL     1       3.423   6.325  17.942  0.00  0.00    +0.000 C 
BRANCH  18  20
ATOM     19  N   UNL     1       2.476   8.607  17.702  0.00  0.00    +0.000 N 
ATOM     20  C   UNL     1       2.716   7.537  18.538  0.00  0.00    +0.000 C 
ATOM     21  O   UNL     1       2.400   7.552  19.733  0.00  0.00    +0.000 OA
ATOM     22  H   UNL     1       2.728   8.515  16.725  0.00  0.00    +0.000 HD
BRANCH  19  24
ATOM     23  C   UNL     1       0.254   9.646  17.955  0.00  0.00    +0.000 C 
ATOM     24  C   UNL     1       1.756   9.788  18.140  0.00  0.00    +0.000 C 
ENDBRANCH  19  24
ENDBRANCH  18  20
ENDBRANCH   1  18
TORSDOF 6
ENDMDL
MODEL 3
REMARK VINA RESULT:      -7.8      0.099      1.017
REMARK  Name = 
REMARK  7 active torsions:
REMARK  status: ('A' for Active; 'I' for Inactive)
REMARK    1  A    between atoms: C_1  and  C_2
REMARK    2  A    between atoms: C_2  and  N_3
REMARK    3  A    between atoms: C_4  and  C_6
REMARK    4  A    between atoms: C_6  and  N_7
REMARK    5  A    between atoms: N_7  and  C_8
REMARK    6  A    between atoms: N_7  and  S_14
REMARK    7  A    between atoms: S_14  and  C_17
REMARK                            x       y       z     vdW  Elec       q    Type
REMARK                         _______ _______ _______ _____ _____    ______ ____
ROOT
ATOM      1  N   UNL     1       3.829   5.392  18.948  0.00  0.00    +0.000 N 
ENDROOT
BRANCH   1   2
ATOM      2  C   UNL     1       2.719   4.531  19.254  0.00  0.00    +0.000 A 
ATOM      3  C   UNL     1       2.377   4.354  20.594  0.00  0.00    +0.000 A 
ATOM      4  C   UNL     1       1.322   3.511  20.950  0.00  0.00    +0.000 A 
ATOM      5  C   UNL     1       0.606   2.836  19.962  0.00  0.00    +0.000 A 
ATOM      6  C   UNL     1       0.943   3.007  18.620  0.00  0.00    +0.000 A 
ATOM      7  C   UNL     1       2.001   3.853  18.263  0.00  0.00    +0.000 A 
ENDBRANCH   1   2
BRANCH   1   8
ATOM      8  S   UNL     1       5.389   4.711  18.934  0.00  0.00    +0.000 S 
ATOM      9  O   UNL     1       6.289   5.651  19.574  0.00  0.00    +0.000 OA
ATOM     10  O   UNL     1       5.298   3.350  19.415  0.00  0.00    +0.000 OA
BRANCH   8  11
ATOM     11  C   UNL     1       5.848   4.637  17.210  0.00  0.00    +0.000 A 
ATOM     12  C   UNL     1       5.021   3.979  16.290  0.00  0.00    +0.000 A 
ATOM     13  C   UNL     1       5.408   3.900  14.950  0.00  0.00    +0.000 A 
ATOM     14  C   UNL     1       6.596   4.502  14.531  0.00  0.00    +0.000 A 
ATOM     15 CL   UNL     1       7.105   4.342  12.895  0.00  0.00    +0.000 Cl
ATOM     16  C   UNL     1       7.380   5.223  15.431  0.00  0.00    +0.000 A 
ATOM     17  C   UNL     1       7.002   5.301  16.774  0.00  0.00    +0.000 A 
ENDBRANCH   8  11
ENDBRANCH   1   8
BRANCH   1  18
ATOM     18  C   UNL     1       3.582   6.548  18.055  0.00  0.00    +0.000 C 
BRANCH  18  20
ATOM     19  N   UNL     1       2.077   8.496  17.736  0.00  0.00    +0.000 N 
ATOM     20  C   UNL     1       2.597   7.569  18.614  0.00  0.00    +0.000 C 
ATOM     21  O   UNL     1       2.306   7.566  19.815  0.00  0.00    +0.000 OA
ATOM     22  H   UNL     1       2.329   8.421  16.757  0.00  0.00    +0.000 HD
BRANCH  19  24
ATOM     23  C   UNL     1       1.694  10.847  18.374  0.00  0.00    +0.000 C 
ATOM     24  C   UNL     1       1.085   9.475  18.138  0.00  0.00    +0.000 C 
ENDBRANCH  19  24
ENDBRANCH  18  20
ENDBRANCH   1  18
TORSDOF 6
ENDMDL
MODEL 4
REMARK VINA RESULT:      -7.7      0.289      1.501
REMARK  Name = 
REMARK  7 active torsions:
REMARK  status: ('A' for Active; 'I' for Inactive)
REMARK    1  A    between atoms: C_1  and  C_2
REMARK    2  A    between atoms: C_2  and  N_3
REMARK    3  A    between atoms: C_4  and  C_6
REMARK    4  A    between atoms: C_6  and  N_7
REMARK    5  A    between atoms: N_7  and  C_8
REMARK    6  A    between atoms: N_7  and  S_14
REMARK    7  A    between atoms: S_14  and  C_17
REMARK                            x       y       z     vdW  Elec       q    Type
REMARK                         _______ _______ _______ _____ _____    ______ ____
ROOT
ATOM      1  N   UNL     1       3.738   5.303  18.937  0.00  0.00    +0.000 N 
ENDROOT
BRANCH   1   2
ATOM      2  C   UNL     1       2.681   4.407  19.321  0.00  0.00    +0.000 A 
ATOM      3  C   UNL     1       2.000   3.728  18.312  0.00  0.00    +0.000 A 
ATOM      4  C   UNL     1       0.950   2.862  18.626  0.00  0.00    +0.000 A 
ATOM      5  C   UNL     1       0.574   2.676  19.955  0.00  0.00    +0.000 A 
ATOM      6  C   UNL     1       1.250   3.353  20.970  0.00  0.00    +0.000 A 
ATOM      7  C   UNL     1       2.303   4.221  20.655  0.00  0.00    +0.000 A 
ENDBRANCH   1   2
BRANCH   1   8
ATOM      8  S   UNL     1       5.333   4.709  18.945  0.00  0.00    +0.000 S 
ATOM      9  O   UNL     1       6.172   5.701  19.589  0.00  0.00    +0.000 OA
ATOM     10  O   UNL     1       5.311   3.348  19.434  0.00  0.00    +0.000 OA
BRANCH   8  11
ATOM     11  C   UNL     1       5.815   4.650  17.226  0.00  0.00    +0.000 A 
ATOM     12  C   UNL     1       5.075   3.886  16.315  0.00  0.00    +0.000 A 
ATOM     13  C   UNL     1       5.482   3.822  14.980  0.00  0.00    +0.000 A 
ATOM     14  C   UNL     1       6.601   4.542  14.558  0.00  0.00    +0.000 A 
ATOM     15 CL   UNL     1       7.141   4.405  12.929  0.00  0.00    +0.000 Cl
ATOM     16  C   UNL     1       7.292   5.364  15.448  0.00  0.00    +0.000 A 
ATOM     17  C   UNL     1       6.894   5.428  16.786  0.00  0.00    +0.000 A 
ENDBRANCH   8  11
ENDBRANCH   1   8
BRANCH   1  18
ATOM     18  C   UNL     1       3.416   6.378  17.970  0.00  0.00    +0.000 C 
BRANCH  18  20
ATOM     19  N   UNL     1       2.427   8.645  17.759  0.00  0.00    +0.000 N 
ATOM     20  C   UNL     1       2.677   7.565  18.578  0.00  0.00    +0.000 C 
ATOM     21  O   UNL     1       2.345   7.552  19.769  0.00  0.00    +0.000 OA
ATOM     22  H   UNL     1       2.693   8.577  16.784  0.00  0.00    +0.000 HD
BRANCH  19  24
ATOM     23  C   UNL     1       0.184   9.648  17.974  0.00  0.00    +0.000 C 
ATOM     24  C   UNL     1       1.677   9.803  18.208  0.00  0.00    +0.000 C 
ENDBRANCH  19  24
ENDBRANCH  18  20
ENDBRANCH   1  18
TORSDOF 6
ENDMDL
MODEL 5
REMARK VINA RESULT:      -7.7      1.137      1.273
REMARK  Name = 
REMARK  7 active torsions:
REMARK  status: ('A' for Active; 'I' for Inactive)
REMARK    1  A    between atoms: C_1  and  C_2
REMARK    2  A    between atoms: C_2  and  N_3
REMARK    3  A    between atoms: C_4  and  C_6
REMARK    4  A    between atoms: C_6  and  N_7
REMARK    5  A    between atoms: N_7  and  C_8
REMARK    6  A    between atoms: N_7  and  S_14
REMARK    7  A    between atoms: S_14  and  C_17
REMARK                            x       y       z     vdW  Elec       q    Type
REMARK                         _______ _______ _______ _____ _____    ______ ____
ROOT
ATOM      1  N   UNL     1       3.850   5.377  18.979  0.00  0.00    +0.000 N 
ENDROOT
BRANCH   1   2
ATOM      2  C   UNL     1       2.726   4.524  19.250  0.00  0.00    +0.000 A 
ATOM      3  C   UNL     1       2.322   4.373  20.576  0.00  0.00    +0.000 A 
ATOM      4  C   UNL     1       1.250   3.538  20.898  0.00  0.00    +0.000 A 
ATOM      5  C   UNL     1       0.579   2.845  19.892  0.00  0.00    +0.000 A 
ATOM      6  C   UNL     1       0.978   2.989  18.564  0.00  0.00    +0.000 A 
ATOM      7  C   UNL     1       2.053   3.827  18.240  0.00  0.00    +0.000 A 
ENDBRANCH   1   2
BRANCH   1   8
ATOM      8  S   UNL     1       5.405   4.683  18.998  0.00  0.00    +0.000 S 
ATOM      9  O   UNL     1       6.302   5.619  19.646  0.00  0.00    +0.000 OA
ATOM     10  O   UNL     1       5.293   3.326  19.487  0.00  0.00    +0.000 OA
BRANCH   8  11
ATOM     11  C   UNL     1       5.892   4.590  17.282  0.00  0.00    +0.000 A 
ATOM     12  C   UNL     1       7.048   5.247  16.843  0.00  0.00    +0.000 A 
ATOM     13  C   UNL     1       7.400   5.194  15.491  0.00  0.00    +0.000 A 
ATOM     14  C   UNL     1       6.617   4.462  14.597  0.00  0.00    +0.000 A 
ATOM     15 CL   UNL     1       7.012   4.457  12.922  0.00  0.00    +0.000 Cl
ATOM     16  C   UNL     1       5.509   3.745  15.047  0.00  0.00    +0.000 A 
ATOM     17  C   UNL     1       5.148   3.799  16.396  0.00  0.00    +0.000 A 
ENDBRANCH   8  11
ENDBRANCH   1   8
BRANCH   1  18
ATOM     18  C   UNL     1       3.636   6.543  18.091  0.00  0.00    +0.000 C 
BRANCH  18  20
ATOM     19  N   UNL     1       2.393   7.695  19.905  0.00  0.00    +0.000 N 
ATOM     20  C   UNL     1       2.525   7.482  18.550  0.00  0.00    +0.000 C 
ATOM     21  O   UNL     1       1.766   8.003  17.725  0.00  0.00    +0.000 OA
ATOM     22  H   UNL     1       3.071   7.266  20.525  0.00  0.00    +0.000 HD
BRANCH  19  24
ATOM     23  C   UNL     1       0.534   7.958  21.504  0.00  0.00    +0.000 C 
ATOM     24  C   UNL     1       1.415   8.615  20.455  0.00  0.00    +0.000 C 
ENDBRANCH  19  24
ENDBRANCH  18  20
ENDBRANCH   1  18
TORSDOF 6
ENDMDL
MODEL 6
REMARK VINA RESULT:      -7.6      1.141      1.610
REMARK  Name = 
REMARK  7 active torsions:
REMARK  status: ('A' for Active; 'I' for Inactive)
REMARK    1  A    between atoms: C_1  and  C_2
REMARK    2  A    between atoms: C_2  and  N_3
REMARK    3  A    between atoms: C_4  and  C_6
REMARK    4  A    between atoms: C_6  and  N_7
REMARK    5  A    between atoms: N_7  and  C_8
REMARK    6  A    between atoms: N_7  and  S_14
REMARK    7  A    between atoms: S_14  and  C_17
REMARK                            x       y       z     vdW  Elec       q    Type
REMARK                         _______ _______ _______ _____ _____    ______ ____
ROOT
ATOM      1  N   UNL     1       3.869   5.391  18.962  0.00  0.00    +0.000 N 
ENDROOT
BRANCH   1   2
ATOM      2  C   UNL     1       2.759   4.536  19.281  0.00  0.00    +0.000 A 
ATOM      3  C   UNL     1       2.122   3.871  18.235  0.00  0.00    +0.000 A 
ATOM      4  C   UNL     1       1.023   3.046  18.486  0.00  0.00    +0.000 A 
ATOM      5  C   UNL     1       0.555   2.885  19.789  0.00  0.00    +0.000 A 
ATOM      6  C   UNL     1       1.187   3.547  20.841  0.00  0.00    +0.000 A 
ATOM      7  C   UNL     1       2.288   4.375  20.590  0.00  0.00    +0.000 A 
ENDBRANCH   1   2
BRANCH   1   8
ATOM      8  S   UNL     1       5.432   4.717  18.989  0.00  0.00    +0.000 S 
ATOM      9  O   UNL     1       6.316   5.672  19.630  0.00  0.00    +0.000 OA
ATOM     10  O   UNL     1       5.337   3.364  19.491  0.00  0.00    +0.000 OA
BRANCH   8  11
ATOM     11  C   UNL     1       5.924   4.615  17.275  0.00  0.00    +0.000 A 
ATOM     12  C   UNL     1       7.065   5.293  16.829  0.00  0.00    +0.000 A 
ATOM     13  C   UNL     1       7.419   5.231  15.479  0.00  0.00    +0.000 A 
ATOM     14  C   UNL     1       6.654   4.471  14.592  0.00  0.00    +0.000 A 
ATOM     15 CL   UNL     1       7.052   4.455  12.918  0.00  0.00    +0.000 Cl
ATOM     16  C   UNL     1       5.562   3.734  15.051  0.00  0.00    +0.000 A 
ATOM     17  C   UNL     1       5.199   3.796  16.398  0.00  0.00    +0.000 A 
ENDBRANCH   8  11
ENDBRANCH   1   8
BRANCH   1  18
ATOM     18  C   UNL     1       3.629   6.517  18.029  0.00  0.00    +0.000 C 
BRANCH  18  20
ATOM     19  N   UNL     1       2.374   7.674  19.832  0.00  0.00    +0.000 N 
ATOM     20  C   UNL     1       2.531   7.476  18.477  0.00  0.00    +0.000 C 
ATOM     21  O   UNL     1       1.802   8.025  17.643  0.00  0.00    +0.000 OA
ATOM     22  H   UNL     1       3.028   7.222  20.460  0.00  0.00    +0.000 HD
BRANCH  19  24
ATOM     23  C   UNL     1       0.969   8.235  21.779  0.00  0.00    +0.000 C 
ATOM     24  C   UNL     1       1.406   8.610  20.373  0.00  0.00    +0.000 C 
ENDBRANCH  19  24
ENDBRANCH  18  20
ENDBRANCH   1  18
TORSDOF 6
ENDMDL
MODEL 7
REMARK VINA RESULT:      -7.5      1.132      1.885
REMARK  Name = 
REMARK  7 active torsions:
REMARK  status: ('A' for Active; 'I' for Inactive)
REMARK    1  A    between atoms: C_1  and  C_2
REMARK    2  A    between atoms: C_2  and  N_3
REMARK    3  A    between atoms: C_4  and  C_6
REMARK    4  A    between atoms: C_6  and  N_7
REMARK    5  A    between atoms: N_7  and  C_8
REMARK    6  A    between atoms: N_7  and  S_14
REMARK    7  A    between atoms: S_14  and  C_17
REMARK                            x       y       z     vdW  Elec       q    Type
REMARK                         _______ _______ _______ _____ _____    ______ ____
ROOT
ATOM      1  N   UNL     1       3.840   5.485  18.669  0.00  0.00    +0.000 N 
ENDROOT
BRANCH   1   2
ATOM      2  C   UNL     1       2.790   4.637  19.163  0.00  0.00    +0.000 A 
ATOM      3  C   UNL     1       2.038   3.918  18.236  0.00  0.00    +0.000 A 
ATOM      4  C   UNL     1       0.991   3.096  18.658  0.00  0.00    +0.000 A 
ATOM      5  C   UNL     1       0.688   2.995  20.015  0.00  0.00    +0.000 A 
ATOM      6  C   UNL     1       1.435   3.712  20.949  0.00  0.00    +0.000 A 
ATOM      7  C   UNL     1       2.486   4.536  20.525  0.00  0.00    +0.000 A 
ENDBRANCH   1   2
BRANCH   1   8
ATOM      8  S   UNL     1       5.427   4.870  18.659  0.00  0.00    +0.000 S 
ATOM      9  O   UNL     1       6.304   5.892  19.196  0.00  0.00    +0.000 OA
ATOM     10  O   UNL     1       5.408   3.547  19.246  0.00  0.00    +0.000 OA
BRANCH   8  11
ATOM     11  C   UNL     1       5.840   4.680  16.932  0.00  0.00    +0.000 A 
ATOM     12  C   UNL     1       4.999   3.948  16.085  0.00  0.00    +0.000 A 
ATOM     13  C   UNL     1       5.351   3.779  14.743  0.00  0.00    +0.000 A 
ATOM     14  C   UNL     1       6.518   4.366  14.250  0.00  0.00    +0.000 A 
ATOM     15 CL   UNL     1       6.985   4.097  12.615  0.00  0.00    +0.000 Cl
ATOM     16  C   UNL     1       7.315   5.159  15.074  0.00  0.00    +0.000 A 
ATOM     17  C   UNL     1       6.972   5.327  16.418  0.00  0.00    +0.000 A 
ENDBRANCH   8  11
ENDBRANCH   1   8
BRANCH   1  18
ATOM     18  C   UNL     1       3.492   6.488  17.636  0.00  0.00    +0.000 C 
BRANCH  18  20
ATOM     19  N   UNL     1       2.238   7.608  19.462  0.00  0.00    +0.000 N 
ATOM     20  C   UNL     1       2.684   7.670  18.160  0.00  0.00    +0.000 C 
ATOM     21  O   UNL     1       2.426   8.627  17.421  0.00  0.00    +0.000 OA
ATOM     22  H   UNL     1       2.515   6.812  20.025  0.00  0.00    +0.000 HD
BRANCH  19  24
ATOM     23  C   UNL     1       0.854   8.278  21.390  0.00  0.00    +0.000 C 
ATOM     24  C   UNL     1       1.516   8.699  20.089  0.00  0.00    +0.000 C 
ENDBRANCH  19  24
ENDBRANCH  18  20
ENDBRANCH   1  18
TORSDOF 6
ENDMDL
MODEL 8
REMARK VINA RESULT:      -7.3      1.029      1.449
REMARK  Name = 
REMARK  7 active torsions:
REMARK  status: ('A' for Active; 'I' for Inactive)
REMARK    1  A    between atoms: C_1  and  C_2
REMARK    2  A    between atoms: C_2  and  N_3
REMARK    3  A    between atoms: C_4  and  C_6
REMARK    4  A    between atoms: C_6  and  N_7
REMARK    5  A    between atoms: N_7  and  C_8
REMARK    6  A    between atoms: N_7  and  S_14
REMARK    7  A    between atoms: S_14  and  C_17
REMARK                            x       y       z     vdW  Elec       q    Type
REMARK                         _______ _______ _______ _____ _____    ______ ____
ROOT
ATOM      1  N   UNL     1       3.939   5.370  19.186  0.00  0.00    +0.000 N 
ENDROOT
BRANCH   1   2
ATOM      2  C   UNL     1       2.805   4.505  19.363  0.00  0.00    +0.000 A 
ATOM      3  C   UNL     1       2.375   4.246  20.664  0.00  0.00    +0.000 A 
ATOM      4  C   UNL     1       1.293   3.395  20.896  0.00  0.00    +0.000 A 
ATOM      5  C   UNL     1       0.637   2.793  19.822  0.00  0.00    +0.000 A 
ATOM      6  C   UNL     1       1.062   3.046  18.518  0.00  0.00    +0.000 A 
ATOM      7  C   UNL     1       2.148   3.899  18.286  0.00  0.00    +0.000 A 
ENDBRANCH   1   2
BRANCH   1   8
ATOM      8  S   UNL     1       5.482   4.656  19.084  0.00  0.00    +0.000 S 
ATOM      9  O   UNL     1       6.434   5.572  19.681  0.00  0.00    +0.000 OA
ATOM     10  O   UNL     1       5.387   3.294  19.561  0.00  0.00    +0.000 OA
BRANCH   8  11
ATOM     11  C   UNL     1       5.846   4.585  17.337  0.00  0.00    +0.000 A 
ATOM     12  C   UNL     1       4.947   3.969  16.457  0.00  0.00    +0.000 A 
ATOM     13  C   UNL     1       5.260   3.891  15.097  0.00  0.00    +0.000 A 
ATOM     14  C   UNL     1       6.446   4.453  14.622  0.00  0.00    +0.000 A 
ATOM     15 CL   UNL     1       6.862   4.293  12.959  0.00  0.00    +0.000 Cl
ATOM     16  C   UNL     1       7.304   5.134  15.486  0.00  0.00    +0.000 A 
ATOM     17  C   UNL     1       7.000   5.210  16.847  0.00  0.00    +0.000 A 
ENDBRANCH   8  11
ENDBRANCH   1   8
BRANCH   1  18
ATOM     18  C   UNL     1       3.729   6.645  18.462  0.00  0.00    +0.000 C 
BRANCH  18  20
ATOM     19  N   UNL     1       2.225   7.664  20.153  0.00  0.00    +0.000 N 
ATOM     20  C   UNL     1       2.434   7.363  18.825  0.00  0.00    +0.000 C 
ATOM     21  O   UNL     1       1.604   7.634  17.950  0.00  0.00    +0.000 OA
ATOM     22  H   UNL     1       2.961   7.447  20.814  0.00  0.00    +0.000 HD
BRANCH  19  24
ATOM     23  C   UNL     1       1.184   9.892  20.344  0.00  0.00    +0.000 C 
ATOM     24  C   UNL     1       1.060   8.401  20.608  0.00  0.00    +0.000 C 
ENDBRANCH  19  24
ENDBRANCH  18  20
ENDBRANCH   1  18
TORSDOF 6
ENDMDL
MODEL 9
REMARK VINA RESULT:      -7.1      3.075      5.524
REMARK  Name = 
REMARK  7 active torsions:
REMARK  status: ('A' for Active; 'I' for Inactive)
REMARK    1  A    between atoms: C_1  and  C_2
REMARK    2  A    between atoms: C_2  and  N_3
REMARK    3  A    between atoms: C_4  and  C_6
REMARK    4  A    between atoms: C_6  and  N_7
REMARK    5  A    between atoms: N_7  and  C_8
REMARK    6  A    between atoms: N_7  and  S_14
REMARK    7  A    between atoms: S_14  and  C_17
REMARK                            x       y       z     vdW  Elec       q    Type
REMARK                         _______ _______ _______ _____ _____    ______ ____
ROOT
ATOM      1  N   UNL     1       4.616   4.471  17.351  0.00  0.00    +0.000 N 
ENDROOT
BRANCH   1   2
ATOM      2  C   UNL     1       3.467   3.741  17.813  0.00  0.00    +0.000 A 
ATOM      3  C   UNL     1       3.684   2.558  18.518  0.00  0.00    +0.000 A 
ATOM      4  C   UNL     1       2.604   1.797  18.971  0.00  0.00    +0.000 A 
ATOM      5  C   UNL     1       1.299   2.215  18.714  0.00  0.00    +0.000 A 
ATOM      6  C   UNL     1       1.075   3.397  18.008  0.00  0.00    +0.000 A 
ATOM      7  C   UNL     1       2.158   4.160  17.554  0.00  0.00    +0.000 A 
ENDBRANCH   1   2
BRANCH   1   8
ATOM      8  S   UNL     1       5.199   5.742  18.322  0.00  0.00    +0.000 S 
ATOM      9  O   UNL     1       5.525   5.192  19.623  0.00  0.00    +0.000 OA
ATOM     10  O   UNL     1       6.197   6.470  17.569  0.00  0.00    +0.000 OA
BRANCH   8  11
ATOM     11  C   UNL     1       3.803   6.833  18.547  0.00  0.00    +0.000 A 
ATOM     12  C   UNL     1       3.440   7.729  17.534  0.00  0.00    +0.000 A 
ATOM     13  C   UNL     1       2.365   8.599  17.737  0.00  0.00    +0.000 A 
ATOM     14  C   UNL     1       1.644   8.548  18.931  0.00  0.00    +0.000 A 
ATOM     15 CL   UNL     1       0.367   9.669  19.207  0.00  0.00    +0.000 Cl
ATOM     16  C   UNL     1       1.957   7.604  19.909  0.00  0.00    +0.000 A 
ATOM     17  C   UNL     1       3.033   6.735  19.715  0.00  0.00    +0.000 A 
ENDBRANCH   8  11
ENDBRANCH   1   8
BRANCH   1  18
ATOM     18  C   UNL     1       5.598   3.754  16.505  0.00  0.00    +0.000 C 
BRANCH  18  20
ATOM     19  N   UNL     1       6.261   3.420  14.137  0.00  0.00    +0.000 N 
ATOM     20  C   UNL     1       5.653   4.241  15.061  0.00  0.00    +0.000 C 
ATOM     21  O   UNL     1       5.188   5.345  14.756  0.00  0.00    +0.000 OA
ATOM     22  H   UNL     1       6.590   2.513  14.446  0.00  0.00    +0.000 HD
BRANCH  19  24
ATOM     23  C   UNL     1       5.149   3.165  11.951  0.00  0.00    +0.000 C 
ATOM     24  C   UNL     1       6.318   3.749  12.725  0.00  0.00    +0.000 C 
ENDBRANCH  19  24
ENDBRANCH  18  20
ENDBRANCH   1  18
TORSDOF 6
ENDMDL
