MODEL 1
REMARK VINA RESULT:      -6.9      0.000      0.000
REMARK  Name = 
REMARK  3 active torsions:
REMARK  status: ('A' for Active; 'I' for Inactive)
REMARK    1  A    between atoms: C_1  and  N_2
REMARK    2  A    between atoms: N_2  and  C_9
REMARK    3  A    between atoms: C_3  and  C_5
REMARK                            x       y       z     vdW  Elec       q    Type
REMARK                         _______ _______ _______ _____ _____    ______ ____
ROOT
ATOM      1  C   UNL     1       8.444  15.719  19.479  0.00  0.00    +0.000 C 
ATOM      2  C   UNL     1       9.314  17.026  19.268  0.00  0.00    +0.000 C 
ATOM      3  C   UNL     1      10.758  17.035  19.823  0.00  0.00    +0.000 C 
ATOM      4  C   UNL     1      10.965  16.153  21.046  0.00  0.00    +0.000 C 
ATOM      5  N   UNL     1      10.249  14.891  20.922  0.00  0.00    +0.000 N 
ATOM      6  C   UNL     1      10.656  13.871  20.045  0.00  0.00    +0.000 A 
ATOM      7  C   UNL     1      11.122  14.057  18.733  0.00  0.00    +0.000 A 
ATOM      8  C   UNL     1      11.356  12.977  17.868  0.00  0.00    +0.000 A 
ATOM      9 CL   UNL     1      11.767  13.286  16.229  0.00  0.00    +0.000 Cl
ATOM     10  C   UNL     1      11.180  11.677  18.310  0.00  0.00    +0.000 A 
ATOM     11  C   UNL     1      10.725  11.458  19.609  0.00  0.00    +0.000 A 
ATOM     12  C   UNL     1      10.423  12.551  20.433  0.00  0.00    +0.000 A 
ATOM     13  O   UNL     1       9.939  12.287  21.686  0.00  0.00    +0.000 OA
ATOM     14  C   UNL     1       8.655  12.711  21.960  0.00  0.00    +0.000 A 
ATOM     15  C   UNL     1       8.006  11.840  22.855  0.00  0.00    +0.000 A 
ATOM     16  C   UNL     1       6.725  12.112  23.313  0.00  0.00    +0.000 A 
ATOM     17  C   UNL     1       6.066  13.244  22.854  0.00  0.00    +0.000 A 
ATOM     18  C   UNL     1       6.708  14.126  21.973  0.00  0.00    +0.000 A 
ATOM     19  C   UNL     1       8.033  13.908  21.527  0.00  0.00    +0.000 A 
ATOM     20  C   UNL     1       8.770  15.099  20.896  0.00  0.00    +0.000 C 
ENDROOT
BRANCH   1  22
ATOM     21  C   UNL     1       6.431  17.182  19.484  0.00  0.00    +0.000 C 
ATOM     22  N   UNL     1       7.025  15.908  19.089  0.00  0.00    +0.000 N 
ATOM     23  C   UNL     1       6.344  14.927  18.357  0.00  0.00    +0.000 C 
ATOM     24  O   UNL     1       7.014  14.060  17.779  0.00  0.00    +0.000 OA
BRANCH  23  25
ATOM     25  C   UNL     1       4.793  14.872  18.288  0.00  0.00    +0.000 C 
ATOM     26  F   UNL     1       4.135  15.085  19.461  0.00  0.00    +0.000 F 
ATOM     27  F   UNL     1       4.299  15.784  17.405  0.00  0.00    +0.000 F 
ATOM     28  F   UNL     1       4.358  13.651  17.852  0.00  0.00    +0.000 F 
ENDBRANCH  23  25
ENDBRANCH   1  22
TORSDOF 2
ENDMDL
MODEL 2
REMARK VINA RESULT:      -6.5      9.105     12.166
REMARK  Name = 
REMARK  3 active torsions:
REMARK  status: ('A' for Active; 'I' for Inactive)
REMARK    1  A    between atoms: C_1  and  N_2
REMARK    2  A    between atoms: N_2  and  C_9
REMARK    3  A    between atoms: C_3  and  C_5
REMARK                            x       y       z     vdW  Elec       q    Type
REMARK                         _______ _______ _______ _____ _____    ______ ____
ROOT
ATOM      1  C   UNL     1      -0.609  12.956  21.317  0.00  0.00    +0.000 C 
ATOM      2  C   UNL     1       0.348  14.202  21.521  0.00  0.00    +0.000 C 
ATOM      3  C   UNL     1      -0.254  15.617  21.348  0.00  0.00    +0.000 C 
ATOM      4  C   UNL     1      -1.423  15.686  20.377  0.00  0.00    +0.000 C 
ATOM      5  N   UNL     1      -2.309  14.540  20.523  0.00  0.00    +0.000 N 
ATOM      6  C   UNL     1      -3.162  14.377  21.628  0.00  0.00    +0.000 A 
ATOM      7  C   UNL     1      -2.828  14.644  22.967  0.00  0.00    +0.000 A 
ATOM      8  C   UNL     1      -3.681  14.302  24.027  0.00  0.00    +0.000 A 
ATOM      9 CL   UNL     1      -3.137  14.509  25.644  0.00  0.00    +0.000 Cl
ATOM     10  C   UNL     1      -4.916  13.732  23.774  0.00  0.00    +0.000 A 
ATOM     11  C   UNL     1      -5.281  13.460  22.457  0.00  0.00    +0.000 A 
ATOM     12  C   UNL     1      -4.383  13.737  21.416  0.00  0.00    +0.000 A 
ATOM     13  O   UNL     1      -4.768  13.414  20.143  0.00  0.00    +0.000 OA
ATOM     14  C   UNL     1      -4.025  12.451  19.493  0.00  0.00    +0.000 A 
ATOM     15  C   UNL     1      -4.822  11.689  18.619  0.00  0.00    +0.000 A 
ATOM     16  C   UNL     1      -4.263  10.703  17.819  0.00  0.00    +0.000 A 
ATOM     17  C   UNL     1      -2.902  10.448  17.908  0.00  0.00    +0.000 A 
ATOM     18  C   UNL     1      -2.095  11.210  18.764  0.00  0.00    +0.000 A 
ATOM     19  C   UNL     1      -2.623  12.258  19.556  0.00  0.00    +0.000 A 
ATOM     20  C   UNL     1      -1.625  13.266  20.146  0.00  0.00    +0.000 C 
ENDROOT
BRANCH   1  22
ATOM     21  C   UNL     1       1.335  11.643  20.487  0.00  0.00    +0.000 C 
ATOM     22  N   UNL     1       0.125  11.667  21.305  0.00  0.00    +0.000 N 
ATOM     23  C   UNL     1      -0.318  10.581  22.070  0.00  0.00    +0.000 C 
ATOM     24  O   UNL     1      -1.130  10.800  22.980  0.00  0.00    +0.000 OA
BRANCH  23  25
ATOM     25  C   UNL     1       0.140   9.124  21.784  0.00  0.00    +0.000 C 
ATOM     26  F   UNL     1       0.387   8.821  20.479  0.00  0.00    +0.000 F 
ATOM     27  F   UNL     1       1.276   8.814  22.467  0.00  0.00    +0.000 F 
ATOM     28  F   UNL     1      -0.802   8.219  22.187  0.00  0.00    +0.000 F 
ENDBRANCH  23  25
ENDBRANCH   1  22
TORSDOF 2
ENDMDL
MODEL 3
REMARK VINA RESULT:      -6.3     10.032     13.186
REMARK  Name = 
REMARK  3 active torsions:
REMARK  status: ('A' for Active; 'I' for Inactive)
REMARK    1  A    between atoms: C_1  and  N_2
REMARK    2  A    between atoms: N_2  and  C_9
REMARK    3  A    between atoms: C_3  and  C_5
REMARK                            x       y       z     vdW  Elec       q    Type
REMARK                         _______ _______ _______ _____ _____    ______ ____
ROOT
ATOM      1  C   UNL     1      -2.137  13.053  21.814  0.00  0.00    +0.000 C 
ATOM      2  C   UNL     1      -1.903  14.480  22.461  0.00  0.00    +0.000 C 
ATOM      3  C   UNL     1      -2.849  15.631  22.044  0.00  0.00    +0.000 C 
ATOM      4  C   UNL     1      -3.415  15.499  20.638  0.00  0.00    +0.000 C 
ATOM      5  N   UNL     1      -3.779  14.122  20.335  0.00  0.00    +0.000 N 
ATOM      6  C   UNL     1      -4.897  13.490  20.906  0.00  0.00    +0.000 A 
ATOM      7  C   UNL     1      -5.301  13.597  22.247  0.00  0.00    +0.000 A 
ATOM      8  C   UNL     1      -6.333  12.808  22.777  0.00  0.00    +0.000 A 
ATOM      9 CL   UNL     1      -6.663  12.874  24.461  0.00  0.00    +0.000 Cl
ATOM     10  C   UNL     1      -7.026  11.928  21.964  0.00  0.00    +0.000 A 
ATOM     11  C   UNL     1      -6.655  11.803  20.627  0.00  0.00    +0.000 A 
ATOM     12  C   UNL     1      -5.570  12.543  20.134  0.00  0.00    +0.000 A 
ATOM     13  O   UNL     1      -5.215  12.356  18.826  0.00  0.00    +0.000 OA
ATOM     14  C   UNL     1      -3.965  11.822  18.590  0.00  0.00    +0.000 A 
ATOM     15  C   UNL     1      -3.960  11.020  17.434  0.00  0.00    +0.000 A 
ATOM     16  C   UNL     1      -2.787  10.434  16.978  0.00  0.00    +0.000 A 
ATOM     17  C   UNL     1      -1.613  10.619  17.694  0.00  0.00    +0.000 A 
ATOM     18  C   UNL     1      -1.604  11.428  18.839  0.00  0.00    +0.000 A 
ATOM     19  C   UNL     1      -2.770  12.083  19.303  0.00  0.00    +0.000 A 
ATOM     20  C   UNL     1      -2.581  13.230  20.307  0.00  0.00    +0.000 C 
ENDROOT
BRANCH   1  22
ATOM     21  C   UNL     1       0.274  12.464  21.639  0.00  0.00    +0.000 C 
ATOM     22  N   UNL     1      -1.050  12.094  22.132  0.00  0.00    +0.000 N 
ATOM     23  C   UNL     1      -1.304  10.945  22.889  0.00  0.00    +0.000 C 
ATOM     24  O   UNL     1      -2.355  10.897  23.545  0.00  0.00    +0.000 OA
BRANCH  23  25
ATOM     25  C   UNL     1      -0.340   9.727  22.896  0.00  0.00    +0.000 C 
ATOM     26  F   UNL     1       0.737   9.812  22.067  0.00  0.00    +0.000 F 
ATOM     27  F   UNL     1       0.159   9.491  24.141  0.00  0.00    +0.000 F 
ATOM     28  F   UNL     1      -0.985   8.580  22.525  0.00  0.00    +0.000 F 
ENDBRANCH  23  25
ENDBRANCH   1  22
TORSDOF 2
ENDMDL
MODEL 4
REMARK VINA RESULT:      -6.2      3.301      5.281
REMARK  Name = 
REMARK  3 active torsions:
REMARK  status: ('A' for Active; 'I' for Inactive)
REMARK    1  A    between atoms: C_1  and  N_2
REMARK    2  A    between atoms: N_2  and  C_9
REMARK    3  A    between atoms: C_3  and  C_5
REMARK                            x       y       z     vdW  Elec       q    Type
REMARK                         _______ _______ _______ _____ _____    ______ ____
ROOT
ATOM      1  C   UNL     1       7.876  15.267  22.060  0.00  0.00    +0.000 C 
ATOM      2  C   UNL     1       7.944  16.771  22.552  0.00  0.00    +0.000 C 
ATOM      3  C   UNL     1       8.227  17.868  21.498  0.00  0.00    +0.000 C 
ATOM      4  C   UNL     1       9.060  17.401  20.315  0.00  0.00    +0.000 C 
ATOM      5  N   UNL     1       8.669  16.068  19.878  0.00  0.00    +0.000 N 
ATOM      6  C   UNL     1       7.463  15.815  19.203  0.00  0.00    +0.000 A 
ATOM      7  C   UNL     1       6.216  16.385  19.512  0.00  0.00    +0.000 A 
ATOM      8  C   UNL     1       5.031  15.958  18.894  0.00  0.00    +0.000 A 
ATOM      9 CL   UNL     1       3.526  16.583  19.438  0.00  0.00    +0.000 Cl
ATOM     10  C   UNL     1       5.068  14.986  17.909  0.00  0.00    +0.000 A 
ATOM     11  C   UNL     1       6.289  14.405  17.574  0.00  0.00    +0.000 A 
ATOM     12  C   UNL     1       7.452  14.789  18.257  0.00  0.00    +0.000 A 
ATOM     13  O   UNL     1       8.621  14.161  17.923  0.00  0.00    +0.000 OA
ATOM     14  C   UNL     1       9.222  13.400  18.904  0.00  0.00    +0.000 A 
ATOM     15  C   UNL     1       9.895  12.293  18.356  0.00  0.00    +0.000 A 
ATOM     16  C   UNL     1      10.620  11.427  19.162  0.00  0.00    +0.000 A 
ATOM     17  C   UNL     1      10.653  11.644  20.532  0.00  0.00    +0.000 A 
ATOM     18  C   UNL     1       9.999  12.752  21.088  0.00  0.00    +0.000 A 
ATOM     19  C   UNL     1       9.294  13.684  20.290  0.00  0.00    +0.000 A 
ATOM     20  C   UNL     1       8.954  15.041  20.926  0.00  0.00    +0.000 C 
ENDROOT
BRANCH   1  22
ATOM     21  C   UNL     1       8.808  14.481  24.229  0.00  0.00    +0.000 C 
ATOM     22  N   UNL     1       7.805  14.299  23.182  0.00  0.00    +0.000 N 
ATOM     23  C   UNL     1       6.807  13.319  23.224  0.00  0.00    +0.000 C 
ATOM     24  O   UNL     1       5.817  13.461  22.493  0.00  0.00    +0.000 OA
BRANCH  23  25
ATOM     25  C   UNL     1       6.927  12.052  24.116  0.00  0.00    +0.000 C 
ATOM     26  F   UNL     1       7.091  12.273  25.449  0.00  0.00    +0.000 F 
ATOM     27  F   UNL     1       5.831  11.251  23.996  0.00  0.00    +0.000 F 
ATOM     28  F   UNL     1       7.997  11.285  23.748  0.00  0.00    +0.000 F 
ENDBRANCH  23  25
ENDBRANCH   1  22
TORSDOF 2
ENDMDL
MODEL 5
REMARK VINA RESULT:      -6.2      3.137      5.374
REMARK  Name = 
REMARK  3 active torsions:
REMARK  status: ('A' for Active; 'I' for Inactive)
REMARK    1  A    between atoms: C_1  and  N_2
REMARK    2  A    between atoms: N_2  and  C_9
REMARK    3  A    between atoms: C_3  and  C_5
REMARK                            x       y       z     vdW  Elec       q    Type
REMARK                         _______ _______ _______ _____ _____    ______ ____
ROOT
ATOM      1  C   UNL     1       9.351  14.227  20.606  0.00  0.00    +0.000 C 
ATOM      2  C   UNL     1      10.640  14.971  21.146  0.00  0.00    +0.000 C 
ATOM      3  C   UNL     1      10.442  16.128  22.155  0.00  0.00    +0.000 C 
ATOM      4  C   UNL     1       9.122  16.870  22.006  0.00  0.00    +0.000 C 
ATOM      5  N   UNL     1       8.022  15.955  21.736  0.00  0.00    +0.000 N 
ATOM      6  C   UNL     1       7.495  15.093  22.712  0.00  0.00    +0.000 A 
ATOM      7  C   UNL     1       8.244  14.359  23.647  0.00  0.00    +0.000 A 
ATOM      8  C   UNL     1       7.654  13.399  24.483  0.00  0.00    +0.000 A 
ATOM      9 CL   UNL     1       8.655  12.425  25.484  0.00  0.00    +0.000 Cl
ATOM     10  C   UNL     1       6.287  13.184  24.443  0.00  0.00    +0.000 A 
ATOM     11  C   UNL     1       5.514  13.899  23.531  0.00  0.00    +0.000 A 
ATOM     12  C   UNL     1       6.132  14.799  22.651  0.00  0.00    +0.000 A 
ATOM     13  O   UNL     1       5.338  15.448  21.744  0.00  0.00    +0.000 OA
ATOM     14  C   UNL     1       5.569  15.182  20.411  0.00  0.00    +0.000 A 
ATOM     15  C   UNL     1       4.380  15.246  19.661  0.00  0.00    +0.000 A 
ATOM     16  C   UNL     1       4.394  15.070  18.285  0.00  0.00    +0.000 A 
ATOM     17  C   UNL     1       5.597  14.797  17.647  0.00  0.00    +0.000 A 
ATOM     18  C   UNL     1       6.789  14.745  18.382  0.00  0.00    +0.000 A 
ATOM     19  C   UNL     1       6.820  14.971  19.779  0.00  0.00    +0.000 A 
ATOM     20  C   UNL     1       8.185  15.277  20.414  0.00  0.00    +0.000 C 
ENDROOT
BRANCH   1  22
ATOM     21  C   UNL     1      10.283  13.881  18.325  0.00  0.00    +0.000 C 
ATOM     22  N   UNL     1       9.654  13.285  19.501  0.00  0.00    +0.000 N 
ATOM     23  C   UNL     1       9.382  11.917  19.626  0.00  0.00    +0.000 C 
ATOM     24  O   UNL     1       9.181  11.463  20.761  0.00  0.00    +0.000 OA
BRANCH  23  25
ATOM     25  C   UNL     1       9.281  10.976  18.394  0.00  0.00    +0.000 C 
ATOM     26  F   UNL     1      10.378  10.927  17.588  0.00  0.00    +0.000 F 
ATOM     27  F   UNL     1       9.027   9.690  18.767  0.00  0.00    +0.000 F 
ATOM     28  F   UNL     1       8.252  11.341  17.572  0.00  0.00    +0.000 F 
ENDBRANCH  23  25
ENDBRANCH   1  22
TORSDOF 2
ENDMDL
MODEL 6
REMARK VINA RESULT:      -6.1      3.468      5.622
REMARK  Name = 
REMARK  3 active torsions:
REMARK  status: ('A' for Active; 'I' for Inactive)
REMARK    1  A    between atoms: C_1  and  N_2
REMARK    2  A    between atoms: N_2  and  C_9
REMARK    3  A    between atoms: C_3  and  C_5
REMARK                            x       y       z     vdW  Elec       q    Type
REMARK                         _______ _______ _______ _____ _____    ______ ____
ROOT
ATOM      1  C   UNL     1      10.604  15.646  18.518  0.00  0.00    +0.000 C 
ATOM      2  C   UNL     1      11.882  16.255  17.808  0.00  0.00    +0.000 C 
ATOM      3  C   UNL     1      11.903  17.777  17.531  0.00  0.00    +0.000 C 
ATOM      4  C   UNL     1      10.529  18.395  17.318  0.00  0.00    +0.000 C 
ATOM      5  N   UNL     1       9.547  17.845  18.242  0.00  0.00    +0.000 N 
ATOM      6  C   UNL     1       9.538  18.156  19.612  0.00  0.00    +0.000 A 
ATOM      7  C   UNL     1      10.671  18.255  20.436  0.00  0.00    +0.000 A 
ATOM      8  C   UNL     1      10.567  18.411  21.827  0.00  0.00    +0.000 A 
ATOM      9 CL   UNL     1      11.990  18.360  22.789  0.00  0.00    +0.000 Cl
ATOM     10  C   UNL     1       9.324  18.525  22.425  0.00  0.00    +0.000 A 
ATOM     11  C   UNL     1       8.179  18.437  21.635  0.00  0.00    +0.000 A 
ATOM     12  C   UNL     1       8.302  18.204  20.258  0.00  0.00    +0.000 A 
ATOM     13  O   UNL     1       7.150  18.083  19.529  0.00  0.00    +0.000 OA
ATOM     14  C   UNL     1       6.915  16.862  18.933  0.00  0.00    +0.000 A 
ATOM     15  C   UNL     1       5.539  16.576  18.871  0.00  0.00    +0.000 A 
ATOM     16  C   UNL     1       5.076  15.422  18.254  0.00  0.00    +0.000 A 
ATOM     17  C   UNL     1       5.990  14.526  17.719  0.00  0.00    +0.000 A 
ATOM     18  C   UNL     1       7.363  14.807  17.761  0.00  0.00    +0.000 A 
ATOM     19  C   UNL     1       7.867  15.998  18.336  0.00  0.00    +0.000 A 
ATOM     20  C   UNL     1       9.312  16.391  17.992  0.00  0.00    +0.000 C 
ENDROOT
BRANCH   1  22
ATOM     21  C   UNL     1      10.799  13.517  17.245  0.00  0.00    +0.000 C 
ATOM     22  N   UNL     1      10.614  14.163  18.542  0.00  0.00    +0.000 N 
ATOM     23  C   UNL     1      10.494  13.463  19.748  0.00  0.00    +0.000 C 
ATOM     24  O   UNL     1      10.692  14.080  20.805  0.00  0.00    +0.000 OA
BRANCH  23  25
ATOM     25  C   UNL     1      10.082  11.965  19.800  0.00  0.00    +0.000 C 
ATOM     26  F   UNL     1       9.803  11.465  21.036  0.00  0.00    +0.000 F 
ATOM     27  F   UNL     1       8.982  11.723  19.035  0.00  0.00    +0.000 F 
ATOM     28  F   UNL     1      11.071  11.161  19.306  0.00  0.00    +0.000 F 
ENDBRANCH  23  25
ENDBRANCH   1  22
TORSDOF 2
ENDMDL
MODEL 7
REMARK VINA RESULT:      -6.1     12.358     14.942
REMARK  Name = 
REMARK  3 active torsions:
REMARK  status: ('A' for Active; 'I' for Inactive)
REMARK    1  A    between atoms: C_1  and  N_2
REMARK    2  A    between atoms: N_2  and  C_9
REMARK    3  A    between atoms: C_3  and  C_5
REMARK                            x       y       z     vdW  Elec       q    Type
REMARK                         _______ _______ _______ _____ _____    ______ ____
ROOT
ATOM      1  C   UNL     1      -5.517  13.077  19.336  0.00  0.00    +0.000 C 
ATOM      2  C   UNL     1      -5.824  14.511  18.739  0.00  0.00    +0.000 C 
ATOM      3  C   UNL     1      -6.846  15.404  19.482  0.00  0.00    +0.000 C 
ATOM      4  C   UNL     1      -7.916  14.633  20.240  0.00  0.00    +0.000 C 
ATOM      5  N   UNL     1      -7.362  13.465  20.909  0.00  0.00    +0.000 N 
ATOM      6  C   UNL     1      -6.542  13.559  22.046  0.00  0.00    +0.000 A 
ATOM      7  C   UNL     1      -5.522  14.505  22.243  0.00  0.00    +0.000 A 
ATOM      8  C   UNL     1      -4.643  14.432  23.335  0.00  0.00    +0.000 A 
ATOM      9 CL   UNL     1      -3.319  15.523  23.423  0.00  0.00    +0.000 Cl
ATOM     10  C   UNL     1      -4.796  13.442  24.289  0.00  0.00    +0.000 A 
ATOM     11  C   UNL     1      -5.802  12.492  24.127  0.00  0.00    +0.000 A 
ATOM     12  C   UNL     1      -6.622  12.535  22.990  0.00  0.00    +0.000 A 
ATOM     13  O   UNL     1      -7.569  11.557  22.852  0.00  0.00    +0.000 OA
ATOM     14  C   UNL     1      -7.434  10.705  21.776  0.00  0.00    +0.000 A 
ATOM     15  C   UNL     1      -7.902   9.414  22.081  0.00  0.00    +0.000 A 
ATOM     16  C   UNL     1      -7.915   8.414  21.119  0.00  0.00    +0.000 A 
ATOM     17  C   UNL     1      -7.429   8.689  19.848  0.00  0.00    +0.000 A 
ATOM     18  C   UNL     1      -6.973   9.975  19.529  0.00  0.00    +0.000 A 
ATOM     19  C   UNL     1      -6.994  11.033  20.470  0.00  0.00    +0.000 A 
ATOM     20  C   UNL     1      -6.848  12.462  19.927  0.00  0.00    +0.000 C 
ENDROOT
BRANCH   1  22
ATOM     21  C   UNL     1      -5.276  11.959  17.126  0.00  0.00    +0.000 C 
ATOM     22  N   UNL     1      -4.685  12.245  18.431  0.00  0.00    +0.000 N 
ATOM     23  C   UNL     1      -3.410  11.817  18.817  0.00  0.00    +0.000 C 
ATOM     24  O   UNL     1      -2.866  12.388  19.773  0.00  0.00    +0.000 OA
BRANCH  23  25
ATOM     25  C   UNL     1      -2.686  10.632  18.118  0.00  0.00    +0.000 C 
ATOM     26  F   UNL     1      -3.398   9.476  18.014  0.00  0.00    +0.000 F 
ATOM     27  F   UNL     1      -2.303  10.958  16.852  0.00  0.00    +0.000 F 
ATOM     28  F   UNL     1      -1.542  10.288  18.783  0.00  0.00    +0.000 F 
ENDBRANCH  23  25
ENDBRANCH   1  22
TORSDOF 2
ENDMDL
MODEL 8
REMARK VINA RESULT:      -6.0      8.976     11.859
REMARK  Name = 
REMARK  3 active torsions:
REMARK  status: ('A' for Active; 'I' for Inactive)
REMARK    1  A    between atoms: C_1  and  N_2
REMARK    2  A    between atoms: N_2  and  C_9
REMARK    3  A    between atoms: C_3  and  C_5
REMARK                            x       y       z     vdW  Elec       q    Type
REMARK                         _______ _______ _______ _____ _____    ______ ____
ROOT
ATOM      1  C   UNL     1      -0.312  13.307  21.385  0.00  0.00    +0.000 C 
ATOM      2  C   UNL     1       0.855  14.378  21.376  0.00  0.00    +0.000 C 
ATOM      3  C   UNL     1       0.469  15.873  21.275  0.00  0.00    +0.000 C 
ATOM      4  C   UNL     1      -0.830  16.135  20.529  0.00  0.00    +0.000 C 
ATOM      5  N   UNL     1      -1.849  15.151  20.865  0.00  0.00    +0.000 N 
ATOM      6  C   UNL     1      -2.500  15.129  22.110  0.00  0.00    +0.000 A 
ATOM      7  C   UNL     1      -1.888  15.336  23.358  0.00  0.00    +0.000 A 
ATOM      8  C   UNL     1      -2.577  15.138  24.564  0.00  0.00    +0.000 A 
ATOM      9 CL   UNL     1      -1.722  15.250  26.050  0.00  0.00    +0.000 Cl
ATOM     10  C   UNL     1      -3.914  14.780  24.555  0.00  0.00    +0.000 A 
ATOM     11  C   UNL     1      -4.553  14.573  23.333  0.00  0.00    +0.000 A 
ATOM     12  C   UNL     1      -3.828  14.700  22.140  0.00  0.00    +0.000 A 
ATOM     13  O   UNL     1      -4.485  14.446  20.967  0.00  0.00    +0.000 OA
ATOM     14  C   UNL     1      -4.040  13.374  20.221  0.00  0.00    +0.000 A 
ATOM     15  C   UNL     1      -5.096  12.755  19.529  0.00  0.00    +0.000 A 
ATOM     16  C   UNL     1      -4.860  11.692  18.670  0.00  0.00    +0.000 A 
ATOM     17  C   UNL     1      -3.566  11.215  18.519  0.00  0.00    +0.000 A 
ATOM     18  C   UNL     1      -2.503  11.833  19.193  0.00  0.00    +0.000 A 
ATOM     19  C   UNL     1      -2.700  12.953  20.037  0.00  0.00    +0.000 A 
ATOM     20  C   UNL     1      -1.461  13.782  20.408  0.00  0.00    +0.000 C 
ENDROOT
BRANCH   1  22
ATOM     21  C   UNL     1       1.131  11.670  20.190  0.00  0.00    +0.000 C 
ATOM     22  N   UNL     1       0.187  11.914  21.278  0.00  0.00    +0.000 N 
ATOM     23  C   UNL     1      -0.206  10.937  22.199  0.00  0.00    +0.000 C 
ATOM     24  O   UNL     1      -0.716  11.310  23.266  0.00  0.00    +0.000 OA
BRANCH  23  25
ATOM     25  C   UNL     1      -0.066   9.417  21.907  0.00  0.00    +0.000 C 
ATOM     26  F   UNL     1      -0.364   9.023  20.638  0.00  0.00    +0.000 F 
ATOM     27  F   UNL     1       1.199   8.976  22.154  0.00  0.00    +0.000 F 
ATOM     28  F   UNL     1      -0.887   8.679  22.712  0.00  0.00    +0.000 F 
ENDBRANCH  23  25
ENDBRANCH   1  22
TORSDOF 2
ENDMDL
MODEL 9
REMARK VINA RESULT:      -5.9      1.171      1.653
REMARK  Name = 
REMARK  3 active torsions:
REMARK  status: ('A' for Active; 'I' for Inactive)
REMARK    1  A    between atoms: C_1  and  N_2
REMARK    2  A    between atoms: N_2  and  C_9
REMARK    3  A    between atoms: C_3  and  C_5
REMARK                            x       y       z     vdW  Elec       q    Type
REMARK                         _______ _______ _______ _____ _____    ______ ____
ROOT
ATOM      1  C   UNL     1       7.837  15.581  19.328  0.00  0.00    +0.000 C 
ATOM      2  C   UNL     1       8.933  16.528  18.687  0.00  0.00    +0.000 C 
ATOM      3  C   UNL     1      10.357  16.504  19.292  0.00  0.00    +0.000 C 
ATOM      4  C   UNL     1      10.404  16.151  20.771  0.00  0.00    +0.000 C 
ATOM      5  N   UNL     1       9.466  15.087  21.097  0.00  0.00    +0.000 N 
ATOM      6  C   UNL     1       9.671  13.751  20.713  0.00  0.00    +0.000 A 
ATOM      7  C   UNL     1      10.156  13.323  19.465  0.00  0.00    +0.000 A 
ATOM      8  C   UNL     1      10.180  11.968  19.103  0.00  0.00    +0.000 A 
ATOM      9 CL   UNL     1      10.631  11.532  17.504  0.00  0.00    +0.000 Cl
ATOM     10  C   UNL     1       9.769  10.998  20.001  0.00  0.00    +0.000 A 
ATOM     11  C   UNL     1       9.289  11.388  21.249  0.00  0.00    +0.000 A 
ATOM     12  C   UNL     1       9.200  12.751  21.565  0.00  0.00    +0.000 A 
ATOM     13  O   UNL     1       8.683  13.088  22.786  0.00  0.00    +0.000 OA
ATOM     14  C   UNL     1       7.502  13.801  22.788  0.00  0.00    +0.000 A 
ATOM     15  C   UNL     1       6.709  13.478  23.904  0.00  0.00    +0.000 A 
ATOM     16  C   UNL     1       5.503  14.125  24.134  0.00  0.00    +0.000 A 
ATOM     17  C   UNL     1       5.063  15.081  23.230  0.00  0.00    +0.000 A 
ATOM     18  C   UNL     1       5.851  15.421  22.122  0.00  0.00    +0.000 A 
ATOM     19  C   UNL     1       7.110  14.819  21.885  0.00  0.00    +0.000 A 
ATOM     20  C   UNL     1       8.051  15.521  20.893  0.00  0.00    +0.000 C 
ENDROOT
BRANCH   1  22
ATOM     21  C   UNL     1       5.983  17.206  18.990  0.00  0.00    +0.000 C 
ATOM     22  N   UNL     1       6.475  15.843  18.801  0.00  0.00    +0.000 N 
ATOM     23  C   UNL     1       5.755  14.842  18.138  0.00  0.00    +0.000 C 
ATOM     24  O   UNL     1       6.376  13.852  17.726  0.00  0.00    +0.000 OA
BRANCH  23  25
ATOM     25  C   UNL     1       4.215  14.917  17.947  0.00  0.00    +0.000 C 
ATOM     26  F   UNL     1       3.780  15.649  16.885  0.00  0.00    +0.000 F 
ATOM     27  F   UNL     1       3.669  13.677  17.802  0.00  0.00    +0.000 F 
ATOM     28  F   UNL     1       3.606  15.473  19.037  0.00  0.00    +0.000 F 
ENDBRANCH  23  25
ENDBRANCH   1  22
TORSDOF 2
ENDMDL
