MODEL 1
REMARK VINA RESULT:      -7.4      0.000      0.000
REMARK  Name = 
REMARK  8 active torsions:
REMARK  status: ('A' for Active; 'I' for Inactive)
REMARK    1  A    between atoms: C_2  and  O_3
REMARK    2  A    between atoms: C_2  and  C_4
REMARK    3  A    between atoms: C_7  and  N_8
REMARK    4  A    between atoms: C_11  and  C_12
REMARK    5  A    between atoms: C_12  and  C_13
REMARK    6  A    between atoms: C_21  and  N_22
REMARK    7  A    between atoms: N_22  and  S_23
REMARK    8  A    between atoms: S_23  and  C_26
REMARK                            x       y       z     vdW  Elec       q    Type
REMARK                         _______ _______ _______ _____ _____    ______ ____
ROOT
ATOM      1  C   UNL     1      -3.265  10.185  15.279  0.00  0.00    +0.000 A 
ATOM      2  C   UNL     1      -2.175   9.658  15.940  0.00  0.00    +0.000 A 
ATOM      3  N   UNL     1      -1.869   9.938  17.231  0.00  0.00    +0.000 NA
ATOM      4  C   UNL     1      -2.630  10.828  17.928  0.00  0.00    +0.000 A 
ATOM      5  C   UNL     1      -3.774  11.393  17.305  0.00  0.00    +0.000 A 
ATOM      6  C   UNL     1      -4.087  11.060  15.980  0.00  0.00    +0.000 A 
ENDROOT
BRANCH   4   7
ATOM      7  N   UNL     1      -2.189  11.176  19.196  0.00  0.00    +0.000 N 
ATOM      8  C   UNL     1      -2.845  12.185  20.023  0.00  0.00    +0.000 C 
ATOM      9  C   UNL     1      -1.928  13.373  20.240  0.00  0.00    +0.000 C 
ATOM     10  C   UNL     1      -0.631  12.939  20.917  0.00  0.00    +0.000 C 
ATOM     11  C   UNL     1       0.039  11.894  20.002  0.00  0.00    +0.000 C 
ATOM     12  C   UNL     1      -0.878  10.709  19.664  0.00  0.00    +0.000 C 
BRANCH  10  13
ATOM     13  C   UNL     1      -0.854  12.390  22.348  0.00  0.00    +0.000 C 
BRANCH  13  14
ATOM     14  C   UNL     1      -1.668  13.281  23.263  0.00  0.00    +0.000 A 
ATOM     15  C   UNL     1      -1.137  14.491  23.736  0.00  0.00    +0.000 A 
ATOM     16  C   UNL     1      -1.901  15.341  24.541  0.00  0.00    +0.000 A 
ATOM     17  C   UNL     1      -3.206  14.991  24.877  0.00  0.00    +0.000 A 
ATOM     18  C   UNL     1      -3.741  13.788  24.421  0.00  0.00    +0.000 A 
ATOM     19  C   UNL     1      -2.976  12.936  23.621  0.00  0.00    +0.000 A 
ENDBRANCH  13  14
ENDBRANCH  10  13
ENDBRANCH   4   7
BRANCH   1  21
ATOM     20  O   UNL     1      -4.645   9.837  13.393  0.00  0.00    +0.000 OA
ATOM     21  C   UNL     1      -3.522   9.936  13.849  0.00  0.00    +0.000 C 
BRANCH  21  22
ATOM     22  O   UNL     1      -2.410   9.809  13.088  0.00  0.00    +0.000 OA
ATOM     23  H   UNL     1      -2.192  10.564  12.508  0.00  0.00    +0.000 HD
ENDBRANCH  21  22
ENDBRANCH   1  21
BRANCH   5  24
ATOM     24  N   UNL     1      -4.652  12.320  17.982  0.00  0.00    +0.000 N 
ATOM     25  H   UNL     1      -4.686  13.233  17.535  0.00  0.00    +0.000 HD
BRANCH  24  26
ATOM     26  S   UNL     1      -6.190  11.762  18.395  0.00  0.00    +0.000 S 
ATOM     27  O   UNL     1      -7.108  12.331  17.438  0.00  0.00    +0.000 OA
ATOM     28  O   UNL     1      -6.156  10.347  18.692  0.00  0.00    +0.000 OA
BRANCH  26  29
ATOM     29  C   UNL     1      -6.481  12.628  19.944  0.00  0.00    +0.000 A 
ATOM     30  C   UNL     1      -6.204  14.000  20.056  0.00  0.00    +0.000 A 
ATOM     31  C   UNL     1      -6.347  14.641  21.293  0.00  0.00    +0.000 A 
ATOM     32  C   UNL     1      -6.774  13.917  22.401  0.00  0.00    +0.000 A 
ATOM     33  F   UNL     1      -6.893  14.537  23.583  0.00  0.00    +0.000 F 
ATOM     34  C   UNL     1      -7.067  12.562  22.282  0.00  0.00    +0.000 A 
ATOM     35  F   UNL     1      -7.478  11.867  23.354  0.00  0.00    +0.000 F 
ATOM     36  C   UNL     1      -6.920  11.904  21.063  0.00  0.00    +0.000 A 
ENDBRANCH  26  29
ENDBRANCH  24  26
ENDBRANCH   5  24
TORSDOF 8
ENDMDL
MODEL 2
REMARK VINA RESULT:      -7.1      4.767      7.395
REMARK  Name = 
REMARK  8 active torsions:
REMARK  status: ('A' for Active; 'I' for Inactive)
REMARK    1  A    between atoms: C_2  and  O_3
REMARK    2  A    between atoms: C_2  and  C_4
REMARK    3  A    between atoms: C_7  and  N_8
REMARK    4  A    between atoms: C_11  and  C_12
REMARK    5  A    between atoms: C_12  and  C_13
REMARK    6  A    between atoms: C_21  and  N_22
REMARK    7  A    between atoms: N_22  and  S_23
REMARK    8  A    between atoms: S_23  and  C_26
REMARK                            x       y       z     vdW  Elec       q    Type
REMARK                         _______ _______ _______ _____ _____    ______ ____
ROOT
ATOM      1  C   UNL     1       0.342  13.926  19.024  0.00  0.00    +0.000 A 
ATOM      2  C   UNL     1       1.531  13.265  18.790  0.00  0.00    +0.000 A 
ATOM      3  N   UNL     1       1.631  11.919  18.658  0.00  0.00    +0.000 NA
ATOM      4  C   UNL     1       0.523  11.141  18.811  0.00  0.00    +0.000 A 
ATOM      5  C   UNL     1      -0.731  11.764  19.039  0.00  0.00    +0.000 A 
ATOM      6  C   UNL     1      -0.813  13.160  19.139  0.00  0.00    +0.000 A 
ENDROOT
BRANCH   4   7
ATOM      7  N   UNL     1       0.713   9.767  18.800  0.00  0.00    +0.000 N 
ATOM      8  C   UNL     1       0.597   8.933  19.992  0.00  0.00    +0.000 C 
ATOM      9  C   UNL     1       1.938   8.319  20.345  0.00  0.00    +0.000 C 
ATOM     10  C   UNL     1       2.464   7.470  19.191  0.00  0.00    +0.000 C 
ATOM     11  C   UNL     1       2.593   8.392  17.962  0.00  0.00    +0.000 C 
ATOM     12  C   UNL     1       1.287   9.121  17.612  0.00  0.00    +0.000 C 
BRANCH  10  13
ATOM     13  C   UNL     1       1.572   6.239  18.894  0.00  0.00    +0.000 C 
BRANCH  13  14
ATOM     14  C   UNL     1       2.315   4.983  18.494  0.00  0.00    +0.000 A 
ATOM     15  C   UNL     1       1.612   3.811  18.173  0.00  0.00    +0.000 A 
ATOM     16  C   UNL     1       2.290   2.662  17.755  0.00  0.00    +0.000 A 
ATOM     17  C   UNL     1       3.679   2.675  17.651  0.00  0.00    +0.000 A 
ATOM     18  C   UNL     1       4.388   3.829  17.977  0.00  0.00    +0.000 A 
ATOM     19  C   UNL     1       3.711   4.975  18.399  0.00  0.00    +0.000 A 
ENDBRANCH  13  14
ENDBRANCH  10  13
ENDBRANCH   4   7
BRANCH   1  21
ATOM     20  O   UNL     1       1.001  15.951  20.047  0.00  0.00    +0.000 OA
ATOM     21  C   UNL     1       0.275  15.379  19.255  0.00  0.00    +0.000 C 
BRANCH  21  22
ATOM     22  O   UNL     1      -0.667  16.026  18.530  0.00  0.00    +0.000 OA
ATOM     23  H   UNL     1      -1.521  16.189  18.974  0.00  0.00    +0.000 HD
ENDBRANCH  21  22
ENDBRANCH   1  21
BRANCH   5  24
ATOM     24  N   UNL     1      -1.959  11.016  19.182  0.00  0.00    +0.000 N 
ATOM     25  H   UNL     1      -2.551  11.364  19.933  0.00  0.00    +0.000 HD
BRANCH  24  26
ATOM     26  S   UNL     1      -2.840  10.704  17.778  0.00  0.00    +0.000 S 
ATOM     27  O   UNL     1      -2.134  11.345  16.694  0.00  0.00    +0.000 OA
ATOM     28  O   UNL     1      -3.244   9.316  17.727  0.00  0.00    +0.000 OA
BRANCH  26  29
ATOM     29  C   UNL     1      -4.322  11.684  18.059  0.00  0.00    +0.000 A 
ATOM     30  C   UNL     1      -5.200  11.964  17.000  0.00  0.00    +0.000 A 
ATOM     31  C   UNL     1      -6.301  12.805  17.212  0.00  0.00    +0.000 A 
ATOM     32  C   UNL     1      -6.523  13.347  18.473  0.00  0.00    +0.000 A 
ATOM     33  F   UNL     1      -7.570  14.162  18.661  0.00  0.00    +0.000 F 
ATOM     34  C   UNL     1      -5.661  13.051  19.525  0.00  0.00    +0.000 A 
ATOM     35  F   UNL     1      -5.879  13.577  20.740  0.00  0.00    +0.000 F 
ATOM     36  C   UNL     1      -4.555  12.226  19.331  0.00  0.00    +0.000 A 
ENDBRANCH  26  29
ENDBRANCH  24  26
ENDBRANCH   5  24
TORSDOF 8
ENDMDL
MODEL 3
REMARK VINA RESULT:      -7.1      8.817     11.540
REMARK  Name = 
REMARK  8 active torsions:
REMARK  status: ('A' for Active; 'I' for Inactive)
REMARK    1  A    between atoms: C_2  and  O_3
REMARK    2  A    between atoms: C_2  and  C_4
REMARK    3  A    between atoms: C_7  and  N_8
REMARK    4  A    between atoms: C_11  and  C_12
REMARK    5  A    between atoms: C_12  and  C_13
REMARK    6  A    between atoms: C_21  and  N_22
REMARK    7  A    between atoms: N_22  and  S_23
REMARK    8  A    between atoms: S_23  and  C_26
REMARK                            x       y       z     vdW  Elec       q    Type
REMARK                         _______ _______ _______ _____ _____    ______ ____
ROOT
ATOM      1  C   UNL     1       2.495   3.450  18.676  0.00  0.00    +0.000 A 
ATOM      2  C   UNL     1       1.597   4.098  19.498  0.00  0.00    +0.000 A 
ATOM      3  N   UNL     1       1.495   5.447  19.587  0.00  0.00    +0.000 NA
ATOM      4  C   UNL     1       2.348   6.237  18.878  0.00  0.00    +0.000 A 
ATOM      5  C   UNL     1       3.285   5.629  18.003  0.00  0.00    +0.000 A 
ATOM      6  C   UNL     1       3.348   4.232  17.904  0.00  0.00    +0.000 A 
ENDROOT
BRANCH   4   7
ATOM      7  N   UNL     1       2.285   7.602  19.114  0.00  0.00    +0.000 N 
ATOM      8  C   UNL     1       1.905   8.176  20.402  0.00  0.00    +0.000 C 
ATOM      9  C   UNL     1       0.599   8.938  20.281  0.00  0.00    +0.000 C 
ATOM     10  C   UNL     1       0.720  10.058  19.252  0.00  0.00    +0.000 C 
ATOM     11  C   UNL     1       1.098   9.409  17.906  0.00  0.00    +0.000 C 
ATOM     12  C   UNL     1       2.363   8.541  17.986  0.00  0.00    +0.000 C 
BRANCH  10  13
ATOM     13  C   UNL     1       1.736  11.150  19.669  0.00  0.00    +0.000 C 
BRANCH  13  14
ATOM     14  C   UNL     1       1.305  12.574  19.392  0.00  0.00    +0.000 A 
ATOM     15  C   UNL     1       2.239  13.622  19.431  0.00  0.00    +0.000 A 
ATOM     16  C   UNL     1       1.858  14.931  19.127  0.00  0.00    +0.000 A 
ATOM     17  C   UNL     1       0.538  15.207  18.778  0.00  0.00    +0.000 A 
ATOM     18  C   UNL     1      -0.401  14.177  18.746  0.00  0.00    +0.000 A 
ATOM     19  C   UNL     1      -0.020  12.869  19.054  0.00  0.00    +0.000 A 
ENDBRANCH  13  14
ENDBRANCH  10  13
ENDBRANCH   4   7
BRANCH   1  21
ATOM     20  O   UNL     1       3.717   1.438  18.472  0.00  0.00    +0.000 OA
ATOM     21  C   UNL     1       2.648   1.984  18.667  0.00  0.00    +0.000 C 
BRANCH  21  22
ATOM     22  O   UNL     1       1.502   1.294  18.877  0.00  0.00    +0.000 OA
ATOM     23  H   UNL     1       1.586   0.324  18.948  0.00  0.00    +0.000 HD
ENDBRANCH  21  22
ENDBRANCH   1  21
BRANCH   5  24
ATOM     24  N   UNL     1       4.205   6.393  17.191  0.00  0.00    +0.000 N 
ATOM     25  H   UNL     1       4.063   7.397  17.269  0.00  0.00    +0.000 HD
BRANCH  24  26
ATOM     26  S   UNL     1       5.837   5.978  17.278  0.00  0.00    +0.000 S 
ATOM     27  O   UNL     1       6.578   7.216  17.326  0.00  0.00    +0.000 OA
ATOM     28  O   UNL     1       6.043   4.913  18.235  0.00  0.00    +0.000 OA
BRANCH  26  29
ATOM     29  C   UNL     1       6.120   5.289  15.641  0.00  0.00    +0.000 A 
ATOM     30  C   UNL     1       5.287   4.275  15.143  0.00  0.00    +0.000 A 
ATOM     31  C   UNL     1       5.574   3.682  13.906  0.00  0.00    +0.000 A 
ATOM     32  C   UNL     1       6.675   4.111  13.174  0.00  0.00    +0.000 A 
ATOM     33  F   UNL     1       6.950   3.527  12.000  0.00  0.00    +0.000 F 
ATOM     34  C   UNL     1       7.487   5.130  13.662  0.00  0.00    +0.000 A 
ATOM     35  F   UNL     1       8.550   5.540  12.952  0.00  0.00    +0.000 F 
ATOM     36  C   UNL     1       7.225   5.724  14.894  0.00  0.00    +0.000 A 
ENDBRANCH  26  29
ENDBRANCH  24  26
ENDBRANCH   5  24
TORSDOF 8
ENDMDL
MODEL 4
REMARK VINA RESULT:      -7.0      9.590     12.421
REMARK  Name = 
REMARK  8 active torsions:
REMARK  status: ('A' for Active; 'I' for Inactive)
REMARK    1  A    between atoms: C_2  and  O_3
REMARK    2  A    between atoms: C_2  and  C_4
REMARK    3  A    between atoms: C_7  and  N_8
REMARK    4  A    between atoms: C_11  and  C_12
REMARK    5  A    between atoms: C_12  and  C_13
REMARK    6  A    between atoms: C_21  and  N_22
REMARK    7  A    between atoms: N_22  and  S_23
REMARK    8  A    between atoms: S_23  and  C_26
REMARK                            x       y       z     vdW  Elec       q    Type
REMARK                         _______ _______ _______ _____ _____    ______ ____
ROOT
ATOM      1  C   UNL     1       4.271   2.314  20.204  0.00  0.00    +0.000 A 
ATOM      2  C   UNL     1       3.198   2.814  20.914  0.00  0.00    +0.000 A 
ATOM      3  N   UNL     1       2.465   3.884  20.518  0.00  0.00    +0.000 NA
ATOM      4  C   UNL     1       2.811   4.558  19.386  0.00  0.00    +0.000 A 
ATOM      5  C   UNL     1       3.897   4.083  18.605  0.00  0.00    +0.000 A 
ATOM      6  C   UNL     1       4.619   2.955  19.020  0.00  0.00    +0.000 A 
ENDROOT
BRANCH   4   7
ATOM      7  N   UNL     1       2.109   5.721  19.106  0.00  0.00    +0.000 N 
ATOM      8  C   UNL     1       2.210   6.432  17.835  0.00  0.00    +0.000 C 
ATOM      9  C   UNL     1       2.835   7.798  18.037  0.00  0.00    +0.000 C 
ATOM     10  C   UNL     1       2.009   8.633  19.011  0.00  0.00    +0.000 C 
ATOM     11  C   UNL     1       1.947   7.859  20.343  0.00  0.00    +0.000 C 
ATOM     12  C   UNL     1       1.412   6.428  20.188  0.00  0.00    +0.000 C 
BRANCH  10  13
ATOM     13  C   UNL     1       0.594   8.960  18.471  0.00  0.00    +0.000 C 
BRANCH  13  14
ATOM     14  C   UNL     1       0.182  10.413  18.578  0.00  0.00    +0.000 A 
ATOM     15  C   UNL     1       1.150  11.420  18.719  0.00  0.00    +0.000 A 
ATOM     16  C   UNL     1       0.778  12.767  18.768  0.00  0.00    +0.000 A 
ATOM     17  C   UNL     1      -0.565  13.120  18.672  0.00  0.00    +0.000 A 
ATOM     18  C   UNL     1      -1.536  12.129  18.541  0.00  0.00    +0.000 A 
ATOM     19  C   UNL     1      -1.165  10.783  18.498  0.00  0.00    +0.000 A 
ENDBRANCH  13  14
ENDBRANCH  10  13
ENDBRANCH   4   7
BRANCH   1  21
ATOM     20  O   UNL     1       5.580   1.200  21.825  0.00  0.00    +0.000 OA
ATOM     21  C   UNL     1       5.107   1.209  20.704  0.00  0.00    +0.000 C 
BRANCH  21  22
ATOM     22  O   UNL     1       5.320   0.212  19.813  0.00  0.00    +0.000 OA
ATOM     23  H   UNL     1       6.252  -0.022  19.638  0.00  0.00    +0.000 HD
ENDBRANCH  21  22
ENDBRANCH   1  21
BRANCH   5  24
ATOM     24  N   UNL     1       4.311   4.720  17.375  0.00  0.00    +0.000 N 
ATOM     25  H   UNL     1       3.678   5.458  17.078  0.00  0.00    +0.000 HD
BRANCH  24  26
ATOM     26  S   UNL     1       5.927   5.189  17.257  0.00  0.00    +0.000 S 
ATOM     27  O   UNL     1       5.956   6.622  17.423  0.00  0.00    +0.000 OA
ATOM     28  O   UNL     1       6.773   4.302  18.024  0.00  0.00    +0.000 OA
BRANCH  26  29
ATOM     29  C   UNL     1       6.264   4.879  15.517  0.00  0.00    +0.000 A 
ATOM     30  C   UNL     1       5.452   4.002  14.781  0.00  0.00    +0.000 A 
ATOM     31  C   UNL     1       5.781   3.697  13.454  0.00  0.00    +0.000 A 
ATOM     32  C   UNL     1       6.902   4.277  12.869  0.00  0.00    +0.000 A 
ATOM     33  F   UNL     1       7.215   3.967  11.604  0.00  0.00    +0.000 F 
ATOM     34  C   UNL     1       7.692   5.162  13.596  0.00  0.00    +0.000 A 
ATOM     35  F   UNL     1       8.774   5.718  13.028  0.00  0.00    +0.000 F 
ATOM     36  C   UNL     1       7.389   5.468  14.920  0.00  0.00    +0.000 A 
ENDBRANCH  26  29
ENDBRANCH  24  26
ENDBRANCH   5  24
TORSDOF 8
ENDMDL
MODEL 5
REMARK VINA RESULT:      -7.0      8.757     12.074
REMARK  Name = 
REMARK  8 active torsions:
REMARK  status: ('A' for Active; 'I' for Inactive)
REMARK    1  A    between atoms: C_2  and  O_3
REMARK    2  A    between atoms: C_2  and  C_4
REMARK    3  A    between atoms: C_7  and  N_8
REMARK    4  A    between atoms: C_11  and  C_12
REMARK    5  A    between atoms: C_12  and  C_13
REMARK    6  A    between atoms: C_21  and  N_22
REMARK    7  A    between atoms: N_22  and  S_23
REMARK    8  A    between atoms: S_23  and  C_26
REMARK                            x       y       z     vdW  Elec       q    Type
REMARK                         _______ _______ _______ _____ _____    ______ ____
ROOT
ATOM      1  C   UNL     1       2.546   3.072  20.711  0.00  0.00    +0.000 A 
ATOM      2  C   UNL     1       3.351   2.171  20.045  0.00  0.00    +0.000 A 
ATOM      3  N   UNL     1       4.334   2.532  19.184  0.00  0.00    +0.000 NA
ATOM      4  C   UNL     1       4.530   3.849  18.896  0.00  0.00    +0.000 A 
ATOM      5  C   UNL     1       3.741   4.825  19.561  0.00  0.00    +0.000 A 
ATOM      6  C   UNL     1       2.754   4.426  20.473  0.00  0.00    +0.000 A 
ENDROOT
BRANCH   4   7
ATOM      7  N   UNL     1       5.456   4.147  17.908  0.00  0.00    +0.000 N 
ATOM      8  C   UNL     1       6.755   4.753  18.184  0.00  0.00    +0.000 C 
ATOM      9  C   UNL     1       6.837   6.138  17.571  0.00  0.00    +0.000 C 
ATOM     10  C   UNL     1       6.627   6.075  16.061  0.00  0.00    +0.000 C 
ATOM     11  C   UNL     1       5.238   5.452  15.815  0.00  0.00    +0.000 C 
ATOM     12  C   UNL     1       5.058   4.086  16.495  0.00  0.00    +0.000 C 
BRANCH  10  13
ATOM     13  C   UNL     1       7.745   5.291  15.330  0.00  0.00    +0.000 C 
BRANCH  13  14
ATOM     14  C   UNL     1       7.405   4.836  13.927  0.00  0.00    +0.000 A 
ATOM     15  C   UNL     1       6.519   3.767  13.720  0.00  0.00    +0.000 A 
ATOM     16  C   UNL     1       6.163   3.374  12.427  0.00  0.00    +0.000 A 
ATOM     17  C   UNL     1       6.686   4.049  11.327  0.00  0.00    +0.000 A 
ATOM     18  C   UNL     1       7.574   5.106  11.520  0.00  0.00    +0.000 A 
ATOM     19  C   UNL     1       7.934   5.495  12.812  0.00  0.00    +0.000 A 
ENDBRANCH  13  14
ENDBRANCH  10  13
ENDBRANCH   4   7
BRANCH   1  21
ATOM     20  O   UNL     1       1.593   2.154  22.668  0.00  0.00    +0.000 OA
ATOM     21  C   UNL     1       1.425   2.650  21.570  0.00  0.00    +0.000 C 
BRANCH  21  22
ATOM     22  O   UNL     1       0.197   2.843  21.034  0.00  0.00    +0.000 OA
ATOM     23  H   UNL     1       0.061   2.509  20.127  0.00  0.00    +0.000 HD
ENDBRANCH  21  22
ENDBRANCH   1  21
BRANCH   5  24
ATOM     24  N   UNL     1       3.905   6.243  19.338  0.00  0.00    +0.000 N 
ATOM     25  H   UNL     1       4.874   6.512  19.188  0.00  0.00    +0.000 HD
BRANCH  24  26
ATOM     26  S   UNL     1       2.868   6.973  18.225  0.00  0.00    +0.000 S 
ATOM     27  O   UNL     1       3.689   7.803  17.377  0.00  0.00    +0.000 OA
ATOM     28  O   UNL     1       1.930   6.009  17.694  0.00  0.00    +0.000 OA
BRANCH  26  29
ATOM     29  C   UNL     1       1.942   8.097  19.281  0.00  0.00    +0.000 A 
ATOM     30  C   UNL     1       1.672   7.758  20.616  0.00  0.00    +0.000 A 
ATOM     31  C   UNL     1       0.871   8.598  21.400  0.00  0.00    +0.000 A 
ATOM     32  C   UNL     1       0.358   9.770  20.853  0.00  0.00    +0.000 A 
ATOM     33  F   UNL     1      -0.420  10.559  21.607  0.00  0.00    +0.000 F 
ATOM     34  C   UNL     1       0.644  10.112  19.536  0.00  0.00    +0.000 A 
ATOM     35  F   UNL     1       0.147  11.244  19.012  0.00  0.00    +0.000 F 
ATOM     36  C   UNL     1       1.429   9.284  18.737  0.00  0.00    +0.000 A 
ENDBRANCH  26  29
ENDBRANCH  24  26
ENDBRANCH   5  24
TORSDOF 8
ENDMDL
MODEL 6
REMARK VINA RESULT:      -7.0      8.850     11.553
REMARK  Name = 
REMARK  8 active torsions:
REMARK  status: ('A' for Active; 'I' for Inactive)
REMARK    1  A    between atoms: C_2  and  O_3
REMARK    2  A    between atoms: C_2  and  C_4
REMARK    3  A    between atoms: C_7  and  N_8
REMARK    4  A    between atoms: C_11  and  C_12
REMARK    5  A    between atoms: C_12  and  C_13
REMARK    6  A    between atoms: C_21  and  N_22
REMARK    7  A    between atoms: N_22  and  S_23
REMARK    8  A    between atoms: S_23  and  C_26
REMARK                            x       y       z     vdW  Elec       q    Type
REMARK                         _______ _______ _______ _____ _____    ______ ____
ROOT
ATOM      1  C   UNL     1       3.266   3.644  19.141  0.00  0.00    +0.000 A 
ATOM      2  C   UNL     1       2.300   4.234  19.929  0.00  0.00    +0.000 A 
ATOM      3  N   UNL     1       1.983   5.551  19.874  0.00  0.00    +0.000 NA
ATOM      4  C   UNL     1       2.674   6.378  19.040  0.00  0.00    +0.000 A 
ATOM      5  C   UNL     1       3.671   5.827  18.193  0.00  0.00    +0.000 A 
ATOM      6  C   UNL     1       3.956   4.455  18.246  0.00  0.00    +0.000 A 
ENDROOT
BRANCH   4   7
ATOM      7  N   UNL     1       2.398   7.734  19.127  0.00  0.00    +0.000 N 
ATOM      8  C   UNL     1       1.942   8.382  20.353  0.00  0.00    +0.000 C 
ATOM      9  C   UNL     1       0.531   8.911  20.183  0.00  0.00    +0.000 C 
ATOM     10  C   UNL     1       0.465   9.914  19.035  0.00  0.00    +0.000 C 
ATOM     11  C   UNL     1       0.931   9.185  17.758  0.00  0.00    +0.000 C 
ATOM     12  C   UNL     1       2.318   8.540  17.902  0.00  0.00    +0.000 C 
BRANCH  10  13
ATOM     13  C   UNL     1       1.299  11.191  19.303  0.00  0.00    +0.000 C 
BRANCH  13  14
ATOM     14  C   UNL     1       0.494  12.450  19.545  0.00  0.00    +0.000 A 
ATOM     15  C   UNL     1       0.718  13.600  18.771  0.00  0.00    +0.000 A 
ATOM     16  C   UNL     1      -0.055  14.749  18.957  0.00  0.00    +0.000 A 
ATOM     17  C   UNL     1      -1.065  14.759  19.916  0.00  0.00    +0.000 A 
ATOM     18  C   UNL     1      -1.291  13.628  20.697  0.00  0.00    +0.000 A 
ATOM     19  C   UNL     1      -0.514  12.481  20.515  0.00  0.00    +0.000 A 
ENDBRANCH  13  14
ENDBRANCH  10  13
ENDBRANCH   4   7
BRANCH   1  21
ATOM     20  O   UNL     1       2.975   1.317  18.857  0.00  0.00    +0.000 OA
ATOM     21  C   UNL     1       3.654   2.230  19.286  0.00  0.00    +0.000 C 
BRANCH  21  22
ATOM     22  O   UNL     1       4.817   2.027  19.949  0.00  0.00    +0.000 OA
ATOM     23  H   UNL     1       4.819   1.312  20.613  0.00  0.00    +0.000 HD
ENDBRANCH  21  22
ENDBRANCH   1  21
BRANCH   5  24
ATOM     24  N   UNL     1       4.429   6.626  17.258  0.00  0.00    +0.000 N 
ATOM     25  H   UNL     1       4.220   7.619  17.325  0.00  0.00    +0.000 HD
BRANCH  24  26
ATOM     26  S   UNL     1       6.087   6.335  17.162  0.00  0.00    +0.000 S 
ATOM     27  O   UNL     1       6.722   7.613  16.951  0.00  0.00    +0.000 OA
ATOM     28  O   UNL     1       6.506   5.423  18.204  0.00  0.00    +0.000 OA
BRANCH  26  29
ATOM     29  C   UNL     1       6.207   5.452  15.599  0.00  0.00    +0.000 A 
ATOM     30  C   UNL     1       5.311   4.414  15.298  0.00  0.00    +0.000 A 
ATOM     31  C   UNL     1       5.473   3.674  14.120  0.00  0.00    +0.000 A 
ATOM     32  C   UNL     1       6.513   3.981  13.249  0.00  0.00    +0.000 A 
ATOM     33  F   UNL     1       6.668   3.257  12.132  0.00  0.00    +0.000 F 
ATOM     34  C   UNL     1       7.386   5.024  13.540  0.00  0.00    +0.000 A 
ATOM     35  F   UNL     1       8.389   5.316  12.697  0.00  0.00    +0.000 F 
ATOM     36  C   UNL     1       7.249   5.764  14.713  0.00  0.00    +0.000 A 
ENDBRANCH  26  29
ENDBRANCH  24  26
ENDBRANCH   5  24
TORSDOF 8
ENDMDL
MODEL 7
REMARK VINA RESULT:      -7.0      8.618     11.289
REMARK  Name = 
REMARK  8 active torsions:
REMARK  status: ('A' for Active; 'I' for Inactive)
REMARK    1  A    between atoms: C_2  and  O_3
REMARK    2  A    between atoms: C_2  and  C_4
REMARK    3  A    between atoms: C_7  and  N_8
REMARK    4  A    between atoms: C_11  and  C_12
REMARK    5  A    between atoms: C_12  and  C_13
REMARK    6  A    between atoms: C_21  and  N_22
REMARK    7  A    between atoms: N_22  and  S_23
REMARK    8  A    between atoms: S_23  and  C_26
REMARK                            x       y       z     vdW  Elec       q    Type
REMARK                         _______ _______ _______ _____ _____    ______ ____
ROOT
ATOM      1  C   UNL     1       2.834   4.065  20.177  0.00  0.00    +0.000 A 
ATOM      2  C   UNL     1       1.874   4.816  20.823  0.00  0.00    +0.000 A 
ATOM      3  N   UNL     1       1.609   6.113  20.530  0.00  0.00    +0.000 NA
ATOM      4  C   UNL     1       2.350   6.756  19.585  0.00  0.00    +0.000 A 
ATOM      5  C   UNL     1       3.343   6.032  18.875  0.00  0.00    +0.000 A 
ATOM      6  C   UNL     1       3.575   4.682  19.175  0.00  0.00    +0.000 A 
ENDROOT
BRANCH   4   7
ATOM      7  N   UNL     1       2.123   8.115  19.426  0.00  0.00    +0.000 N 
ATOM      8  C   UNL     1       1.649   8.980  20.502  0.00  0.00    +0.000 C 
ATOM      9  C   UNL     1       0.267   9.517  20.185  0.00  0.00    +0.000 C 
ATOM     10  C   UNL     1       0.281  10.308  18.880  0.00  0.00    +0.000 C 
ATOM     11  C   UNL     1       0.763   9.354  17.768  0.00  0.00    +0.000 C 
ATOM     12  C   UNL     1       2.118   8.700  18.078  0.00  0.00    +0.000 C 
BRANCH  10  13
ATOM     13  C   UNL     1       1.154  11.585  18.960  0.00  0.00    +0.000 C 
BRANCH  13  14
ATOM     14  C   UNL     1       0.563  12.722  19.765  0.00  0.00    +0.000 A 
ATOM     15  C   UNL     1       1.196  13.171  20.935  0.00  0.00    +0.000 A 
ATOM     16  C   UNL     1       0.683  14.253  21.655  0.00  0.00    +0.000 A 
ATOM     17  C   UNL     1      -0.467  14.901  21.211  0.00  0.00    +0.000 A 
ATOM     18  C   UNL     1      -1.110  14.458  20.057  0.00  0.00    +0.000 A 
ATOM     19  C   UNL     1      -0.600  13.374  19.339  0.00  0.00    +0.000 A 
ENDBRANCH  13  14
ENDBRANCH  10  13
ENDBRANCH   4   7
BRANCH   1  21
ATOM     20  O   UNL     1       3.616   1.867  19.799  0.00  0.00    +0.000 OA
ATOM     21  C   UNL     1       3.165   2.686  20.578  0.00  0.00    +0.000 C 
BRANCH  21  22
ATOM     22  O   UNL     1       2.913   2.398  21.877  0.00  0.00    +0.000 OA
ATOM     23  H   UNL     1       2.057   1.970  22.068  0.00  0.00    +0.000 HD
ENDBRANCH  21  22
ENDBRANCH   1  21
BRANCH   5  24
ATOM     24  N   UNL     1       4.151   6.629  17.837  0.00  0.00    +0.000 N 
ATOM     25  H   UNL     1       3.998   7.630  17.741  0.00  0.00    +0.000 HD
BRANCH  24  26
ATOM     26  S   UNL     1       5.792   6.238  17.816  0.00  0.00    +0.000 S 
ATOM     27  O   UNL     1       6.512   7.478  17.657  0.00  0.00    +0.000 OA
ATOM     28  O   UNL     1       6.103   5.289  18.863  0.00  0.00    +0.000 OA
BRANCH  26  29
ATOM     29  C   UNL     1       5.934   5.370  16.247  0.00  0.00    +0.000 A 
ATOM     30  C   UNL     1       5.077   4.301  15.946  0.00  0.00    +0.000 A 
ATOM     31  C   UNL     1       5.258   3.574  14.762  0.00  0.00    +0.000 A 
ATOM     32  C   UNL     1       6.280   3.926  13.886  0.00  0.00    +0.000 A 
ATOM     33  F   UNL     1       6.455   3.215  12.764  0.00  0.00    +0.000 F 
ATOM     34  C   UNL     1       7.116   4.999  14.179  0.00  0.00    +0.000 A 
ATOM     35  F   UNL     1       8.101   5.334  13.331  0.00  0.00    +0.000 F 
ATOM     36  C   UNL     1       6.958   5.726  15.356  0.00  0.00    +0.000 A 
ENDBRANCH  26  29
ENDBRANCH  24  26
ENDBRANCH   5  24
TORSDOF 8
ENDMDL
MODEL 8
REMARK VINA RESULT:      -7.0      9.182     12.556
REMARK  Name = 
REMARK  8 active torsions:
REMARK  status: ('A' for Active; 'I' for Inactive)
REMARK    1  A    between atoms: C_2  and  O_3
REMARK    2  A    between atoms: C_2  and  C_4
REMARK    3  A    between atoms: C_7  and  N_8
REMARK    4  A    between atoms: C_11  and  C_12
REMARK    5  A    between atoms: C_12  and  C_13
REMARK    6  A    between atoms: C_21  and  N_22
REMARK    7  A    between atoms: N_22  and  S_23
REMARK    8  A    between atoms: S_23  and  C_26
REMARK                            x       y       z     vdW  Elec       q    Type
REMARK                         _______ _______ _______ _____ _____    ______ ____
ROOT
ATOM      1  C   UNL     1       1.211   9.120  19.186  0.00  0.00    +0.000 A 
ATOM      2  C   UNL     1       1.721   9.176  17.906  0.00  0.00    +0.000 A 
ATOM      3  N   UNL     1       2.610   8.281  17.409  0.00  0.00    +0.000 NA
ATOM      4  C   UNL     1       3.088   7.288  18.210  0.00  0.00    +0.000 A 
ATOM      5  C   UNL     1       2.590   7.170  19.534  0.00  0.00    +0.000 A 
ATOM      6  C   UNL     1       1.645   8.089  20.012  0.00  0.00    +0.000 A 
ENDROOT
BRANCH   4   7
ATOM      7  N   UNL     1       4.094   6.488  17.689  0.00  0.00    +0.000 N 
ATOM      8  C   UNL     1       5.008   5.709  18.519  0.00  0.00    +0.000 C 
ATOM      9  C   UNL     1       6.428   6.222  18.374  0.00  0.00    +0.000 C 
ATOM     10  C   UNL     1       6.885   6.145  16.920  0.00  0.00    +0.000 C 
ATOM     11  C   UNL     1       5.909   6.998  16.084  0.00  0.00    +0.000 C 
ATOM     12  C   UNL     1       4.440   6.588  16.265  0.00  0.00    +0.000 C 
BRANCH  10  13
ATOM     13  C   UNL     1       6.972   4.691  16.394  0.00  0.00    +0.000 C 
BRANCH  13  14
ATOM     14  C   UNL     1       6.903   4.543  14.889  0.00  0.00    +0.000 A 
ATOM     15  C   UNL     1       7.839   5.189  14.065  0.00  0.00    +0.000 A 
ATOM     16  C   UNL     1       7.811   5.016  12.679  0.00  0.00    +0.000 A 
ATOM     17  C   UNL     1       6.849   4.191  12.101  0.00  0.00    +0.000 A 
ATOM     18  C   UNL     1       5.909   3.552  12.907  0.00  0.00    +0.000 A 
ATOM     19  C   UNL     1       5.934   3.729  14.292  0.00  0.00    +0.000 A 
ENDBRANCH  13  14
ENDBRANCH  10  13
ENDBRANCH   4   7
BRANCH   1  21
ATOM     20  O   UNL     1       0.275  11.287  19.281  0.00  0.00    +0.000 OA
ATOM     21  C   UNL     1       0.317  10.158  19.730  0.00  0.00    +0.000 C 
BRANCH  21  22
ATOM     22  O   UNL     1      -0.441   9.759  20.778  0.00  0.00    +0.000 OA
ATOM     23  H   UNL     1      -1.209   9.194  20.569  0.00  0.00    +0.000 HD
ENDBRANCH  21  22
ENDBRANCH   1  21
BRANCH   5  24
ATOM     24  N   UNL     1       3.019   6.128  20.439  0.00  0.00    +0.000 N 
ATOM     25  H   UNL     1       3.379   6.490  21.318  0.00  0.00    +0.000 HD
BRANCH  24  26
ATOM     26  S   UNL     1       1.967   4.831  20.674  0.00  0.00    +0.000 S 
ATOM     27  O   UNL     1       2.156   4.385  22.034  0.00  0.00    +0.000 OA
ATOM     28  O   UNL     1       0.660   5.129  20.131  0.00  0.00    +0.000 OA
BRANCH  26  29
ATOM     29  C   UNL     1       2.709   3.572  19.626  0.00  0.00    +0.000 A 
ATOM     30  C   UNL     1       2.264   3.392  18.307  0.00  0.00    +0.000 A 
ATOM     31  C   UNL     1       2.785   2.348  17.532  0.00  0.00    +0.000 A 
ATOM     32  C   UNL     1       3.750   1.503  18.070  0.00  0.00    +0.000 A 
ATOM     33  F   UNL     1       4.231   0.498  17.326  0.00  0.00    +0.000 F 
ATOM     34  C   UNL     1       4.203   1.697  19.372  0.00  0.00    +0.000 A 
ATOM     35  F   UNL     1       5.133   0.878  19.888  0.00  0.00    +0.000 F 
ATOM     36  C   UNL     1       3.688   2.722  20.162  0.00  0.00    +0.000 A 
ENDBRANCH  26  29
ENDBRANCH  24  26
ENDBRANCH   5  24
TORSDOF 8
ENDMDL
MODEL 9
REMARK VINA RESULT:      -6.9      4.742      7.063
REMARK  Name = 
REMARK  8 active torsions:
REMARK  status: ('A' for Active; 'I' for Inactive)
REMARK    1  A    between atoms: C_2  and  O_3
REMARK    2  A    between atoms: C_2  and  C_4
REMARK    3  A    between atoms: C_7  and  N_8
REMARK    4  A    between atoms: C_11  and  C_12
REMARK    5  A    between atoms: C_12  and  C_13
REMARK    6  A    between atoms: C_21  and  N_22
REMARK    7  A    between atoms: N_22  and  S_23
REMARK    8  A    between atoms: S_23  and  C_26
REMARK                            x       y       z     vdW  Elec       q    Type
REMARK                         _______ _______ _______ _____ _____    ______ ____
ROOT
ATOM      1  C   UNL     1       0.778  13.729  19.071  0.00  0.00    +0.000 A 
ATOM      2  C   UNL     1       1.933  13.033  18.777  0.00  0.00    +0.000 A 
ATOM      3  N   UNL     1       1.976  11.691  18.584  0.00  0.00    +0.000 NA
ATOM      4  C   UNL     1       0.842  10.951  18.734  0.00  0.00    +0.000 A 
ATOM      5  C   UNL     1      -0.381  11.612  19.023  0.00  0.00    +0.000 A 
ATOM      6  C   UNL     1      -0.404  13.004  19.183  0.00  0.00    +0.000 A 
ENDROOT
BRANCH   4   7
ATOM      7  N   UNL     1       0.976   9.573  18.659  0.00  0.00    +0.000 N 
ATOM      8  C   UNL     1       0.710   8.680  19.783  0.00  0.00    +0.000 C 
ATOM      9  C   UNL     1       1.984   7.986  20.225  0.00  0.00    +0.000 C 
ATOM     10  C   UNL     1       2.586   7.179  19.078  0.00  0.00    +0.000 C 
ATOM     11  C   UNL     1       2.872   8.161  17.924  0.00  0.00    +0.000 C 
ATOM     12  C   UNL     1       1.637   8.968  17.495  0.00  0.00    +0.000 C 
BRANCH  10  13
ATOM     13  C   UNL     1       1.678   6.009  18.624  0.00  0.00    +0.000 C 
BRANCH  13  14
ATOM     14  C   UNL     1       1.736   4.771  19.494  0.00  0.00    +0.000 A 
ATOM     15  C   UNL     1       2.206   4.849  20.814  0.00  0.00    +0.000 A 
ATOM     16  C   UNL     1       2.215   3.719  21.637  0.00  0.00    +0.000 A 
ATOM     17  C   UNL     1       1.749   2.501  21.149  0.00  0.00    +0.000 A 
ATOM     18  C   UNL     1       1.290   2.409  19.837  0.00  0.00    +0.000 A 
ATOM     19  C   UNL     1       1.286   3.536  19.013  0.00  0.00    +0.000 A 
ENDBRANCH  13  14
ENDBRANCH  10  13
ENDBRANCH   4   7
BRANCH   1  21
ATOM     20  O   UNL     1       1.128  16.007  18.554  0.00  0.00    +0.000 OA
ATOM     21  C   UNL     1       0.775  15.172  19.366  0.00  0.00    +0.000 C 
BRANCH  21  22
ATOM     22  O   UNL     1       0.365  15.495  20.615  0.00  0.00    +0.000 OA
ATOM     23  H   UNL     1      -0.422  16.069  20.679  0.00  0.00    +0.000 HD
ENDBRANCH  21  22
ENDBRANCH   1  21
BRANCH   5  24
ATOM     24  N   UNL     1      -1.634  10.907  19.166  0.00  0.00    +0.000 N 
ATOM     25  H   UNL     1      -2.172  11.215  19.973  0.00  0.00    +0.000 HD
BRANCH  24  26
ATOM     26  S   UNL     1      -2.594  10.753  17.788  0.00  0.00    +0.000 S 
ATOM     27  O   UNL     1      -2.039  11.640  16.794  0.00  0.00    +0.000 OA
ATOM     28  O   UNL     1      -2.874   9.360  17.515  0.00  0.00    +0.000 OA
BRANCH  26  29
ATOM     29  C   UNL     1      -4.130  11.512  18.335  0.00  0.00    +0.000 A 
ATOM     30  C   UNL     1      -5.299  11.385  17.567  0.00  0.00    +0.000 A 
ATOM     31  C   UNL     1      -6.464  12.057  17.956  0.00  0.00    +0.000 A 
ATOM     32  C   UNL     1      -6.460  12.837  19.108  0.00  0.00    +0.000 A 
ATOM     33  F   UNL     1      -7.575  13.489  19.462  0.00  0.00    +0.000 F 
ATOM     34  C   UNL     1      -5.305  12.945  19.877  0.00  0.00    +0.000 A 
ATOM     35  F   UNL     1      -5.305  13.700  20.986  0.00  0.00    +0.000 F 
ATOM     36  C   UNL     1      -4.133  12.293  19.500  0.00  0.00    +0.000 A 
ENDBRANCH  26  29
ENDBRANCH  24  26
ENDBRANCH   5  24
TORSDOF 8
ENDMDL
