MODEL 1
REMARK VINA RESULT:      -8.7      0.000      0.000
REMARK  Name = 
REMARK  9 active torsions:
REMARK  status: ('A' for Active; 'I' for Inactive)
REMARK    1  A    between atoms: C_1  and  N_2
REMARK    2  A    between atoms: N_5  and  C_6
REMARK    3  A    between atoms: C_9  and  C_10
REMARK    4  A    between atoms: C_10  and  C_11
REMARK    5  A    between atoms: C_11  and  N_12
REMARK    6  A    between atoms: C_13  and  C_15
REMARK    7  A    between atoms: C_18  and  C_19
REMARK    8  A    between atoms: C_22  and  N_23
REMARK    9  A    between atoms: N_23  and  C_24
REMARK                            x       y       z     vdW  Elec       q    Type
REMARK                         _______ _______ _______ _____ _____    ______ ____
ROOT
ATOM      1  N   UNL     1       2.083   6.822  20.557  0.00  0.00    +0.000 N 
ATOM      2  C   UNL     1       2.431   7.098  19.227  0.00  0.00    +0.000 C 
ATOM      3  O   UNL     1       1.982   8.102  18.716  0.00  0.00    +0.000 OA
ATOM      4  H   UNL     1       2.609   6.148  21.075  0.00  0.00    +0.000 HD
ENDROOT
BRANCH   2   5
ATOM      5  C   UNL     1       3.469   6.309  18.446  0.00  0.00    +0.000 A 
ATOM      6  C   UNL     1       3.954   7.097  17.372  0.00  0.00    +0.000 A 
ATOM      7  N   UNL     1       4.944   6.801  16.509  0.00  0.00    +0.000 NA
ATOM      8  C   UNL     1       5.524   5.615  16.723  0.00  0.00    +0.000 A 
ATOM      9  N   UNL     1       5.160   4.773  17.711  0.00  0.00    +0.000 NA
ATOM     10  C   UNL     1       4.144   5.104  18.584  0.00  0.00    +0.000 A 
BRANCH   8  11
ATOM     11  C   UNL     1       6.670   5.277  15.922  0.00  0.00    +0.000 C 
ATOM     12  N   UNL     1       7.618   5.058  15.233  0.00  0.00    +0.000 NA
ENDBRANCH   8  11
BRANCH  10  13
ATOM     13  N   UNL     1       4.126   4.133  19.532  0.00  0.00    +0.000 N 
ATOM     14  H   UNL     1       4.798   4.470  20.228  0.00  0.00    +0.000 HD
BRANCH  13  15
ATOM     15  C   UNL     1       3.608   2.819  19.922  0.00  0.00    +0.000 C 
ATOM     16  C   UNL     1       2.354   2.810  20.790  0.00  0.00    +0.000 C 
ATOM     17  C   UNL     1       1.172   3.472  20.112  0.00  0.00    +0.000 C 
ATOM     18  C   UNL     1       0.921   2.852  18.737  0.00  0.00    +0.000 C 
ATOM     19  C   UNL     1       2.163   2.553  17.861  0.00  0.00    +0.000 C 
ATOM     20  C   UNL     1       3.329   1.965  18.654  0.00  0.00    +0.000 C 
ENDBRANCH  13  15
ENDBRANCH  10  13
ENDBRANCH   2   5
BRANCH   1  21
ATOM     21  C   UNL     1       0.971   7.599  21.210  0.00  0.00    +0.000 C 
BRANCH  21  22
ATOM     22  C   UNL     1       1.328   8.894  21.966  0.00  0.00    +0.000 C 
BRANCH  22  26
ATOM     23  C   UNL     1      -1.808  12.007  22.208  0.00  0.00    +0.000 A 
ATOM     24  C   UNL     1      -1.582  11.054  23.204  0.00  0.00    +0.000 A 
ATOM     25  C   UNL     1      -0.560  10.096  23.097  0.00  0.00    +0.000 A 
ATOM     26  C   UNL     1       0.271  10.011  21.974  0.00  0.00    +0.000 A 
ATOM     27  C   UNL     1       0.084  10.988  20.982  0.00  0.00    +0.000 A 
ATOM     28  C   UNL     1      -0.960  11.952  21.097  0.00  0.00    +0.000 A 
BRANCH  23  33
ATOM     29  C   UNL     1      -4.864  16.445  23.650  0.00  0.00    +0.000 C 
ATOM     30  N   UNL     1      -4.495  15.234  22.925  0.00  0.00    +0.000 NA
ATOM     31  C   UNL     1      -4.349  14.088  23.852  0.00  0.00    +0.000 C 
ATOM     32  C   UNL     1      -3.978  12.780  23.113  0.00  0.00    +0.000 C 
ATOM     33  N   UNL     1      -2.761  12.998  22.326  0.00  0.00    +0.000 N 
ATOM     34  C   UNL     1      -2.803  14.148  21.414  0.00  0.00    +0.000 C 
ATOM     35  C   UNL     1      -3.217  15.419  22.196  0.00  0.00    +0.000 C 
ENDBRANCH  23  33
ENDBRANCH  22  26
ENDBRANCH  21  22
ENDBRANCH   1  21
TORSDOF 8
ENDMDL
MODEL 2
REMARK VINA RESULT:      -8.5      0.804      1.508
REMARK  Name = 
REMARK  9 active torsions:
REMARK  status: ('A' for Active; 'I' for Inactive)
REMARK    1  A    between atoms: C_1  and  N_2
REMARK    2  A    between atoms: N_5  and  C_6
REMARK    3  A    between atoms: C_9  and  C_10
REMARK    4  A    between atoms: C_10  and  C_11
REMARK    5  A    between atoms: C_11  and  N_12
REMARK    6  A    between atoms: C_13  and  C_15
REMARK    7  A    between atoms: C_18  and  C_19
REMARK    8  A    between atoms: C_22  and  N_23
REMARK    9  A    between atoms: N_23  and  C_24
REMARK                            x       y       z     vdW  Elec       q    Type
REMARK                         _______ _______ _______ _____ _____    ______ ____
ROOT
ATOM      1  N   UNL     1       2.057   6.676  20.347  0.00  0.00    +0.000 N 
ATOM      2  C   UNL     1       2.331   7.075  19.031  0.00  0.00    +0.000 C 
ATOM      3  O   UNL     1       1.912   8.153  18.663  0.00  0.00    +0.000 OA
ATOM      4  H   UNL     1       2.574   5.921  20.750  0.00  0.00    +0.000 HD
ENDROOT
BRANCH   2   5
ATOM      5  C   UNL     1       3.261   6.320  18.096  0.00  0.00    +0.000 A 
ATOM      6  C   UNL     1       4.420   7.097  17.850  0.00  0.00    +0.000 A 
ATOM      7  N   UNL     1       5.520   6.748  17.156  0.00  0.00    +0.000 NA
ATOM      8  C   UNL     1       5.485   5.507  16.658  0.00  0.00    +0.000 A 
ATOM      9  N   UNL     1       4.445   4.665  16.824  0.00  0.00    +0.000 NA
ATOM     10  C   UNL     1       3.332   5.049  17.544  0.00  0.00    +0.000 A 
BRANCH   8  11
ATOM     11  C   UNL     1       6.670   5.014  16.009  0.00  0.00    +0.000 C 
ATOM     12  N   UNL     1       7.680   4.663  15.483  0.00  0.00    +0.000 NA
ENDBRANCH   8  11
BRANCH  10  13
ATOM     13  N   UNL     1       2.548   3.945  17.648  0.00  0.00    +0.000 N 
ATOM     14  H   UNL     1       1.658   4.250  17.244  0.00  0.00    +0.000 HD
BRANCH  13  15
ATOM     15  C   UNL     1       2.438   2.570  18.141  0.00  0.00    +0.000 C 
ATOM     16  C   UNL     1       3.451   2.139  19.196  0.00  0.00    +0.000 C 
ATOM     17  C   UNL     1       3.371   2.977  20.456  0.00  0.00    +0.000 C 
ATOM     18  C   UNL     1       1.944   2.991  21.005  0.00  0.00    +0.000 C 
ATOM     19  C   UNL     1       0.795   3.147  19.978  0.00  0.00    +0.000 C 
ATOM     20  C   UNL     1       1.011   2.327  18.708  0.00  0.00    +0.000 C 
ENDBRANCH  13  15
ENDBRANCH  10  13
ENDBRANCH   2   5
BRANCH   1  21
ATOM     21  C   UNL     1       1.044   7.438  21.158  0.00  0.00    +0.000 C 
BRANCH  21  22
ATOM     22  C   UNL     1       1.479   8.762  21.817  0.00  0.00    +0.000 C 
BRANCH  22  26
ATOM     23  C   UNL     1      -1.581  11.942  22.160  0.00  0.00    +0.000 A 
ATOM     24  C   UNL     1      -0.784  11.751  21.029  0.00  0.00    +0.000 A 
ATOM     25  C   UNL     1       0.161  10.714  20.953  0.00  0.00    +0.000 A 
ATOM     26  C   UNL     1       0.391   9.832  22.015  0.00  0.00    +0.000 A 
ATOM     27  C   UNL     1      -0.431   9.984  23.143  0.00  0.00    +0.000 A 
ATOM     28  C   UNL     1      -1.383  11.043  23.214  0.00  0.00    +0.000 A 
BRANCH  23  33
ATOM     29  C   UNL     1      -5.651  15.438  23.683  0.00  0.00    +0.000 C 
ATOM     30  N   UNL     1      -4.674  14.798  22.809  0.00  0.00    +0.000 NA
ATOM     31  C   UNL     1      -4.931  13.342  22.708  0.00  0.00    +0.000 C 
ATOM     32  C   UNL     1      -3.925  12.633  21.770  0.00  0.00    +0.000 C 
ATOM     33  N   UNL     1      -2.561  12.911  22.227  0.00  0.00    +0.000 N 
ATOM     34  C   UNL     1      -2.236  14.332  22.403  0.00  0.00    +0.000 C 
ATOM     35  C   UNL     1      -3.295  15.000  23.314  0.00  0.00    +0.000 C 
ENDBRANCH  23  33
ENDBRANCH  22  26
ENDBRANCH  21  22
ENDBRANCH   1  21
TORSDOF 8
ENDMDL
MODEL 3
REMARK VINA RESULT:      -8.4      0.869      1.508
REMARK  Name = 
REMARK  9 active torsions:
REMARK  status: ('A' for Active; 'I' for Inactive)
REMARK    1  A    between atoms: C_1  and  N_2
REMARK    2  A    between atoms: N_5  and  C_6
REMARK    3  A    between atoms: C_9  and  C_10
REMARK    4  A    between atoms: C_10  and  C_11
REMARK    5  A    between atoms: C_11  and  N_12
REMARK    6  A    between atoms: C_13  and  C_15
REMARK    7  A    between atoms: C_18  and  C_19
REMARK    8  A    between atoms: C_22  and  N_23
REMARK    9  A    between atoms: N_23  and  C_24
REMARK                            x       y       z     vdW  Elec       q    Type
REMARK                         _______ _______ _______ _____ _____    ______ ____
ROOT
ATOM      1  N   UNL     1       2.121   6.639  20.272  0.00  0.00    +0.000 N 
ATOM      2  C   UNL     1       2.355   7.043  18.950  0.00  0.00    +0.000 C 
ATOM      3  O   UNL     1       1.899   8.108  18.590  0.00  0.00    +0.000 OA
ATOM      4  H   UNL     1       2.668   5.899  20.665  0.00  0.00    +0.000 HD
ENDROOT
BRANCH   2   5
ATOM      5  C   UNL     1       3.285   6.313  17.996  0.00  0.00    +0.000 A 
ATOM      6  C   UNL     1       4.395   7.139  17.689  0.00  0.00    +0.000 A 
ATOM      7  N   UNL     1       5.484   6.827  16.960  0.00  0.00    +0.000 NA
ATOM      8  C   UNL     1       5.490   5.575  16.490  0.00  0.00    +0.000 A 
ATOM      9  N   UNL     1       4.500   4.688  16.714  0.00  0.00    +0.000 NA
ATOM     10  C   UNL     1       3.397   5.034  17.468  0.00  0.00    +0.000 A 
BRANCH   8  11
ATOM     11  C   UNL     1       6.673   5.124  15.806  0.00  0.00    +0.000 C 
ATOM     12  N   UNL     1       7.649   4.805  15.200  0.00  0.00    +0.000 NA
ENDBRANCH   8  11
BRANCH  10  13
ATOM     13  N   UNL     1       2.674   3.897  17.626  0.00  0.00    +0.000 N 
ATOM     14  H   UNL     1       1.773   4.130  17.199  0.00  0.00    +0.000 HD
BRANCH  13  15
ATOM     15  C   UNL     1       2.632   2.546  18.191  0.00  0.00    +0.000 C 
ATOM     16  C   UNL     1       3.576   2.263  19.355  0.00  0.00    +0.000 C 
ATOM     17  C   UNL     1       3.312   3.158  20.549  0.00  0.00    +0.000 C 
ATOM     18  C   UNL     1       1.845   3.077  20.970  0.00  0.00    +0.000 C 
ATOM     19  C   UNL     1       0.786   3.075  19.840  0.00  0.00    +0.000 C 
ATOM     20  C   UNL     1       1.184   2.210  18.646  0.00  0.00    +0.000 C 
ENDBRANCH  13  15
ENDBRANCH  10  13
ENDBRANCH   2   5
BRANCH   1  21
ATOM     21  C   UNL     1       1.106   7.374  21.105  0.00  0.00    +0.000 C 
BRANCH  21  22
ATOM     22  C   UNL     1       1.530   8.691  21.785  0.00  0.00    +0.000 C 
BRANCH  22  26
ATOM     23  C   UNL     1      -1.565  11.830  22.176  0.00  0.00    +0.000 A 
ATOM     24  C   UNL     1      -1.282  10.890  23.171  0.00  0.00    +0.000 A 
ATOM     25  C   UNL     1      -0.275   9.923  23.014  0.00  0.00    +0.000 A 
ATOM     26  C   UNL     1       0.482   9.814  21.842  0.00  0.00    +0.000 A 
ATOM     27  C   UNL     1       0.239  10.778  20.850  0.00  0.00    +0.000 A 
ATOM     28  C   UNL     1      -0.789  11.751  21.014  0.00  0.00    +0.000 A 
BRANCH  23  33
ATOM     29  C   UNL     1      -5.848  15.372  21.707  0.00  0.00    +0.000 C 
ATOM     30  N   UNL     1      -4.649  14.767  22.276  0.00  0.00    +0.000 NA
ATOM     31  C   UNL     1      -3.526  14.811  21.311  0.00  0.00    +0.000 C 
ATOM     32  C   UNL     1      -2.230  14.196  21.890  0.00  0.00    +0.000 C 
ATOM     33  N   UNL     1      -2.503  12.828  22.339  0.00  0.00    +0.000 N 
ATOM     34  C   UNL     1      -3.636  12.686  23.262  0.00  0.00    +0.000 C 
ATOM     35  C   UNL     1      -4.893  13.353  22.652  0.00  0.00    +0.000 C 
ENDBRANCH  23  33
ENDBRANCH  22  26
ENDBRANCH  21  22
ENDBRANCH   1  21
TORSDOF 8
ENDMDL
MODEL 4
REMARK VINA RESULT:      -8.4      0.687      1.086
REMARK  Name = 
REMARK  9 active torsions:
REMARK  status: ('A' for Active; 'I' for Inactive)
REMARK    1  A    between atoms: C_1  and  N_2
REMARK    2  A    between atoms: N_5  and  C_6
REMARK    3  A    between atoms: C_9  and  C_10
REMARK    4  A    between atoms: C_10  and  C_11
REMARK    5  A    between atoms: C_11  and  N_12
REMARK    6  A    between atoms: C_13  and  C_15
REMARK    7  A    between atoms: C_18  and  C_19
REMARK    8  A    between atoms: C_22  and  N_23
REMARK    9  A    between atoms: N_23  and  C_24
REMARK                            x       y       z     vdW  Elec       q    Type
REMARK                         _______ _______ _______ _____ _____    ______ ____
ROOT
ATOM      1  N   UNL     1       2.102   7.437  20.268  0.00  0.00    +0.000 N 
ATOM      2  C   UNL     1       2.356   7.320  18.895  0.00  0.00    +0.000 C 
ATOM      3  O   UNL     1       1.793   8.088  18.143  0.00  0.00    +0.000 OA
ATOM      4  H   UNL     1       2.712   6.989  20.922  0.00  0.00    +0.000 HD
ENDROOT
BRANCH   2   5
ATOM      5  C   UNL     1       3.418   6.406  18.308  0.00  0.00    +0.000 A 
ATOM      6  C   UNL     1       4.019   7.033  17.188  0.00  0.00    +0.000 A 
ATOM      7  N   UNL     1       5.060   6.598  16.454  0.00  0.00    +0.000 NA
ATOM      8  C   UNL     1       5.572   5.432  16.863  0.00  0.00    +0.000 A 
ATOM      9  N   UNL     1       5.097   4.736  17.915  0.00  0.00    +0.000 NA
ATOM     10  C   UNL     1       4.031   5.208  18.653  0.00  0.00    +0.000 A 
BRANCH   8  11
ATOM     11  C   UNL     1       6.762   4.958  16.208  0.00  0.00    +0.000 C 
ATOM     12  N   UNL     1       7.728   4.596  15.611  0.00  0.00    +0.000 NA
ENDBRANCH   8  11
BRANCH  10  13
ATOM     13  N   UNL     1       3.898   4.368  19.710  0.00  0.00    +0.000 N 
ATOM     14  H   UNL     1       4.338   4.884  20.477  0.00  0.00    +0.000 HD
BRANCH  13  15
ATOM     15  C   UNL     1       3.458   3.049  20.172  0.00  0.00    +0.000 C 
ATOM     16  C   UNL     1       2.263   3.021  21.120  0.00  0.00    +0.000 C 
ATOM     17  C   UNL     1       1.015   3.616  20.500  0.00  0.00    +0.000 C 
ATOM     18  C   UNL     1       0.702   2.943  19.164  0.00  0.00    +0.000 C 
ATOM     19  C   UNL     1       1.895   2.663  18.218  0.00  0.00    +0.000 C 
ATOM     20  C   UNL     1       3.132   2.145  18.950  0.00  0.00    +0.000 C 
ENDBRANCH  13  15
ENDBRANCH  10  13
ENDBRANCH   2   5
BRANCH   1  21
ATOM     21  C   UNL     1       0.960   8.296  20.742  0.00  0.00    +0.000 C 
BRANCH  21  22
ATOM     22  C   UNL     1       1.183   9.198  21.972  0.00  0.00    +0.000 C 
BRANCH  22  26
ATOM     23  C   UNL     1      -1.653  12.555  22.494  0.00  0.00    +0.000 A 
ATOM     24  C   UNL     1      -0.626  12.547  21.546  0.00  0.00    +0.000 A 
ATOM     25  C   UNL     1       0.239  11.450  21.399  0.00  0.00    +0.000 A 
ATOM     26  C   UNL     1       0.154  10.315  22.213  0.00  0.00    +0.000 A 
ATOM     27  C   UNL     1      -0.899  10.290  23.142  0.00  0.00    +0.000 A 
ATOM     28  C   UNL     1      -1.768  11.410  23.289  0.00  0.00    +0.000 A 
BRANCH  23  33
ATOM     29  C   UNL     1      -5.591  16.163  24.104  0.00  0.00    +0.000 C 
ATOM     30  N   UNL     1      -4.568  15.569  23.250  0.00  0.00    +0.000 NA
ATOM     31  C   UNL     1      -4.924  14.175  22.891  0.00  0.00    +0.000 C 
ATOM     32  C   UNL     1      -3.870  13.520  21.968  0.00  0.00    +0.000 C 
ATOM     33  N   UNL     1      -2.554  13.593  22.608  0.00  0.00    +0.000 N 
ATOM     34  C   UNL     1      -2.143  14.935  23.041  0.00  0.00    +0.000 C 
ATOM     35  C   UNL     1      -3.248  15.559  23.927  0.00  0.00    +0.000 C 
ENDBRANCH  23  33
ENDBRANCH  22  26
ENDBRANCH  21  22
ENDBRANCH   1  21
TORSDOF 8
ENDMDL
MODEL 5
REMARK VINA RESULT:      -8.4      1.112      1.337
REMARK  Name = 
REMARK  9 active torsions:
REMARK  status: ('A' for Active; 'I' for Inactive)
REMARK    1  A    between atoms: C_1  and  N_2
REMARK    2  A    between atoms: N_5  and  C_6
REMARK    3  A    between atoms: C_9  and  C_10
REMARK    4  A    between atoms: C_10  and  C_11
REMARK    5  A    between atoms: C_11  and  N_12
REMARK    6  A    between atoms: C_13  and  C_15
REMARK    7  A    between atoms: C_18  and  C_19
REMARK    8  A    between atoms: C_22  and  N_23
REMARK    9  A    between atoms: N_23  and  C_24
REMARK                            x       y       z     vdW  Elec       q    Type
REMARK                         _______ _______ _______ _____ _____    ______ ____
ROOT
ATOM      1  N   UNL     1       1.787   8.329  19.376  0.00  0.00    +0.000 N 
ATOM      2  C   UNL     1       2.272   7.042  19.647  0.00  0.00    +0.000 C 
ATOM      3  O   UNL     1       1.765   6.422  20.559  0.00  0.00    +0.000 OA
ATOM      4  H   UNL     1       2.011   8.767  18.505  0.00  0.00    +0.000 HD
ENDROOT
BRANCH   2   5
ATOM      5  C   UNL     1       3.272   6.313  18.765  0.00  0.00    +0.000 A 
ATOM      6  C   UNL     1       3.681   7.165  17.708  0.00  0.00    +0.000 A 
ATOM      7  N   UNL     1       4.622   6.931  16.773  0.00  0.00    +0.000 NA
ATOM      8  C   UNL     1       5.229   5.746  16.888  0.00  0.00    +0.000 A 
ATOM      9  N   UNL     1       4.938   4.848  17.850  0.00  0.00    +0.000 NA
ATOM     10  C   UNL     1       3.972   5.115  18.798  0.00  0.00    +0.000 A 
BRANCH   8  11
ATOM     11  C   UNL     1       6.330   5.470  16.004  0.00  0.00    +0.000 C 
ATOM     12  N   UNL     1       7.278   5.222  15.324  0.00  0.00    +0.000 NA
ENDBRANCH   8  11
BRANCH  10  13
ATOM     13  N   UNL     1       4.024   4.094  19.692  0.00  0.00    +0.000 N 
ATOM     14  H   UNL     1       4.642   4.455  20.424  0.00  0.00    +0.000 HD
BRANCH  13  15
ATOM     15  C   UNL     1       3.625   2.718  19.996  0.00  0.00    +0.000 C 
ATOM     16  C   UNL     1       2.496   2.541  21.005  0.00  0.00    +0.000 C 
ATOM     17  C   UNL     1       1.206   3.194  20.554  0.00  0.00    +0.000 C 
ATOM     18  C   UNL     1       0.810   2.703  19.162  0.00  0.00    +0.000 C 
ATOM     19  C   UNL     1       1.942   2.575  18.112  0.00  0.00    +0.000 C 
ATOM     20  C   UNL     1       3.228   1.983  18.686  0.00  0.00    +0.000 C 
ENDBRANCH  13  15
ENDBRANCH  10  13
ENDBRANCH   2   5
BRANCH   1  21
ATOM     21  C   UNL     1       0.875   9.002  20.365  0.00  0.00    +0.000 C 
BRANCH  21  22
ATOM     22  C   UNL     1       0.927  10.539  20.482  0.00  0.00    +0.000 C 
BRANCH  22  26
ATOM     23  C   UNL     1      -2.693  12.476  22.136  0.00  0.00    +0.000 A 
ATOM     24  C   UNL     1      -1.750  11.799  22.914  0.00  0.00    +0.000 A 
ATOM     25  C   UNL     1      -0.603  11.216  22.351  0.00  0.00    +0.000 A 
ATOM     26  C   UNL     1      -0.348  11.244  20.975  0.00  0.00    +0.000 A 
ATOM     27  C   UNL     1      -1.264  11.957  20.184  0.00  0.00    +0.000 A 
ATOM     28  C   UNL     1      -2.429  12.539  20.764  0.00  0.00    +0.000 A 
BRANCH  23  33
ATOM     29  C   UNL     1      -6.707  16.064  23.592  0.00  0.00    +0.000 C 
ATOM     30  N   UNL     1      -5.949  14.818  23.572  0.00  0.00    +0.000 NA
ATOM     31  C   UNL     1      -4.546  15.048  23.990  0.00  0.00    +0.000 C 
ATOM     32  C   UNL     1      -3.716  13.742  24.000  0.00  0.00    +0.000 C 
ATOM     33  N   UNL     1      -3.790  13.112  22.679  0.00  0.00    +0.000 N 
ATOM     34  C   UNL     1      -5.148  12.893  22.165  0.00  0.00    +0.000 C 
ATOM     35  C   UNL     1      -5.945  14.219  22.215  0.00  0.00    +0.000 C 
ENDBRANCH  23  33
ENDBRANCH  22  26
ENDBRANCH  21  22
ENDBRANCH   1  21
TORSDOF 8
ENDMDL
MODEL 6
REMARK VINA RESULT:      -8.3      2.708      3.066
REMARK  Name = 
REMARK  9 active torsions:
REMARK  status: ('A' for Active; 'I' for Inactive)
REMARK    1  A    between atoms: C_1  and  N_2
REMARK    2  A    between atoms: N_5  and  C_6
REMARK    3  A    between atoms: C_9  and  C_10
REMARK    4  A    between atoms: C_10  and  C_11
REMARK    5  A    between atoms: C_11  and  N_12
REMARK    6  A    between atoms: C_13  and  C_15
REMARK    7  A    between atoms: C_18  and  C_19
REMARK    8  A    between atoms: C_22  and  N_23
REMARK    9  A    between atoms: N_23  and  C_24
REMARK                            x       y       z     vdW  Elec       q    Type
REMARK                         _______ _______ _______ _____ _____    ______ ____
ROOT
ATOM      1  N   UNL     1       1.815   8.309  19.026  0.00  0.00    +0.000 N 
ATOM      2  C   UNL     1       2.431   7.104  19.393  0.00  0.00    +0.000 C 
ATOM      3  O   UNL     1       2.077   6.574  20.425  0.00  0.00    +0.000 OA
ATOM      4  H   UNL     1       1.908   8.644  18.089  0.00  0.00    +0.000 HD
ENDROOT
BRANCH   2   5
ATOM      5  C   UNL     1       3.389   6.339  18.495  0.00  0.00    +0.000 A 
ATOM      6  C   UNL     1       3.850   7.188  17.459  0.00  0.00    +0.000 A 
ATOM      7  N   UNL     1       4.778   6.922  16.520  0.00  0.00    +0.000 NA
ATOM      8  C   UNL     1       5.315   5.701  16.609  0.00  0.00    +0.000 A 
ATOM      9  N   UNL     1       4.969   4.799  17.550  0.00  0.00    +0.000 NA
ATOM     10  C   UNL     1       4.017   5.101  18.503  0.00  0.00    +0.000 A 
BRANCH   8  11
ATOM     11  C   UNL     1       6.400   5.381  15.720  0.00  0.00    +0.000 C 
ATOM     12  N   UNL     1       7.337   5.103  15.037  0.00  0.00    +0.000 NA
ENDBRANCH   8  11
BRANCH  10  13
ATOM     13  N   UNL     1       4.007   4.059  19.372  0.00  0.00    +0.000 N 
ATOM     14  H   UNL     1       4.525   4.421  20.179  0.00  0.00    +0.000 HD
BRANCH  13  15
ATOM     15  C   UNL     1       3.630   2.662  19.597  0.00  0.00    +0.000 C 
ATOM     16  C   UNL     1       3.148   2.301  20.999  0.00  0.00    +0.000 C 
ATOM     17  C   UNL     1       1.910   3.075  21.404  0.00  0.00    +0.000 C 
ATOM     18  C   UNL     1       0.805   2.912  20.360  0.00  0.00    +0.000 C 
ATOM     19  C   UNL     1       1.227   2.982  18.871  0.00  0.00    +0.000 C 
ATOM     20  C   UNL     1       2.531   2.242  18.582  0.00  0.00    +0.000 C 
ENDBRANCH  13  15
ENDBRANCH  10  13
ENDBRANCH   2   5
BRANCH   1  21
ATOM     21  C   UNL     1       0.959   9.040  20.025  0.00  0.00    +0.000 C 
BRANCH  21  22
ATOM     22  C   UNL     1       0.714  10.548  19.817  0.00  0.00    +0.000 C 
BRANCH  22  26
ATOM     23  C   UNL     1      -3.422  11.892  18.999  0.00  0.00    +0.000 A 
ATOM     24  C   UNL     1      -2.710  12.229  20.153  0.00  0.00    +0.000 A 
ATOM     25  C   UNL     1      -1.390  11.798  20.364  0.00  0.00    +0.000 A 
ATOM     26  C   UNL     1      -0.716  10.977  19.452  0.00  0.00    +0.000 A 
ATOM     27  C   UNL     1      -1.403  10.665  18.267  0.00  0.00    +0.000 A 
ATOM     28  C   UNL     1      -2.745  11.101  18.065  0.00  0.00    +0.000 A 
BRANCH  23  33
ATOM     29  C   UNL     1      -7.911  14.763  17.350  0.00  0.00    +0.000 C 
ATOM     30  N   UNL     1      -7.146  13.703  17.996  0.00  0.00    +0.000 NA
ATOM     31  C   UNL     1      -6.227  14.262  19.016  0.00  0.00    +0.000 C 
ATOM     32  C   UNL     1      -5.414  13.162  19.738  0.00  0.00    +0.000 C 
ATOM     33  N   UNL     1      -4.694  12.362  18.744  0.00  0.00    +0.000 N 
ATOM     34  C   UNL     1      -5.524  11.809  17.666  0.00  0.00    +0.000 C 
ATOM     35  C   UNL     1      -6.345  12.943  17.005  0.00  0.00    +0.000 C 
ENDBRANCH  23  33
ENDBRANCH  22  26
ENDBRANCH  21  22
ENDBRANCH   1  21
TORSDOF 8
ENDMDL
MODEL 7
REMARK VINA RESULT:      -8.2      1.233      1.928
REMARK  Name = 
REMARK  9 active torsions:
REMARK  status: ('A' for Active; 'I' for Inactive)
REMARK    1  A    between atoms: C_1  and  N_2
REMARK    2  A    between atoms: N_5  and  C_6
REMARK    3  A    between atoms: C_9  and  C_10
REMARK    4  A    between atoms: C_10  and  C_11
REMARK    5  A    between atoms: C_11  and  N_12
REMARK    6  A    between atoms: C_13  and  C_15
REMARK    7  A    between atoms: C_18  and  C_19
REMARK    8  A    between atoms: C_22  and  N_23
REMARK    9  A    between atoms: N_23  and  C_24
REMARK                            x       y       z     vdW  Elec       q    Type
REMARK                         _______ _______ _______ _____ _____    ______ ____
ROOT
ATOM      1  N   UNL     1       2.016   8.218  19.506  0.00  0.00    +0.000 N 
ATOM      2  C   UNL     1       2.473   8.056  18.190  0.00  0.00    +0.000 C 
ATOM      3  O   UNL     1       2.208   8.923  17.384  0.00  0.00    +0.000 OA
ATOM      4  H   UNL     1       2.407   7.656  20.235  0.00  0.00    +0.000 HD
ENDROOT
BRANCH   2   5
ATOM      5  C   UNL     1       3.420   6.950  17.755  0.00  0.00    +0.000 A 
ATOM      6  C   UNL     1       4.557   7.518  17.129  0.00  0.00    +0.000 A 
ATOM      7  N   UNL     1       5.664   6.887  16.692  0.00  0.00    +0.000 NA
ATOM      8  C   UNL     1       5.660   5.565  16.896  0.00  0.00    +0.000 A 
ATOM      9  N   UNL     1       4.644   4.903  17.485  0.00  0.00    +0.000 NA
ATOM     10  C   UNL     1       3.523   5.576  17.926  0.00  0.00    +0.000 A 
BRANCH   8  11
ATOM     11  C   UNL     1       6.855   4.835  16.569  0.00  0.00    +0.000 C 
ATOM     12  N   UNL     1       7.808   4.182  16.272  0.00  0.00    +0.000 NA
ENDBRANCH   8  11
BRANCH  10  13
ATOM     13  N   UNL     1       2.770   4.664  18.591  0.00  0.00    +0.000 N 
ATOM     14  H   UNL     1       3.451   3.947  18.860  0.00  0.00    +0.000 HD
BRANCH  13  15
ATOM     15  C   UNL     1       1.424   4.266  19.011  0.00  0.00    +0.000 C 
ATOM     16  C   UNL     1       1.078   2.786  18.884  0.00  0.00    +0.000 C 
ATOM     17  C   UNL     1       1.986   1.903  19.715  0.00  0.00    +0.000 C 
ATOM     18  C   UNL     1       2.000   2.364  21.173  0.00  0.00    +0.000 C 
ATOM     19  C   UNL     1       2.070   3.890  21.429  0.00  0.00    +0.000 C 
ATOM     20  C   UNL     1       1.182   4.698  20.484  0.00  0.00    +0.000 C 
ENDBRANCH  13  15
ENDBRANCH  10  13
ENDBRANCH   2   5
BRANCH   1  21
ATOM     21  C   UNL     1       1.002   9.286  19.814  0.00  0.00    +0.000 C 
BRANCH  21  22
ATOM     22  C   UNL     1       0.638   9.547  21.289  0.00  0.00    +0.000 C 
BRANCH  22  26
ATOM     23  C   UNL     1      -2.554  12.437  22.314  0.00  0.00    +0.000 A 
ATOM     24  C   UNL     1      -1.951  11.584  23.243  0.00  0.00    +0.000 A 
ATOM     25  C   UNL     1      -0.925  10.696  22.879  0.00  0.00    +0.000 A 
ATOM     26  C   UNL     1      -0.467  10.582  21.561  0.00  0.00    +0.000 A 
ATOM     27  C   UNL     1      -1.032  11.463  20.625  0.00  0.00    +0.000 A 
ATOM     28  C   UNL     1      -2.077  12.355  21.002  0.00  0.00    +0.000 A 
BRANCH  23  33
ATOM     29  C   UNL     1      -7.173  15.515  22.856  0.00  0.00    +0.000 C 
ATOM     30  N   UNL     1      -5.798  15.087  23.088  0.00  0.00    +0.000 NA
ATOM     31  C   UNL     1      -5.017  15.117  21.829  0.00  0.00    +0.000 C 
ATOM     32  C   UNL     1      -3.546  14.688  22.042  0.00  0.00    +0.000 C 
ATOM     33  N   UNL     1      -3.514  13.363  22.666  0.00  0.00    +0.000 N 
ATOM     34  C   UNL     1      -4.306  13.231  23.896  0.00  0.00    +0.000 C 
ATOM     35  C   UNL     1      -5.755  13.710  23.638  0.00  0.00    +0.000 C 
ENDBRANCH  23  33
ENDBRANCH  22  26
ENDBRANCH  21  22
ENDBRANCH   1  21
TORSDOF 8
ENDMDL
MODEL 8
REMARK VINA RESULT:      -8.1      1.310      1.735
REMARK  Name = 
REMARK  9 active torsions:
REMARK  status: ('A' for Active; 'I' for Inactive)
REMARK    1  A    between atoms: C_1  and  N_2
REMARK    2  A    between atoms: N_5  and  C_6
REMARK    3  A    between atoms: C_9  and  C_10
REMARK    4  A    between atoms: C_10  and  C_11
REMARK    5  A    between atoms: C_11  and  N_12
REMARK    6  A    between atoms: C_13  and  C_15
REMARK    7  A    between atoms: C_18  and  C_19
REMARK    8  A    between atoms: C_22  and  N_23
REMARK    9  A    between atoms: N_23  and  C_24
REMARK                            x       y       z     vdW  Elec       q    Type
REMARK                         _______ _______ _______ _____ _____    ______ ____
ROOT
ATOM      1  N   UNL     1       1.745   8.313  19.761  0.00  0.00    +0.000 N 
ATOM      2  C   UNL     1       2.180   6.987  19.888  0.00  0.00    +0.000 C 
ATOM      3  O   UNL     1       1.607   6.271  20.683  0.00  0.00    +0.000 OA
ATOM      4  H   UNL     1       2.029   8.852  18.968  0.00  0.00    +0.000 HD
ENDROOT
BRANCH   2   5
ATOM      5  C   UNL     1       3.209   6.345  18.972  0.00  0.00    +0.000 A 
ATOM      6  C   UNL     1       3.547   7.247  17.932  0.00  0.00    +0.000 A 
ATOM      7  N   UNL     1       4.485   7.097  16.977  0.00  0.00    +0.000 NA
ATOM      8  C   UNL     1       5.167   5.950  17.052  0.00  0.00    +0.000 A 
ATOM      9  N   UNL     1       4.948   5.011  17.994  0.00  0.00    +0.000 NA
ATOM     10  C   UNL     1       3.983   5.192  18.963  0.00  0.00    +0.000 A 
BRANCH   8  11
ATOM     11  C   UNL     1       6.268   5.766  16.145  0.00  0.00    +0.000 C 
ATOM     12  N   UNL     1       7.187   5.552  15.416  0.00  0.00    +0.000 NA
ENDBRANCH   8  11
BRANCH  10  13
ATOM     13  N   UNL     1       4.113   4.155  19.828  0.00  0.00    +0.000 N 
ATOM     14  H   UNL     1       5.015   4.335  20.278  0.00  0.00    +0.000 HD
BRANCH  13  15
ATOM     15  C   UNL     1       3.545   2.897  20.319  0.00  0.00    +0.000 C 
ATOM     16  C   UNL     1       2.031   2.852  20.492  0.00  0.00    +0.000 C 
ATOM     17  C   UNL     1       1.290   3.096  19.193  0.00  0.00    +0.000 C 
ATOM     18  C   UNL     1       1.770   2.131  18.109  0.00  0.00    +0.000 C 
ATOM     19  C   UNL     1       3.295   1.878  18.015  0.00  0.00    +0.000 C 
ATOM     20  C   UNL     1       3.963   1.730  19.381  0.00  0.00    +0.000 C 
ENDBRANCH  13  15
ENDBRANCH  10  13
ENDBRANCH   2   5
BRANCH   1  21
ATOM     21  C   UNL     1       0.796   8.883  20.781  0.00  0.00    +0.000 C 
BRANCH  21  22
ATOM     22  C   UNL     1       0.903  10.383  21.124  0.00  0.00    +0.000 C 
BRANCH  22  26
ATOM     23  C   UNL     1      -2.854  12.545  22.015  0.00  0.00    +0.000 A 
ATOM     24  C   UNL     1      -2.285  12.469  20.740  0.00  0.00    +0.000 A 
ATOM     25  C   UNL     1      -1.101  11.753  20.497  0.00  0.00    +0.000 A 
ATOM     26  C   UNL     1      -0.398  11.103  21.517  0.00  0.00    +0.000 A 
ATOM     27  C   UNL     1      -0.978  11.133  22.795  0.00  0.00    +0.000 A 
ATOM     28  C   UNL     1      -2.176  11.868  23.034  0.00  0.00    +0.000 A 
BRANCH  23  33
ATOM     29  C   UNL     1      -7.730  14.327  24.055  0.00  0.00    +0.000 C 
ATOM     30  N   UNL     1      -6.594  14.244  23.143  0.00  0.00    +0.000 NA
ATOM     31  C   UNL     1      -6.467  12.877  22.583  0.00  0.00    +0.000 C 
ATOM     32  C   UNL     1      -5.284  12.758  21.593  0.00  0.00    +0.000 C 
ATOM     33  N   UNL     1      -4.051  13.186  22.260  0.00  0.00    +0.000 N 
ATOM     34  C   UNL     1      -4.107  14.513  22.888  0.00  0.00    +0.000 C 
ATOM     35  C   UNL     1      -5.329  14.591  23.835  0.00  0.00    +0.000 C 
ENDBRANCH  23  33
ENDBRANCH  22  26
ENDBRANCH  21  22
ENDBRANCH   1  21
TORSDOF 8
ENDMDL
MODEL 9
REMARK VINA RESULT:      -8.1      1.233      1.660
REMARK  Name = 
REMARK  9 active torsions:
REMARK  status: ('A' for Active; 'I' for Inactive)
REMARK    1  A    between atoms: C_1  and  N_2
REMARK    2  A    between atoms: N_5  and  C_6
REMARK    3  A    between atoms: C_9  and  C_10
REMARK    4  A    between atoms: C_10  and  C_11
REMARK    5  A    between atoms: C_11  and  N_12
REMARK    6  A    between atoms: C_13  and  C_15
REMARK    7  A    between atoms: C_18  and  C_19
REMARK    8  A    between atoms: C_22  and  N_23
REMARK    9  A    between atoms: N_23  and  C_24
REMARK                            x       y       z     vdW  Elec       q    Type
REMARK                         _______ _______ _______ _____ _____    ______ ____
ROOT
ATOM      1  N   UNL     1       1.903   7.907  20.018  0.00  0.00    +0.000 N 
ATOM      2  C   UNL     1       2.272   7.667  18.687  0.00  0.00    +0.000 C 
ATOM      3  O   UNL     1       1.820   8.397  17.829  0.00  0.00    +0.000 OA
ATOM      4  H   UNL     1       2.428   7.487  20.758  0.00  0.00    +0.000 HD
ENDROOT
BRANCH   2   5
ATOM      5  C   UNL     1       3.333   6.661  18.273  0.00  0.00    +0.000 A 
ATOM      6  C   UNL     1       4.138   7.214  17.247  0.00  0.00    +0.000 A 
ATOM      7  N   UNL     1       5.238   6.683  16.680  0.00  0.00    +0.000 NA
ATOM      8  C   UNL     1       5.590   5.491  17.172  0.00  0.00    +0.000 A 
ATOM      9  N   UNL     1       4.913   4.858  18.151  0.00  0.00    +0.000 NA
ATOM     10  C   UNL     1       3.791   5.428  18.718  0.00  0.00    +0.000 A 
BRANCH   8  11
ATOM     11  C   UNL     1       6.821   4.912  16.706  0.00  0.00    +0.000 C 
ATOM     12  N   UNL     1       7.838   4.389  16.370  0.00  0.00    +0.000 NA
ENDBRANCH   8  11
BRANCH  10  13
ATOM     13  N   UNL     1       3.438   4.624  19.753  0.00  0.00    +0.000 N 
ATOM     14  H   UNL     1       3.286   5.283  20.521  0.00  0.00    +0.000 HD
BRANCH  13  15
ATOM     15  C   UNL     1       3.256   3.248  20.222  0.00  0.00    +0.000 C 
ATOM     16  C   UNL     1       2.010   2.970  21.057  0.00  0.00    +0.000 C 
ATOM     17  C   UNL     1       0.728   3.264  20.305  0.00  0.00    +0.000 C 
ATOM     18  C   UNL     1       0.701   2.516  18.972  0.00  0.00    +0.000 C 
ATOM     19  C   UNL     1       2.014   2.493  18.150  0.00  0.00    +0.000 C 
ATOM     20  C   UNL     1       3.257   2.274  19.010  0.00  0.00    +0.000 C 
ENDBRANCH  13  15
ENDBRANCH  10  13
ENDBRANCH   2   5
BRANCH   1  21
ATOM     21  C   UNL     1       0.771   8.853  20.316  0.00  0.00    +0.000 C 
BRANCH  21  22
ATOM     22  C   UNL     1       1.078  10.362  20.391  0.00  0.00    +0.000 C 
BRANCH  22  26
ATOM     23  C   UNL     1      -1.332  13.001  23.001  0.00  0.00    +0.000 A 
ATOM     24  C   UNL     1      -0.448  13.471  22.026  0.00  0.00    +0.000 A 
ATOM     25  C   UNL     1       0.282  12.597  21.203  0.00  0.00    +0.000 A 
ATOM     26  C   UNL     1       0.200  11.206  21.330  0.00  0.00    +0.000 A 
ATOM     27  C   UNL     1      -0.715  10.717  22.276  0.00  0.00    +0.000 A 
ATOM     28  C   UNL     1      -1.447  11.611  23.112  0.00  0.00    +0.000 A 
BRANCH  23  33
ATOM     29  C   UNL     1      -4.585  17.076  24.981  0.00  0.00    +0.000 C 
ATOM     30  N   UNL     1      -3.777  15.862  24.998  0.00  0.00    +0.000 NA
ATOM     31  C   UNL     1      -2.386  16.148  24.572  0.00  0.00    +0.000 C 
ATOM     32  C   UNL     1      -1.494  14.885  24.598  0.00  0.00    +0.000 C 
ATOM     33  N   UNL     1      -2.108  13.842  23.772  0.00  0.00    +0.000 N 
ATOM     34  C   UNL     1      -3.506  13.530  24.094  0.00  0.00    +0.000 C 
ATOM     35  C   UNL     1      -4.345  14.832  24.094  0.00  0.00    +0.000 C 
ENDBRANCH  23  33
ENDBRANCH  22  26
ENDBRANCH  21  22
ENDBRANCH   1  21
TORSDOF 8
ENDMDL
