MODEL 1
REMARK VINA RESULT:      -7.4      0.000      0.000
REMARK  Name = 
REMARK  5 active torsions:
REMARK  status: ('A' for Active; 'I' for Inactive)
REMARK    1  A    between atoms: C_1  and  O_2
REMARK    2  A    between atoms: O_2  and  C_3
REMARK    3  A    between atoms: C_7  and  N_8
REMARK    4  A    between atoms: C_14  and  C_15
REMARK    5  A    between atoms: N_18  and  C_19
REMARK                            x       y       z     vdW  Elec       q    Type
REMARK                         _______ _______ _______ _____ _____    ______ ____
ROOT
ATOM      1  N   UNL     1       3.960   3.847  17.761  0.00  0.00    +0.000 N 
ATOM      2  C   UNL     1       3.298   4.682  18.665  0.00  0.00    +0.000 A 
ATOM      3  N   UNL     1       2.914   4.134  19.827  0.00  0.00    +0.000 NA
ATOM      4  C   UNL     1       2.255   4.939  20.690  0.00  0.00    +0.000 A 
ATOM      5  C   UNL     1       1.950   6.262  20.442  0.00  0.00    +0.000 A 
ATOM      6  N   UNL     1       1.251   7.039  21.379  0.00  0.00    +0.000 NA
ATOM      7  C   UNL     1       0.986   8.269  21.046  0.00  0.00    +0.000 A 
ATOM      8  C   UNL     1       0.231   9.158  21.992  0.00  0.00    +0.000 C 
ATOM      9  C   UNL     1       1.401   8.888  19.714  0.00  0.00    +0.000 A 
ATOM     10  O   UNL     1       1.095  10.053  19.491  0.00  0.00    +0.000 OA
ATOM     11  N   UNL     1       2.104   8.062  18.856  0.00  0.00    +0.000 N 
ATOM     12  C   UNL     1       2.541   8.536  17.558  0.00  0.00    +0.000 C 
ATOM     13  C   UNL     1       2.384   6.722  19.211  0.00  0.00    +0.000 A 
ATOM     14  N   UNL     1       3.055   5.957  18.330  0.00  0.00    +0.000 NA
ATOM     15  H   UNL     1       4.154   2.973  18.237  0.00  0.00    +0.000 HD
ENDROOT
BRANCH   1  20
ATOM     16  C   UNL     1       6.872   5.675  16.367  0.00  0.00    +0.000 A 
ATOM     17  C   UNL     1       6.966   5.103  15.096  0.00  0.00    +0.000 A 
ATOM     18  C   UNL     1       6.070   4.115  14.696  0.00  0.00    +0.000 A 
ATOM     19  C   UNL     1       5.077   3.686  15.574  0.00  0.00    +0.000 A 
ATOM     20  C   UNL     1       4.975   4.229  16.862  0.00  0.00    +0.000 A 
ATOM     21  C   UNL     1       5.869   5.244  17.240  0.00  0.00    +0.000 A 
BRANCH  16  23
ATOM     22  C   UNL     1       7.461   7.634  17.579  0.00  0.00    +0.000 C 
ATOM     23  O   UNL     1       7.807   6.638  16.626  0.00  0.00    +0.000 OA
ENDBRANCH  16  23
ENDBRANCH   1  20
TORSDOF 2
ENDMDL
MODEL 2
REMARK VINA RESULT:      -7.2      1.137      1.961
REMARK  Name = 
REMARK  5 active torsions:
REMARK  status: ('A' for Active; 'I' for Inactive)
REMARK    1  A    between atoms: C_1  and  O_2
REMARK    2  A    between atoms: O_2  and  C_3
REMARK    3  A    between atoms: C_7  and  N_8
REMARK    4  A    between atoms: C_14  and  C_15
REMARK    5  A    between atoms: N_18  and  C_19
REMARK                            x       y       z     vdW  Elec       q    Type
REMARK                         _______ _______ _______ _____ _____    ______ ____
ROOT
ATOM      1  N   UNL     1       4.026   3.795  18.057  0.00  0.00    +0.000 N 
ATOM      2  C   UNL     1       3.287   4.642  18.886  0.00  0.00    +0.000 A 
ATOM      3  N   UNL     1       2.755   4.097  19.990  0.00  0.00    +0.000 NA
ATOM      4  C   UNL     1       2.021   4.916  20.778  0.00  0.00    +0.000 A 
ATOM      5  C   UNL     1       1.784   6.248  20.510  0.00  0.00    +0.000 A 
ATOM      6  N   UNL     1       1.001   7.038  21.366  0.00  0.00    +0.000 NA
ATOM      7  C   UNL     1       0.811   8.277  21.017  0.00  0.00    +0.000 A 
ATOM      8  C   UNL     1      -0.025   9.181  21.878  0.00  0.00    +0.000 C 
ATOM      9  C   UNL     1       1.395   8.893  19.749  0.00  0.00    +0.000 A 
ATOM     10  O   UNL     1       1.149  10.068  19.504  0.00  0.00    +0.000 OA
ATOM     11  N   UNL     1       2.170   8.054  18.971  0.00  0.00    +0.000 N 
ATOM     12  C   UNL     1       2.769   8.524  17.737  0.00  0.00    +0.000 C 
ATOM     13  C   UNL     1       2.371   6.704  19.342  0.00  0.00    +0.000 A 
ATOM     14  N   UNL     1       3.119   5.926  18.538  0.00  0.00    +0.000 NA
ATOM     15  H   UNL     1       4.140   2.913  18.544  0.00  0.00    +0.000 HD
ENDROOT
BRANCH   1  20
ATOM     16  C   UNL     1       6.249   4.185  15.113  0.00  0.00    +0.000 A 
ATOM     17  C   UNL     1       7.380   4.757  15.702  0.00  0.00    +0.000 A 
ATOM     18  C   UNL     1       7.411   5.015  17.070  0.00  0.00    +0.000 A 
ATOM     19  C   UNL     1       6.303   4.709  17.857  0.00  0.00    +0.000 A 
ATOM     20  C   UNL     1       5.150   4.154  17.287  0.00  0.00    +0.000 A 
ATOM     21  C   UNL     1       5.144   3.875  15.911  0.00  0.00    +0.000 A 
BRANCH  16  23
ATOM     22  C   UNL     1       5.158   3.678  13.062  0.00  0.00    +0.000 C 
ATOM     23  O   UNL     1       6.356   3.979  13.766  0.00  0.00    +0.000 OA
ENDBRANCH  16  23
ENDBRANCH   1  20
TORSDOF 2
ENDMDL
MODEL 3
REMARK VINA RESULT:      -7.1      3.586      5.264
REMARK  Name = 
REMARK  5 active torsions:
REMARK  status: ('A' for Active; 'I' for Inactive)
REMARK    1  A    between atoms: C_1  and  O_2
REMARK    2  A    between atoms: O_2  and  C_3
REMARK    3  A    between atoms: C_7  and  N_8
REMARK    4  A    between atoms: C_14  and  C_15
REMARK    5  A    between atoms: N_18  and  C_19
REMARK                            x       y       z     vdW  Elec       q    Type
REMARK                         _______ _______ _______ _____ _____    ______ ____
ROOT
ATOM      1  N   UNL     1       2.874   7.149  18.408  0.00  0.00    +0.000 N 
ATOM      2  C   UNL     1       2.205   8.363  18.579  0.00  0.00    +0.000 A 
ATOM      3  N   UNL     1       2.426   9.311  17.657  0.00  0.00    +0.000 NA
ATOM      4  C   UNL     1       1.793  10.493  17.838  0.00  0.00    +0.000 A 
ATOM      5  C   UNL     1       0.962  10.776  18.901  0.00  0.00    +0.000 A 
ATOM      6  N   UNL     1       0.346  12.030  19.035  0.00  0.00    +0.000 NA
ATOM      7  C   UNL     1      -0.400  12.214  20.085  0.00  0.00    +0.000 A 
ATOM      8  C   UNL     1      -1.083  13.534  20.302  0.00  0.00    +0.000 C 
ATOM      9  C   UNL     1      -0.633  11.144  21.149  0.00  0.00    +0.000 A 
ATOM     10  O   UNL     1      -1.345  11.418  22.106  0.00  0.00    +0.000 OA
ATOM     11  N   UNL     1      -0.007   9.931  20.933  0.00  0.00    +0.000 N 
ATOM     12  C   UNL     1      -0.145   8.842  21.881  0.00  0.00    +0.000 C 
ATOM     13  C   UNL     1       0.812   9.732  19.798  0.00  0.00    +0.000 A 
ATOM     14  N   UNL     1       1.413   8.536  19.647  0.00  0.00    +0.000 NA
ATOM     15  H   UNL     1       3.318   7.169  17.497  0.00  0.00    +0.000 HD
ENDROOT
BRANCH   1  20
ATOM     16  C   UNL     1       2.075   4.185  20.491  0.00  0.00    +0.000 A 
ATOM     17  C   UNL     1       1.540   3.319  19.535  0.00  0.00    +0.000 A 
ATOM     18  C   UNL     1       1.442   3.710  18.202  0.00  0.00    +0.000 A 
ATOM     19  C   UNL     1       1.873   4.979  17.820  0.00  0.00    +0.000 A 
ATOM     20  C   UNL     1       2.393   5.874  18.765  0.00  0.00    +0.000 A 
ATOM     21  C   UNL     1       2.510   5.454  20.099  0.00  0.00    +0.000 A 
BRANCH  16  23
ATOM     22  C   UNL     1       1.541   2.389  21.955  0.00  0.00    +0.000 C 
ATOM     23  O   UNL     1       2.120   3.672  21.758  0.00  0.00    +0.000 OA
ENDBRANCH  16  23
ENDBRANCH   1  20
TORSDOF 2
ENDMDL
MODEL 4
REMARK VINA RESULT:      -7.0      2.477      4.217
REMARK  Name = 
REMARK  5 active torsions:
REMARK  status: ('A' for Active; 'I' for Inactive)
REMARK    1  A    between atoms: C_1  and  O_2
REMARK    2  A    between atoms: O_2  and  C_3
REMARK    3  A    between atoms: C_7  and  N_8
REMARK    4  A    between atoms: C_14  and  C_15
REMARK    5  A    between atoms: N_18  and  C_19
REMARK                            x       y       z     vdW  Elec       q    Type
REMARK                         _______ _______ _______ _____ _____    ______ ____
ROOT
ATOM      1  N   UNL     1       2.847   7.640  17.819  0.00  0.00    +0.000 N 
ATOM      2  C   UNL     1       1.889   8.512  18.342  0.00  0.00    +0.000 A 
ATOM      3  N   UNL     1       1.161   9.212  17.460  0.00  0.00    +0.000 NA
ATOM      4  C   UNL     1       0.250  10.071  17.971  0.00  0.00    +0.000 A 
ATOM      5  C   UNL     1       0.039  10.272  19.319  0.00  0.00    +0.000 A 
ATOM      6  N   UNL     1      -0.916  11.191  19.781  0.00  0.00    +0.000 NA
ATOM      7  C   UNL     1      -1.025  11.332  21.071  0.00  0.00    +0.000 A 
ATOM      8  C   UNL     1      -2.018  12.304  21.640  0.00  0.00    +0.000 C 
ATOM      9  C   UNL     1      -0.181  10.554  22.076  0.00  0.00    +0.000 A 
ATOM     10  O   UNL     1      -0.351  10.766  23.270  0.00  0.00    +0.000 OA
ATOM     11  N   UNL     1       0.723   9.655  21.540  0.00  0.00    +0.000 N 
ATOM     12  C   UNL     1       1.588   8.867  22.396  0.00  0.00    +0.000 C 
ATOM     13  C   UNL     1       0.850   9.507  20.139  0.00  0.00    +0.000 A 
ATOM     14  N   UNL     1       1.759   8.631  19.671  0.00  0.00    +0.000 NA
ATOM     15  H   UNL     1       2.710   7.600  16.815  0.00  0.00    +0.000 HD
ENDROOT
BRANCH   1  20
ATOM     16  C   UNL     1       5.051   4.858  18.895  0.00  0.00    +0.000 A 
ATOM     17  C   UNL     1       4.114   3.944  19.383  0.00  0.00    +0.000 A 
ATOM     18  C   UNL     1       2.755   4.243  19.358  0.00  0.00    +0.000 A 
ATOM     19  C   UNL     1       2.325   5.468  18.851  0.00  0.00    +0.000 A 
ATOM     20  C   UNL     1       3.247   6.410  18.375  0.00  0.00    +0.000 A 
ATOM     21  C   UNL     1       4.612   6.081  18.382  0.00  0.00    +0.000 A 
BRANCH  16  23
ATOM     22  C   UNL     1       7.189   4.723  17.862  0.00  0.00    +0.000 C 
ATOM     23  O   UNL     1       6.349   4.433  18.971  0.00  0.00    +0.000 OA
ENDBRANCH  16  23
ENDBRANCH   1  20
TORSDOF 2
ENDMDL
MODEL 5
REMARK VINA RESULT:      -6.9      2.992      4.450
REMARK  Name = 
REMARK  5 active torsions:
REMARK  status: ('A' for Active; 'I' for Inactive)
REMARK    1  A    between atoms: C_1  and  O_2
REMARK    2  A    between atoms: O_2  and  C_3
REMARK    3  A    between atoms: C_7  and  N_8
REMARK    4  A    between atoms: C_14  and  C_15
REMARK    5  A    between atoms: N_18  and  C_19
REMARK                            x       y       z     vdW  Elec       q    Type
REMARK                         _______ _______ _______ _____ _____    ______ ____
ROOT
ATOM      1  N   UNL     1       3.212   7.232  17.853  0.00  0.00    +0.000 N 
ATOM      2  C   UNL     1       2.388   8.283  18.261  0.00  0.00    +0.000 A 
ATOM      3  N   UNL     1       2.221   9.294  17.397  0.00  0.00    +0.000 NA
ATOM      4  C   UNL     1       1.440  10.320  17.805  0.00  0.00    +0.000 A 
ATOM      5  C   UNL     1       0.827  10.388  19.039  0.00  0.00    +0.000 A 
ATOM      6  N   UNL     1       0.038  11.490  19.404  0.00  0.00    +0.000 NA
ATOM      7  C   UNL     1      -0.478  11.478  20.600  0.00  0.00    +0.000 A 
ATOM      8  C   UNL     1      -1.325  12.628  21.065  0.00  0.00    +0.000 C 
ATOM      9  C   UNL     1      -0.269  10.340  21.594  0.00  0.00    +0.000 A 
ATOM     10  O   UNL     1      -0.789  10.427  22.699  0.00  0.00    +0.000 OA
ATOM     11  N   UNL     1       0.504   9.283  21.150  0.00  0.00    +0.000 N 
ATOM     12  C   UNL     1       0.781   8.149  22.010  0.00  0.00    +0.000 C 
ATOM     13  C   UNL     1       1.074   9.298  19.856  0.00  0.00    +0.000 A 
ATOM     14  N   UNL     1       1.834   8.251  19.482  0.00  0.00    +0.000 NA
ATOM     15  H   UNL     1       3.432   7.378  16.873  0.00  0.00    +0.000 HD
ENDROOT
BRANCH   1  20
ATOM     16  C   UNL     1       4.047   3.850  19.126  0.00  0.00    +0.000 A 
ATOM     17  C   UNL     1       2.877   3.150  18.820  0.00  0.00    +0.000 A 
ATOM     18  C   UNL     1       1.812   3.792  18.193  0.00  0.00    +0.000 A 
ATOM     19  C   UNL     1       1.909   5.145  17.877  0.00  0.00    +0.000 A 
ATOM     20  C   UNL     1       3.064   5.874  18.193  0.00  0.00    +0.000 A 
ATOM     21  C   UNL     1       4.139   5.205  18.799  0.00  0.00    +0.000 A 
BRANCH  16  23
ATOM     22  C   UNL     1       4.602   1.879  20.336  0.00  0.00    +0.000 C 
ATOM     23  O   UNL     1       5.015   3.097  19.731  0.00  0.00    +0.000 OA
ENDBRANCH  16  23
ENDBRANCH   1  20
TORSDOF 2
ENDMDL
MODEL 6
REMARK VINA RESULT:      -6.9      2.778      6.733
REMARK  Name = 
REMARK  5 active torsions:
REMARK  status: ('A' for Active; 'I' for Inactive)
REMARK    1  A    between atoms: C_1  and  O_2
REMARK    2  A    between atoms: O_2  and  C_3
REMARK    3  A    between atoms: C_7  and  N_8
REMARK    4  A    between atoms: C_14  and  C_15
REMARK    5  A    between atoms: N_18  and  C_19
REMARK                            x       y       z     vdW  Elec       q    Type
REMARK                         _______ _______ _______ _____ _____    ______ ____
ROOT
ATOM      1  N   UNL     1       2.219   8.503  17.736  0.00  0.00    +0.000 N 
ATOM      2  C   UNL     1       2.871   7.328  18.116  0.00  0.00    +0.000 A 
ATOM      3  N   UNL     1       4.107   7.137  17.632  0.00  0.00    +0.000 NA
ATOM      4  C   UNL     1       4.727   5.988  17.984  0.00  0.00    +0.000 A 
ATOM      5  C   UNL     1       4.167   5.016  18.787  0.00  0.00    +0.000 A 
ATOM      6  N   UNL     1       4.863   3.840  19.104  0.00  0.00    +0.000 NA
ATOM      7  C   UNL     1       4.243   2.968  19.847  0.00  0.00    +0.000 A 
ATOM      8  C   UNL     1       4.920   1.680  20.219  0.00  0.00    +0.000 C 
ATOM      9  C   UNL     1       2.828   3.172  20.380  0.00  0.00    +0.000 A 
ATOM     10  O   UNL     1       2.328   2.288  21.063  0.00  0.00    +0.000 OA
ATOM     11  N   UNL     1       2.220   4.366  20.038  0.00  0.00    +0.000 N 
ATOM     12  C   UNL     1       0.871   4.667  20.477  0.00  0.00    +0.000 C 
ATOM     13  C   UNL     1       2.887   5.310  19.223  0.00  0.00    +0.000 A 
ATOM     14  N   UNL     1       2.241   6.448  18.907  0.00  0.00    +0.000 NA
ATOM     15  H   UNL     1       2.892   9.083  17.248  0.00  0.00    +0.000 HD
ENDROOT
BRANCH   1  20
ATOM     16  C   UNL     1       0.647  10.058  20.714  0.00  0.00    +0.000 A 
ATOM     17  C   UNL     1      -0.501  10.622  20.150  0.00  0.00    +0.000 A 
ATOM     18  C   UNL     1      -0.758  10.490  18.788  0.00  0.00    +0.000 A 
ATOM     19  C   UNL     1       0.140   9.798  17.978  0.00  0.00    +0.000 A 
ATOM     20  C   UNL     1       1.309   9.242  18.516  0.00  0.00    +0.000 A 
ATOM     21  C   UNL     1       1.539   9.360  19.896  0.00  0.00    +0.000 A 
BRANCH  16  23
ATOM     22  C   UNL     1      -0.410  10.134  22.843  0.00  0.00    +0.000 C 
ATOM     23  O   UNL     1       0.771  10.256  22.061  0.00  0.00    +0.000 OA
ENDBRANCH  16  23
ENDBRANCH   1  20
TORSDOF 2
ENDMDL
MODEL 7
REMARK VINA RESULT:      -6.9      3.209      4.999
REMARK  Name = 
REMARK  5 active torsions:
REMARK  status: ('A' for Active; 'I' for Inactive)
REMARK    1  A    between atoms: C_1  and  O_2
REMARK    2  A    between atoms: O_2  and  C_3
REMARK    3  A    between atoms: C_7  and  N_8
REMARK    4  A    between atoms: C_14  and  C_15
REMARK    5  A    between atoms: N_18  and  C_19
REMARK                            x       y       z     vdW  Elec       q    Type
REMARK                         _______ _______ _______ _____ _____    ______ ____
ROOT
ATOM      1  N   UNL     1       2.878   6.707  18.702  0.00  0.00    +0.000 N 
ATOM      2  C   UNL     1       2.132   7.877  18.861  0.00  0.00    +0.000 A 
ATOM      3  N   UNL     1       1.858   8.577  17.751  0.00  0.00    +0.000 NA
ATOM      4  C   UNL     1       1.155   9.720  17.912  0.00  0.00    +0.000 A 
ATOM      5  C   UNL     1       0.724  10.204  19.129  0.00  0.00    +0.000 A 
ATOM      6  N   UNL     1       0.008  11.408  19.226  0.00  0.00    +0.000 NA
ATOM      7  C   UNL     1      -0.334  11.798  20.420  0.00  0.00    +0.000 A 
ATOM      8  C   UNL     1      -1.093  13.081  20.604  0.00  0.00    +0.000 C 
ATOM      9  C   UNL     1      -0.002  11.016  21.688  0.00  0.00    +0.000 A 
ATOM     10  O   UNL     1      -0.359  11.472  22.766  0.00  0.00    +0.000 OA
ATOM     11  N   UNL     1       0.688   9.832  21.504  0.00  0.00    +0.000 N 
ATOM     12  C   UNL     1       1.070   9.008  22.635  0.00  0.00    +0.000 C 
ATOM     13  C   UNL     1       1.070   9.410  20.209  0.00  0.00    +0.000 A 
ATOM     14  N   UNL     1       1.756   8.259  20.090  0.00  0.00    +0.000 NA
ATOM     15  H   UNL     1       2.959   6.528  17.708  0.00  0.00    +0.000 HD
ENDROOT
BRANCH   1  20
ATOM     16  C   UNL     1       3.397   3.205  19.812  0.00  0.00    +0.000 A 
ATOM     17  C   UNL     1       2.520   3.133  20.897  0.00  0.00    +0.000 A 
ATOM     18  C   UNL     1       1.757   4.238  21.265  0.00  0.00    +0.000 A 
ATOM     19  C   UNL     1       1.875   5.429  20.551  0.00  0.00    +0.000 A 
ATOM     20  C   UNL     1       2.762   5.532  19.471  0.00  0.00    +0.000 A 
ATOM     21  C   UNL     1       3.504   4.401  19.096  0.00  0.00    +0.000 A 
BRANCH  16  23
ATOM     22  C   UNL     1       3.744   1.355  18.359  0.00  0.00    +0.000 C 
ATOM     23  O   UNL     1       4.077   2.047  19.555  0.00  0.00    +0.000 OA
ENDBRANCH  16  23
ENDBRANCH   1  20
TORSDOF 2
ENDMDL
MODEL 8
REMARK VINA RESULT:      -6.9      3.242      4.621
REMARK  Name = 
REMARK  5 active torsions:
REMARK  status: ('A' for Active; 'I' for Inactive)
REMARK    1  A    between atoms: C_1  and  O_2
REMARK    2  A    between atoms: O_2  and  C_3
REMARK    3  A    between atoms: C_7  and  N_8
REMARK    4  A    between atoms: C_14  and  C_15
REMARK    5  A    between atoms: N_18  and  C_19
REMARK                            x       y       z     vdW  Elec       q    Type
REMARK                         _______ _______ _______ _____ _____    ______ ____
ROOT
ATOM      1  N   UNL     1       7.320   4.761  16.092  0.00  0.00    +0.000 N 
ATOM      2  C   UNL     1       6.283   4.829  17.026  0.00  0.00    +0.000 A 
ATOM      3  N   UNL     1       6.512   5.549  18.134  0.00  0.00    +0.000 NA
ATOM      4  C   UNL     1       5.513   5.594  19.045  0.00  0.00    +0.000 A 
ATOM      5  C   UNL     1       4.304   4.946  18.907  0.00  0.00    +0.000 A 
ATOM      6  N   UNL     1       3.314   5.025  19.900  0.00  0.00    +0.000 NA
ATOM      7  C   UNL     1       2.216   4.357  19.694  0.00  0.00    +0.000 A 
ATOM      8  C   UNL     1       1.116   4.385  20.716  0.00  0.00    +0.000 C 
ATOM      9  C   UNL     1       1.963   3.518  18.445  0.00  0.00    +0.000 A 
ATOM     10  O   UNL     1       0.900   2.918  18.349  0.00  0.00    +0.000 OA
ATOM     11  N   UNL     1       2.980   3.508  17.507  0.00  0.00    +0.000 N 
ATOM     12  C   UNL     1       2.859   2.737  16.285  0.00  0.00    +0.000 C 
ATOM     13  C   UNL     1       4.178   4.224  17.733  0.00  0.00    +0.000 A 
ATOM     14  N   UNL     1       5.142   4.165  16.795  0.00  0.00    +0.000 NA
ATOM     15  H   UNL     1       8.038   5.415  16.383  0.00  0.00    +0.000 HD
ENDROOT
BRANCH   1  20
ATOM     16  C   UNL     1       6.181   3.557  12.774  0.00  0.00    +0.000 A 
ATOM     17  C   UNL     1       6.913   4.385  11.920  0.00  0.00    +0.000 A 
ATOM     18  C   UNL     1       7.784   5.341  12.437  0.00  0.00    +0.000 A 
ATOM     19  C   UNL     1       7.919   5.480  13.816  0.00  0.00    +0.000 A 
ATOM     20  C   UNL     1       7.180   4.675  14.693  0.00  0.00    +0.000 A 
ATOM     21  C   UNL     1       6.327   3.698  14.156  0.00  0.00    +0.000 A 
BRANCH  16  23
ATOM     22  C   UNL     1       4.292   3.187  11.378  0.00  0.00    +0.000 C 
ATOM     23  O   UNL     1       5.372   2.658  12.135  0.00  0.00    +0.000 OA
ENDBRANCH  16  23
ENDBRANCH   1  20
TORSDOF 2
ENDMDL
MODEL 9
REMARK VINA RESULT:      -6.8      1.304      1.401
REMARK  Name = 
REMARK  5 active torsions:
REMARK  status: ('A' for Active; 'I' for Inactive)
REMARK    1  A    between atoms: C_1  and  O_2
REMARK    2  A    between atoms: O_2  and  C_3
REMARK    3  A    between atoms: C_7  and  N_8
REMARK    4  A    between atoms: C_14  and  C_15
REMARK    5  A    between atoms: N_18  and  C_19
REMARK                            x       y       z     vdW  Elec       q    Type
REMARK                         _______ _______ _______ _____ _____    ______ ____
ROOT
ATOM      1  N   UNL     1       3.261   4.076  18.767  0.00  0.00    +0.000 N 
ATOM      2  C   UNL     1       2.628   5.147  19.402  0.00  0.00    +0.000 A 
ATOM      3  N   UNL     1       2.035   4.891  20.577  0.00  0.00    +0.000 NA
ATOM      4  C   UNL     1       1.404   5.926  21.177  0.00  0.00    +0.000 A 
ATOM      5  C   UNL     1       1.328   7.200  20.655  0.00  0.00    +0.000 A 
ATOM      6  N   UNL     1       0.645   8.226  21.326  0.00  0.00    +0.000 NA
ATOM      7  C   UNL     1       0.605   9.389  20.743  0.00  0.00    +0.000 A 
ATOM      8  C   UNL     1      -0.117  10.533  21.395  0.00  0.00    +0.000 C 
ATOM      9  C   UNL     1       1.259   9.677  19.394  0.00  0.00    +0.000 A 
ATOM     10  O   UNL     1       1.155  10.803  18.923  0.00  0.00    +0.000 OA
ATOM     11  N   UNL     1       1.928   8.618  18.809  0.00  0.00    +0.000 N 
ATOM     12  C   UNL     1       2.579   8.769  17.522  0.00  0.00    +0.000 C 
ATOM     13  C   UNL     1       1.966   7.351  19.435  0.00  0.00    +0.000 A 
ATOM     14  N   UNL     1       2.616   6.351  18.812  0.00  0.00    +0.000 NA
ATOM     15  H   UNL     1       3.268   3.296  19.416  0.00  0.00    +0.000 HD
ENDROOT
BRANCH   1  20
ATOM     16  C   UNL     1       6.817   4.547  17.823  0.00  0.00    +0.000 A 
ATOM     17  C   UNL     1       6.752   4.386  16.437  0.00  0.00    +0.000 A 
ATOM     18  C   UNL     1       5.536   4.123  15.811  0.00  0.00    +0.000 A 
ATOM     19  C   UNL     1       4.376   4.009  16.575  0.00  0.00    +0.000 A 
ATOM     20  C   UNL     1       4.419   4.145  17.969  0.00  0.00    +0.000 A 
ATOM     21  C   UNL     1       5.648   4.438  18.581  0.00  0.00    +0.000 A 
BRANCH  16  23
ATOM     22  C   UNL     1       8.168   5.745  19.370  0.00  0.00    +0.000 C 
ATOM     23  O   UNL     1       8.070   4.810  18.304  0.00  0.00    +0.000 OA
ENDBRANCH  16  23
ENDBRANCH   1  20
TORSDOF 2
ENDMDL
