MODEL 1
REMARK VINA RESULT:      -9.3      0.000      0.000
REMARK  Name = 
REMARK  3 active torsions:
REMARK  status: ('A' for Active; 'I' for Inactive)
REMARK    1  A    between atoms: C_7  and  C_8
REMARK    2  A    between atoms: C_12  and  N_13
REMARK    3  A    between atoms: C_14  and  C_16
REMARK                            x       y       z     vdW  Elec       q    Type
REMARK                         _______ _______ _______ _____ _____    ______ ____
ROOT
ATOM      1  C   UNL     1       3.572   4.168  19.052  0.00  0.00    +0.000 A 
ATOM      2  C   UNL     1       3.577   3.021  19.857  0.00  0.00    +0.000 A 
ATOM      3  C   UNL     1       2.800   2.952  21.008  0.00  0.00    +0.000 A 
ATOM      4  C   UNL     1       2.052   4.055  21.406  0.00  0.00    +0.000 A 
ATOM      5  C   UNL     1       2.071   5.238  20.666  0.00  0.00    +0.000 A 
ATOM      6  C   UNL     1       2.814   5.278  19.474  0.00  0.00    +0.000 A 
ENDROOT
BRANCH   1  13
ATOM      7  N   UNL     1       7.538   5.260  14.521  0.00  0.00    +0.000 N 
ATOM      8  C   UNL     1       7.055   5.483  15.782  0.00  0.00    +0.000 A 
ATOM      9  N   UNL     1       7.664   6.387  16.517  0.00  0.00    +0.000 NA
ATOM     10  C   UNL     1       7.213   6.597  17.805  0.00  0.00    +0.000 A 
ATOM     11  C   UNL     1       6.179   5.943  18.361  0.00  0.00    +0.000 A 
ATOM     12  N   UNL     1       5.482   5.024  17.592  0.00  0.00    +0.000 N 
ATOM     13  C   UNL     1       4.368   4.228  17.820  0.00  0.00    +0.000 A 
ATOM     14  C   UNL     1       4.206   3.546  16.619  0.00  0.00    +0.000 A 
ATOM     15  N   UNL     1       5.151   3.892  15.686  0.00  0.00    +0.000 NA
ATOM     16  C   UNL     1       5.901   4.774  16.309  0.00  0.00    +0.000 A 
ATOM     17  H   UNL     1       8.084   6.032  14.159  0.00  0.00    +0.000 HD
ATOM     18  H   UNL     1       6.864   4.860  13.879  0.00  0.00    +0.000 HD
ENDBRANCH   1  13
BRANCH   5  19
ATOM     19  N   UNL     1       1.362   6.396  21.060  0.00  0.00    +0.000 N 
ATOM     20  C   UNL     1       1.511   7.661  20.511  0.00  0.00    +0.000 C 
ATOM     21  O   UNL     1       2.220   7.938  19.545  0.00  0.00    +0.000 OA
ATOM     22  H   UNL     1       0.636   6.266  21.759  0.00  0.00    +0.000 HD
BRANCH  20  23
ATOM     23  C   UNL     1       0.732   8.778  21.114  0.00  0.00    +0.000 A 
ATOM     24  C   UNL     1       0.629   8.826  22.517  0.00  0.00    +0.000 A 
ATOM     25  C   UNL     1      -0.105   9.834  23.144  0.00  0.00    +0.000 A 
ATOM     26  C   UNL     1      -0.739  10.798  22.368  0.00  0.00    +0.000 A 
ATOM     27  F   UNL     1      -1.446  11.762  22.967  0.00  0.00    +0.000 F 
ATOM     28  C   UNL     1      -0.648  10.774  20.983  0.00  0.00    +0.000 A 
ATOM     29  C   UNL     1       0.088   9.764  20.363  0.00  0.00    +0.000 A 
ATOM     30  F   UNL     1       0.160   9.768  19.022  0.00  0.00    +0.000 F 
ENDBRANCH  20  23
ENDBRANCH   5  19
TORSDOF 3
ENDMDL
MODEL 2
REMARK VINA RESULT:      -9.0      0.944      1.895
REMARK  Name = 
REMARK  3 active torsions:
REMARK  status: ('A' for Active; 'I' for Inactive)
REMARK    1  A    between atoms: C_7  and  C_8
REMARK    2  A    between atoms: C_12  and  N_13
REMARK    3  A    between atoms: C_14  and  C_16
REMARK                            x       y       z     vdW  Elec       q    Type
REMARK                         _______ _______ _______ _____ _____    ______ ____
ROOT
ATOM      1  C   UNL     1       4.596   4.993  18.644  0.00  0.00    +0.000 A 
ATOM      2  C   UNL     1       4.451   3.676  19.101  0.00  0.00    +0.000 A 
ATOM      3  C   UNL     1       3.453   3.341  20.009  0.00  0.00    +0.000 A 
ATOM      4  C   UNL     1       2.622   4.330  20.523  0.00  0.00    +0.000 A 
ATOM      5  C   UNL     1       2.776   5.664  20.141  0.00  0.00    +0.000 A 
ATOM      6  C   UNL     1       3.750   5.984  19.180  0.00  0.00    +0.000 A 
ENDROOT
BRANCH   1  13
ATOM      7  N   UNL     1       8.315   5.655  13.829  0.00  0.00    +0.000 N 
ATOM      8  C   UNL     1       7.232   5.093  14.449  0.00  0.00    +0.000 A 
ATOM      9  N   UNL     1       6.536   4.205  13.774  0.00  0.00    +0.000 NA
ATOM     10  C   UNL     1       5.418   3.657  14.372  0.00  0.00    +0.000 A 
ATOM     11  C   UNL     1       4.995   3.962  15.610  0.00  0.00    +0.000 A 
ATOM     12  N   UNL     1       5.740   4.853  16.367  0.00  0.00    +0.000 N 
ATOM     13  C   UNL     1       5.629   5.342  17.662  0.00  0.00    +0.000 A 
ATOM     14  C   UNL     1       6.717   6.200  17.778  0.00  0.00    +0.000 A 
ATOM     15  N   UNL     1       7.475   6.247  16.634  0.00  0.00    +0.000 NA
ATOM     16  C   UNL     1       6.854   5.432  15.811  0.00  0.00    +0.000 A 
ATOM     17  H   UNL     1       8.671   5.099  13.061  0.00  0.00    +0.000 HD
ATOM     18  H   UNL     1       9.013   6.028  14.462  0.00  0.00    +0.000 HD
ENDBRANCH   1  13
BRANCH   5  19
ATOM     19  N   UNL     1       1.982   6.706  20.674  0.00  0.00    +0.000 N 
ATOM     20  C   UNL     1       1.707   7.912  20.046  0.00  0.00    +0.000 C 
ATOM     21  O   UNL     1       2.043   8.212  18.903  0.00  0.00    +0.000 OA
ATOM     22  H   UNL     1       1.525   6.518  21.561  0.00  0.00    +0.000 HD
BRANCH  20  23
ATOM     23  C   UNL     1       0.914   8.923  20.800  0.00  0.00    +0.000 A 
ATOM     24  C   UNL     1       0.893   8.828  22.205  0.00  0.00    +0.000 A 
ATOM     25  C   UNL     1       0.152   9.731  22.969  0.00  0.00    +0.000 A 
ATOM     26  C   UNL     1      -0.571  10.731  22.330  0.00  0.00    +0.000 A 
ATOM     27  F   UNL     1      -1.285  11.594  23.060  0.00  0.00    +0.000 F 
ATOM     28  C   UNL     1      -0.562  10.848  20.947  0.00  0.00    +0.000 A 
ATOM     29  C   UNL     1       0.181   9.943  20.189  0.00  0.00    +0.000 A 
ATOM     30  F   UNL     1       0.174  10.081  18.853  0.00  0.00    +0.000 F 
ENDBRANCH  20  23
ENDBRANCH   5  19
TORSDOF 3
ENDMDL
MODEL 3
REMARK VINA RESULT:      -8.6      4.708      9.579
REMARK  Name = 
REMARK  3 active torsions:
REMARK  status: ('A' for Active; 'I' for Inactive)
REMARK    1  A    between atoms: C_7  and  C_8
REMARK    2  A    between atoms: C_12  and  N_13
REMARK    3  A    between atoms: C_14  and  C_16
REMARK                            x       y       z     vdW  Elec       q    Type
REMARK                         _______ _______ _______ _____ _____    ______ ____
ROOT
ATOM      1  C   UNL     1      -0.272  11.554  18.721  0.00  0.00    +0.000 A 
ATOM      2  C   UNL     1       0.671  12.588  18.784  0.00  0.00    +0.000 A 
ATOM      3  C   UNL     1       2.003  12.362  18.456  0.00  0.00    +0.000 A 
ATOM      4  C   UNL     1       2.425  11.080  18.119  0.00  0.00    +0.000 A 
ATOM      5  C   UNL     1       1.528  10.011  18.107  0.00  0.00    +0.000 A 
ATOM      6  C   UNL     1       0.174  10.261  18.385  0.00  0.00    +0.000 A 
ENDROOT
BRANCH   1  13
ATOM      7  N   UNL     1      -6.354  12.217  18.889  0.00  0.00    +0.000 N 
ATOM      8  C   UNL     1      -5.193  11.891  18.242  0.00  0.00    +0.000 A 
ATOM      9  N   UNL     1      -5.282  11.508  16.987  0.00  0.00    +0.000 NA
ATOM     10  C   UNL     1      -4.123  11.139  16.331  0.00  0.00    +0.000 A 
ATOM     11  C   UNL     1      -2.900  11.155  16.888  0.00  0.00    +0.000 A 
ATOM     12  N   UNL     1      -2.768  11.608  18.191  0.00  0.00    +0.000 N 
ATOM     13  C   UNL     1      -1.685  11.801  19.037  0.00  0.00    +0.000 A 
ATOM     14  C   UNL     1      -2.267  12.281  20.205  0.00  0.00    +0.000 A 
ATOM     15  N   UNL     1      -3.631  12.394  20.105  0.00  0.00    +0.000 NA
ATOM     16  C   UNL     1      -3.894  11.975  18.887  0.00  0.00    +0.000 A 
ATOM     17  H   UNL     1      -7.110  12.458  18.259  0.00  0.00    +0.000 HD
ATOM     18  H   UNL     1      -6.232  12.834  19.684  0.00  0.00    +0.000 HD
ENDBRANCH   1  13
BRANCH   5  19
ATOM     19  N   UNL     1       1.926   8.686  17.815  0.00  0.00    +0.000 N 
ATOM     20  C   UNL     1       2.242   7.712  18.751  0.00  0.00    +0.000 C 
ATOM     21  O   UNL     1       2.138   7.837  19.970  0.00  0.00    +0.000 OA
ATOM     22  H   UNL     1       1.911   8.414  16.836  0.00  0.00    +0.000 HD
BRANCH  20  23
ATOM     23  C   UNL     1       2.719   6.393  18.249  0.00  0.00    +0.000 A 
ATOM     24  C   UNL     1       1.887   5.274  18.447  0.00  0.00    +0.000 A 
ATOM     25  C   UNL     1       2.285   4.007  18.020  0.00  0.00    +0.000 A 
ATOM     26  C   UNL     1       3.517   3.854  17.396  0.00  0.00    +0.000 A 
ATOM     27  F   UNL     1       3.902   2.639  16.991  0.00  0.00    +0.000 F 
ATOM     28  C   UNL     1       4.352   4.943  17.186  0.00  0.00    +0.000 A 
ATOM     29  C   UNL     1       3.949   6.207  17.614  0.00  0.00    +0.000 A 
ATOM     30  F   UNL     1       4.776   7.242  17.396  0.00  0.00    +0.000 F 
ENDBRANCH  20  23
ENDBRANCH   5  19
TORSDOF 3
ENDMDL
MODEL 4
REMARK VINA RESULT:      -8.6      4.946      9.825
REMARK  Name = 
REMARK  3 active torsions:
REMARK  status: ('A' for Active; 'I' for Inactive)
REMARK    1  A    between atoms: C_7  and  C_8
REMARK    2  A    between atoms: C_12  and  N_13
REMARK    3  A    between atoms: C_14  and  C_16
REMARK                            x       y       z     vdW  Elec       q    Type
REMARK                         _______ _______ _______ _____ _____    ______ ____
ROOT
ATOM      1  C   UNL     1      -1.086  11.103  18.168  0.00  0.00    +0.000 A 
ATOM      2  C   UNL     1      -0.507  12.048  19.026  0.00  0.00    +0.000 A 
ATOM      3  C   UNL     1       0.824  11.939  19.413  0.00  0.00    +0.000 A 
ATOM      4  C   UNL     1       1.580  10.848  18.999  0.00  0.00    +0.000 A 
ATOM      5  C   UNL     1       1.020   9.852  18.197  0.00  0.00    +0.000 A 
ATOM      6  C   UNL     1      -0.309  10.000  17.764  0.00  0.00    +0.000 A 
ENDROOT
BRANCH   1  13
ATOM      7  N   UNL     1      -7.079  12.129  17.467  0.00  0.00    +0.000 N 
ATOM      8  C   UNL     1      -5.927  12.164  18.205  0.00  0.00    +0.000 A 
ATOM      9  N   UNL     1      -6.002  12.636  19.430  0.00  0.00    +0.000 NA
ATOM     10  C   UNL     1      -4.841  12.714  20.174  0.00  0.00    +0.000 A 
ATOM     11  C   UNL     1      -3.632  12.327  19.734  0.00  0.00    +0.000 A 
ATOM     12  N   UNL     1      -3.531  11.772  18.467  0.00  0.00    +0.000 N 
ATOM     13  C   UNL     1      -2.482  11.235  17.734  0.00  0.00    +0.000 A 
ATOM     14  C   UNL     1      -3.084  10.859  16.537  0.00  0.00    +0.000 A 
ATOM     15  N   UNL     1      -4.429  11.132  16.515  0.00  0.00    +0.000 NA
ATOM     16  C   UNL     1      -4.657  11.685  17.686  0.00  0.00    +0.000 A 
ATOM     17  H   UNL     1      -7.919  12.146  18.034  0.00  0.00    +0.000 HD
ATOM     18  H   UNL     1      -7.073  11.452  16.713  0.00  0.00    +0.000 HD
ENDBRANCH   1  13
BRANCH   5  19
ATOM     19  N   UNL     1       1.740   8.705  17.792  0.00  0.00    +0.000 N 
ATOM     20  C   UNL     1       2.245   7.728  18.637  0.00  0.00    +0.000 C 
ATOM     21  O   UNL     1       2.064   7.676  19.852  0.00  0.00    +0.000 OA
ATOM     22  H   UNL     1       1.832   8.558  16.791  0.00  0.00    +0.000 HD
BRANCH  20  23
ATOM     23  C   UNL     1       3.049   6.631  18.031  0.00  0.00    +0.000 A 
ATOM     24  C   UNL     1       4.221   6.982  17.334  0.00  0.00    +0.000 A 
ATOM     25  C   UNL     1       5.008   6.004  16.725  0.00  0.00    +0.000 A 
ATOM     26  C   UNL     1       4.624   4.671  16.809  0.00  0.00    +0.000 A 
ATOM     27  F   UNL     1       5.374   3.732  16.221  0.00  0.00    +0.000 F 
ATOM     28  C   UNL     1       3.475   4.300  17.494  0.00  0.00    +0.000 A 
ATOM     29  C   UNL     1       2.694   5.282  18.102  0.00  0.00    +0.000 A 
ATOM     30  F   UNL     1       1.589   4.894  18.760  0.00  0.00    +0.000 F 
ENDBRANCH  20  23
ENDBRANCH   5  19
TORSDOF 3
ENDMDL
MODEL 5
REMARK VINA RESULT:      -8.6      2.461      4.505
REMARK  Name = 
REMARK  3 active torsions:
REMARK  status: ('A' for Active; 'I' for Inactive)
REMARK    1  A    between atoms: C_7  and  C_8
REMARK    2  A    between atoms: C_12  and  N_13
REMARK    3  A    between atoms: C_14  and  C_16
REMARK                            x       y       z     vdW  Elec       q    Type
REMARK                         _______ _______ _______ _____ _____    ______ ____
ROOT
ATOM      1  C   UNL     1       2.188   7.666  19.146  0.00  0.00    +0.000 A 
ATOM      2  C   UNL     1       2.657   8.211  17.943  0.00  0.00    +0.000 A 
ATOM      3  C   UNL     1       2.310   9.502  17.561  0.00  0.00    +0.000 A 
ATOM      4  C   UNL     1       1.437  10.247  18.346  0.00  0.00    +0.000 A 
ATOM      5  C   UNL     1       0.898   9.715  19.519  0.00  0.00    +0.000 A 
ATOM      6  C   UNL     1       1.300   8.432  19.927  0.00  0.00    +0.000 A 
ENDROOT
BRANCH   1  13
ATOM      7  N   UNL     1       4.764   2.203  20.139  0.00  0.00    +0.000 N 
ATOM      8  C   UNL     1       4.726   3.427  19.526  0.00  0.00    +0.000 A 
ATOM      9  N   UNL     1       5.682   3.708  18.669  0.00  0.00    +0.000 NA
ATOM     10  C   UNL     1       5.681   4.953  18.071  0.00  0.00    +0.000 A 
ATOM     11  C   UNL     1       4.756   5.901  18.298  0.00  0.00    +0.000 A 
ATOM     12  N   UNL     1       3.704   5.613  19.154  0.00  0.00    +0.000 N 
ATOM     13  C   UNL     1       2.580   6.315  19.566  0.00  0.00    +0.000 A 
ATOM     14  C   UNL     1       1.946   5.431  20.432  0.00  0.00    +0.000 A 
ATOM     15  N   UNL     1       2.619   4.241  20.556  0.00  0.00    +0.000 NA
ATOM     16  C   UNL     1       3.670   4.392  19.781  0.00  0.00    +0.000 A 
ATOM     17  H   UNL     1       5.311   1.518  19.632  0.00  0.00    +0.000 HD
ATOM     18  H   UNL     1       3.867   1.880  20.484  0.00  0.00    +0.000 HD
ENDBRANCH   1  13
BRANCH   5  19
ATOM     19  N   UNL     1      -0.027  10.422  20.322  0.00  0.00    +0.000 N 
ATOM     20  C   UNL     1       0.285  11.452  21.196  0.00  0.00    +0.000 C 
ATOM     21  O   UNL     1       1.398  11.956  21.335  0.00  0.00    +0.000 OA
ATOM     22  H   UNL     1      -1.008  10.194  20.189  0.00  0.00    +0.000 HD
BRANCH  20  23
ATOM     23  C   UNL     1      -0.817  12.024  22.019  0.00  0.00    +0.000 A 
ATOM     24  C   UNL     1      -1.153  13.377  21.821  0.00  0.00    +0.000 A 
ATOM     25  C   UNL     1      -2.161  13.979  22.575  0.00  0.00    +0.000 A 
ATOM     26  C   UNL     1      -2.836  13.230  23.531  0.00  0.00    +0.000 A 
ATOM     27  F   UNL     1      -3.799  13.806  24.258  0.00  0.00    +0.000 F 
ATOM     28  C   UNL     1      -2.526  11.893  23.742  0.00  0.00    +0.000 A 
ATOM     29  C   UNL     1      -1.518  11.297  22.985  0.00  0.00    +0.000 A 
ATOM     30  F   UNL     1      -1.241  10.002  23.208  0.00  0.00    +0.000 F 
ENDBRANCH  20  23
ENDBRANCH   5  19
TORSDOF 3
ENDMDL
MODEL 6
REMARK VINA RESULT:      -8.5      3.732      8.781
REMARK  Name = 
REMARK  3 active torsions:
REMARK  status: ('A' for Active; 'I' for Inactive)
REMARK    1  A    between atoms: C_7  and  C_8
REMARK    2  A    between atoms: C_12  and  N_13
REMARK    3  A    between atoms: C_14  and  C_16
REMARK                            x       y       z     vdW  Elec       q    Type
REMARK                         _______ _______ _______ _____ _____    ______ ____
ROOT
ATOM      1  C   UNL     1       1.803   7.513  19.818  0.00  0.00    +0.000 A 
ATOM      2  C   UNL     1       1.504   6.521  20.762  0.00  0.00    +0.000 A 
ATOM      3  C   UNL     1       2.010   5.233  20.629  0.00  0.00    +0.000 A 
ATOM      4  C   UNL     1       2.772   4.899  19.515  0.00  0.00    +0.000 A 
ATOM      5  C   UNL     1       3.037   5.841  18.520  0.00  0.00    +0.000 A 
ATOM      6  C   UNL     1       2.571   7.155  18.692  0.00  0.00    +0.000 A 
ENDROOT
BRANCH   1  13
ATOM      7  N   UNL     1      -0.588  12.856  21.604  0.00  0.00    +0.000 N 
ATOM      8  C   UNL     1      -0.243  11.551  21.832  0.00  0.00    +0.000 A 
ATOM      9  N   UNL     1      -0.519  11.047  23.014  0.00  0.00    +0.000 NA
ATOM     10  C   UNL     1      -0.144   9.743  23.274  0.00  0.00    +0.000 A 
ATOM     11  C   UNL     1       0.480   8.944  22.392  0.00  0.00    +0.000 A 
ATOM     12  N   UNL     1       0.733   9.430  21.118  0.00  0.00    +0.000 N 
ATOM     13  C   UNL     1       1.296   8.882  19.974  0.00  0.00    +0.000 A 
ATOM     14  C   UNL     1       1.241   9.924  19.055  0.00  0.00    +0.000 A 
ATOM     15  N   UNL     1       0.672  11.058  19.578  0.00  0.00    +0.000 NA
ATOM     16  C   UNL     1       0.388  10.725  20.817  0.00  0.00    +0.000 A 
ATOM     17  H   UNL     1      -1.312  13.195  22.226  0.00  0.00    +0.000 HD
ATOM     18  H   UNL     1      -0.704  13.093  20.625  0.00  0.00    +0.000 HD
ENDBRANCH   1  13
BRANCH   5  19
ATOM     19  N   UNL     1       3.769   5.530  17.350  0.00  0.00    +0.000 N 
ATOM     20  C   UNL     1       5.073   5.058  17.316  0.00  0.00    +0.000 C 
ATOM     21  O   UNL     1       5.749   4.762  18.299  0.00  0.00    +0.000 OA
ATOM     22  H   UNL     1       3.266   5.596  16.471  0.00  0.00    +0.000 HD
BRANCH  20  23
ATOM     23  C   UNL     1       5.707   4.862  15.982  0.00  0.00    +0.000 A 
ATOM     24  C   UNL     1       5.016   4.083  15.034  0.00  0.00    +0.000 A 
ATOM     25  C   UNL     1       5.565   3.844  13.773  0.00  0.00    +0.000 A 
ATOM     26  C   UNL     1       6.807   4.382  13.458  0.00  0.00    +0.000 A 
ATOM     27  F   UNL     1       7.337   4.149  12.252  0.00  0.00    +0.000 F 
ATOM     28  C   UNL     1       7.505   5.156  14.375  0.00  0.00    +0.000 A 
ATOM     29  C   UNL     1       6.951   5.393  15.632  0.00  0.00    +0.000 A 
ATOM     30  F   UNL     1       7.646   6.147  16.498  0.00  0.00    +0.000 F 
ENDBRANCH  20  23
ENDBRANCH   5  19
TORSDOF 3
ENDMDL
MODEL 7
REMARK VINA RESULT:      -8.5      1.913      2.577
REMARK  Name = 
REMARK  3 active torsions:
REMARK  status: ('A' for Active; 'I' for Inactive)
REMARK    1  A    between atoms: C_7  and  C_8
REMARK    2  A    between atoms: C_12  and  N_13
REMARK    3  A    between atoms: C_14  and  C_16
REMARK                            x       y       z     vdW  Elec       q    Type
REMARK                         _______ _______ _______ _____ _____    ______ ____
ROOT
ATOM      1  C   UNL     1       3.220   6.446  18.729  0.00  0.00    +0.000 A 
ATOM      2  C   UNL     1       3.040   5.334  19.563  0.00  0.00    +0.000 A 
ATOM      3  C   UNL     1       2.141   5.375  20.622  0.00  0.00    +0.000 A 
ATOM      4  C   UNL     1       1.453   6.550  20.903  0.00  0.00    +0.000 A 
ATOM      5  C   UNL     1       1.654   7.698  20.135  0.00  0.00    +0.000 A 
ATOM      6  C   UNL     1       2.521   7.631  19.032  0.00  0.00    +0.000 A 
ENDROOT
BRANCH   1  13
ATOM      7  N   UNL     1       7.755   5.524  14.723  0.00  0.00    +0.000 N 
ATOM      8  C   UNL     1       7.173   5.347  15.950  0.00  0.00    +0.000 A 
ATOM      9  N   UNL     1       7.825   4.627  16.835  0.00  0.00    +0.000 NA
ATOM     10  C   UNL     1       7.235   4.407  18.064  0.00  0.00    +0.000 A 
ATOM     11  C   UNL     1       6.035   4.892  18.425  0.00  0.00    +0.000 A 
ATOM     12  N   UNL     1       5.349   5.702  17.533  0.00  0.00    +0.000 N 
ATOM     13  C   UNL     1       4.147   6.393  17.591  0.00  0.00    +0.000 A 
ATOM     14  C   UNL     1       4.065   7.006  16.345  0.00  0.00    +0.000 A 
ATOM     15  N   UNL     1       5.149   6.728  15.550  0.00  0.00    +0.000 NA
ATOM     16  C   UNL     1       5.891   5.939  16.294  0.00  0.00    +0.000 A 
ATOM     17  H   UNL     1       8.757   5.379  14.730  0.00  0.00    +0.000 HD
ATOM     18  H   UNL     1       7.434   6.345  14.222  0.00  0.00    +0.000 HD
ENDBRANCH   1  13
BRANCH   5  19
ATOM     19  N   UNL     1       1.009   8.925  20.415  0.00  0.00    +0.000 N 
ATOM     20  C   UNL     1       1.076   9.617  21.615  0.00  0.00    +0.000 C 
ATOM     21  O   UNL     1       1.775   9.307  22.578  0.00  0.00    +0.000 OA
ATOM     22  H   UNL     1       0.512   9.362  19.644  0.00  0.00    +0.000 HD
BRANCH  20  23
ATOM     23  C   UNL     1       0.261  10.857  21.751  0.00  0.00    +0.000 A 
ATOM     24  C   UNL     1       0.553  11.933  20.891  0.00  0.00    +0.000 A 
ATOM     25  C   UNL     1      -0.159  13.130  20.980  0.00  0.00    +0.000 A 
ATOM     26  C   UNL     1      -1.164  13.255  21.931  0.00  0.00    +0.000 A 
ATOM     27  F   UNL     1      -1.844  14.403  22.022  0.00  0.00    +0.000 F 
ATOM     28  C   UNL     1      -1.473  12.206  22.787  0.00  0.00    +0.000 A 
ATOM     29  C   UNL     1      -0.759  11.012  22.692  0.00  0.00    +0.000 A 
ATOM     30  F   UNL     1      -1.081  10.015  23.531  0.00  0.00    +0.000 F 
ENDBRANCH  20  23
ENDBRANCH   5  19
TORSDOF 3
ENDMDL
MODEL 8
REMARK VINA RESULT:      -8.5      0.948      1.320
REMARK  Name = 
REMARK  3 active torsions:
REMARK  status: ('A' for Active; 'I' for Inactive)
REMARK    1  A    between atoms: C_7  and  C_8
REMARK    2  A    between atoms: C_12  and  N_13
REMARK    3  A    between atoms: C_14  and  C_16
REMARK                            x       y       z     vdW  Elec       q    Type
REMARK                         _______ _______ _______ _____ _____    ______ ____
ROOT
ATOM      1  C   UNL     1       3.537   4.396  18.985  0.00  0.00    +0.000 A 
ATOM      2  C   UNL     1       3.535   3.300  19.858  0.00  0.00    +0.000 A 
ATOM      3  C   UNL     1       2.742   3.299  21.001  0.00  0.00    +0.000 A 
ATOM      4  C   UNL     1       1.986   4.421  21.321  0.00  0.00    +0.000 A 
ATOM      5  C   UNL     1       2.012   5.557  20.511  0.00  0.00    +0.000 A 
ATOM      6  C   UNL     1       2.770   5.527  19.328  0.00  0.00    +0.000 A 
ENDROOT
BRANCH   1  13
ATOM      7  N   UNL     1       7.567   5.218  14.453  0.00  0.00    +0.000 N 
ATOM      8  C   UNL     1       7.069   5.513  15.693  0.00  0.00    +0.000 A 
ATOM      9  N   UNL     1       7.672   6.454  16.384  0.00  0.00    +0.000 NA
ATOM     10  C   UNL     1       7.206   6.737  17.653  0.00  0.00    +0.000 A 
ATOM     11  C   UNL     1       6.161   6.119  18.231  0.00  0.00    +0.000 A 
ATOM     12  N   UNL     1       5.470   5.162  17.505  0.00  0.00    +0.000 N 
ATOM     13  C   UNL     1       4.349   4.385  17.762  0.00  0.00    +0.000 A 
ATOM     14  C   UNL     1       4.199   3.638  16.598  0.00  0.00    +0.000 A 
ATOM     15  N   UNL     1       5.158   3.928  15.660  0.00  0.00    +0.000 NA
ATOM     16  C   UNL     1       5.904   4.839  16.243  0.00  0.00    +0.000 A 
ATOM     17  H   UNL     1       8.121   5.967  14.055  0.00  0.00    +0.000 HD
ATOM     18  H   UNL     1       6.899   4.786  13.825  0.00  0.00    +0.000 HD
ENDBRANCH   1  13
BRANCH   5  19
ATOM     19  N   UNL     1       1.293   6.734  20.825  0.00  0.00    +0.000 N 
ATOM     20  C   UNL     1       1.474   7.973  20.228  0.00  0.00    +0.000 C 
ATOM     21  O   UNL     1       2.225   8.206  19.283  0.00  0.00    +0.000 OA
ATOM     22  H   UNL     1       0.538   6.638  21.497  0.00  0.00    +0.000 HD
BRANCH  20  23
ATOM     23  C   UNL     1       0.677   9.119  20.749  0.00  0.00    +0.000 A 
ATOM     24  C   UNL     1      -0.107   9.846  19.833  0.00  0.00    +0.000 A 
ATOM     25  C   UNL     1      -0.860  10.943  20.253  0.00  0.00    +0.000 A 
ATOM     26  C   UNL     1      -0.830  11.318  21.590  0.00  0.00    +0.000 A 
ATOM     27  F   UNL     1      -1.547  12.373  21.994  0.00  0.00    +0.000 F 
ATOM     28  C   UNL     1      -0.067  10.615  22.513  0.00  0.00    +0.000 A 
ATOM     29  C   UNL     1       0.682   9.519  22.088  0.00  0.00    +0.000 A 
ATOM     30  F   UNL     1       1.408   8.856  23.003  0.00  0.00    +0.000 F 
ENDBRANCH  20  23
ENDBRANCH   5  19
TORSDOF 3
ENDMDL
MODEL 9
REMARK VINA RESULT:      -8.5      1.305      2.312
REMARK  Name = 
REMARK  3 active torsions:
REMARK  status: ('A' for Active; 'I' for Inactive)
REMARK    1  A    between atoms: C_7  and  C_8
REMARK    2  A    between atoms: C_12  and  N_13
REMARK    3  A    between atoms: C_14  and  C_16
REMARK                            x       y       z     vdW  Elec       q    Type
REMARK                         _______ _______ _______ _____ _____    ______ ____
ROOT
ATOM      1  C   UNL     1       4.545   5.172  18.603  0.00  0.00    +0.000 A 
ATOM      2  C   UNL     1       4.418   3.890  19.153  0.00  0.00    +0.000 A 
ATOM      3  C   UNL     1       3.403   3.598  20.057  0.00  0.00    +0.000 A 
ATOM      4  C   UNL     1       2.535   4.602  20.473  0.00  0.00    +0.000 A 
ATOM      5  C   UNL     1       2.670   5.907  19.997  0.00  0.00    +0.000 A 
ATOM      6  C   UNL     1       3.663   6.179  19.041  0.00  0.00    +0.000 A 
ENDROOT
BRANCH   1  13
ATOM      7  N   UNL     1       8.328   5.637  13.814  0.00  0.00    +0.000 N 
ATOM      8  C   UNL     1       7.223   5.118  14.434  0.00  0.00    +0.000 A 
ATOM      9  N   UNL     1       6.508   4.239  13.768  0.00  0.00    +0.000 NA
ATOM     10  C   UNL     1       5.369   3.734  14.364  0.00  0.00    +0.000 A 
ATOM     11  C   UNL     1       4.943   4.074  15.592  0.00  0.00    +0.000 A 
ATOM     12  N   UNL     1       5.707   4.957  16.341  0.00  0.00    +0.000 N 
ATOM     13  C   UNL     1       5.598   5.472  17.625  0.00  0.00    +0.000 A 
ATOM     14  C   UNL     1       6.710   6.301  17.736  0.00  0.00    +0.000 A 
ATOM     15  N   UNL     1       7.479   6.305  16.599  0.00  0.00    +0.000 NA
ATOM     16  C   UNL     1       6.842   5.493  15.785  0.00  0.00    +0.000 A 
ATOM     17  H   UNL     1       8.675   5.056  13.060  0.00  0.00    +0.000 HD
ATOM     18  H   UNL     1       9.031   6.001  14.447  0.00  0.00    +0.000 HD
ENDBRANCH   1  13
BRANCH   5  19
ATOM     19  N   UNL     1       1.838   6.966  20.429  0.00  0.00    +0.000 N 
ATOM     20  C   UNL     1       1.659   8.173  19.769  0.00  0.00    +0.000 C 
ATOM     21  O   UNL     1       2.133   8.461  18.672  0.00  0.00    +0.000 OA
ATOM     22  H   UNL     1       1.276   6.791  21.256  0.00  0.00    +0.000 HD
BRANCH  20  23
ATOM     23  C   UNL     1       0.802   9.202  20.421  0.00  0.00    +0.000 A 
ATOM     24  C   UNL     1      -0.038   9.976  19.598  0.00  0.00    +0.000 A 
ATOM     25  C   UNL     1      -0.850  10.971  20.143  0.00  0.00    +0.000 A 
ATOM     26  C   UNL     1      -0.823  11.196  21.514  0.00  0.00    +0.000 A 
ATOM     27  F   UNL     1      -1.597  12.153  22.039  0.00  0.00    +0.000 F 
ATOM     28  C   UNL     1      -0.006  10.443  22.347  0.00  0.00    +0.000 A 
ATOM     29  C   UNL     1       0.802   9.450  21.796  0.00  0.00    +0.000 A 
ATOM     30  F   UNL     1       1.580   8.735  22.625  0.00  0.00    +0.000 F 
ENDBRANCH  20  23
ENDBRANCH   5  19
TORSDOF 3
ENDMDL
