MODEL 1
REMARK VINA RESULT:      -8.9      0.000      0.000
REMARK  Name = 
REMARK  9 active torsions:
REMARK  status: ('A' for Active; 'I' for Inactive)
REMARK    1  A    between atoms: C_1  and  C_2
REMARK    2  A    between atoms: C_2  and  C_3
REMARK    3  A    between atoms: C_3  and  C_4
REMARK    4  A    between atoms: C_3  and  S_5
REMARK    5  A    between atoms: S_5  and  C_8
REMARK    6  A    between atoms: C_11  and  C_12
REMARK    7  A    between atoms: C_15  and  N_16
REMARK    8  A    between atoms: C_17  and  C_18
REMARK    9  A    between atoms: N_20  and  C_21
REMARK                            x       y       z     vdW  Elec       q    Type
REMARK                         _______ _______ _______ _____ _____    ______ ____
ROOT
ATOM      1  C   UNL     1       3.083   6.269  19.000  0.00  0.00    +0.000 A 
ATOM      2  C   UNL     1       2.834   5.285  19.963  0.00  0.00    +0.000 A 
ATOM      3  N   UNL     1       3.484   4.103  20.023  0.00  0.00    +0.000 NA
ATOM      4  C   UNL     1       4.407   3.884  19.070  0.00  0.00    +0.000 A 
ATOM      5  C   UNL     1       4.661   4.854  18.076  0.00  0.00    +0.000 A 
ATOM      6  N   UNL     1       4.003   6.063  18.018  0.00  0.00    +0.000 NA
ENDROOT
BRANCH   1  10
ATOM      7  C   UNL     1       1.107  10.081  19.081  0.00  0.00    +0.000 A 
ATOM      8  C   UNL     1       1.791   9.673  17.937  0.00  0.00    +0.000 A 
ATOM      9  C   UNL     1       2.376   8.408  17.902  0.00  0.00    +0.000 A 
ATOM     10  C   UNL     1       2.337   7.543  19.016  0.00  0.00    +0.000 A 
ATOM     11  C   UNL     1       1.628   7.975  20.152  0.00  0.00    +0.000 A 
ATOM     12  C   UNL     1       1.020   9.239  20.191  0.00  0.00    +0.000 A 
BRANCH   7  13
ATOM     13  S   UNL     1       0.434  11.734  19.139  0.00  0.00    +0.000 S 
ATOM     14  O   UNL     1       1.295  12.565  18.324  0.00  0.00    +0.000 OA
ATOM     15  O   UNL     1       0.224  12.043  20.537  0.00  0.00    +0.000 OA
BRANCH  13  16
ATOM     16  C   UNL     1      -1.181  11.615  18.336  0.00  0.00    +0.000 C 
ATOM     17  C   UNL     1      -2.311  12.071  19.256  0.00  0.00    +0.000 C 
BRANCH  16  19
ATOM     18  C   UNL     1      -2.279  10.040  16.628  0.00  0.00    +0.000 C 
ATOM     19  C   UNL     1      -1.383  10.164  17.852  0.00  0.00    +0.000 C 
ENDBRANCH  16  19
ENDBRANCH  13  16
ENDBRANCH   7  13
ENDBRANCH   1  10
BRANCH   5  20
ATOM     20  C   UNL     1       5.662   4.582  16.986  0.00  0.00    +0.000 C 
ATOM     21  O   UNL     1       6.828   4.339  17.284  0.00  0.00    +0.000 OA
ATOM     22  N   UNL     1       5.159   4.633  15.691  0.00  0.00    +0.000 N 
ATOM     23  H   UNL     1       4.181   4.899  15.610  0.00  0.00    +0.000 HD
BRANCH  22  24
ATOM     24  C   UNL     1       5.907   4.476  14.497  0.00  0.00    +0.000 A 
ATOM     25  C   UNL     1       7.087   5.178  14.235  0.00  0.00    +0.000 A 
ATOM     26  C   UNL     1       7.758   5.038  13.016  0.00  0.00    +0.000 A 
ATOM     27  C   UNL     1       7.254   4.188  12.038  0.00  0.00    +0.000 A 
ATOM     28  C   UNL     1       6.095   3.458  12.294  0.00  0.00    +0.000 A 
ATOM     29  C   UNL     1       5.432   3.590  13.523  0.00  0.00    +0.000 A 
ENDBRANCH  22  24
ENDBRANCH   5  20
BRANCH   4  30
ATOM     30  N   UNL     1       5.096   2.696  19.249  0.00  0.00    +0.000 N 
ATOM     31  H   UNL     1       4.506   2.041  19.752  0.00  0.00    +0.000 HD
ATOM     32  H   UNL     1       5.486   2.332  18.381  0.00  0.00    +0.000 HD
ENDBRANCH   4  30
TORSDOF 7
ENDMDL
MODEL 2
REMARK VINA RESULT:      -8.7      0.488      1.401
REMARK  Name = 
REMARK  9 active torsions:
REMARK  status: ('A' for Active; 'I' for Inactive)
REMARK    1  A    between atoms: C_1  and  C_2
REMARK    2  A    between atoms: C_2  and  C_3
REMARK    3  A    between atoms: C_3  and  C_4
REMARK    4  A    between atoms: C_3  and  S_5
REMARK    5  A    between atoms: S_5  and  C_8
REMARK    6  A    between atoms: C_11  and  C_12
REMARK    7  A    between atoms: C_15  and  N_16
REMARK    8  A    between atoms: C_17  and  C_18
REMARK    9  A    between atoms: N_20  and  C_21
REMARK                            x       y       z     vdW  Elec       q    Type
REMARK                         _______ _______ _______ _____ _____    ______ ____
ROOT
ATOM      1  C   UNL     1       3.082   6.217  19.098  0.00  0.00    +0.000 A 
ATOM      2  C   UNL     1       2.784   5.198  20.007  0.00  0.00    +0.000 A 
ATOM      3  N   UNL     1       3.386   3.990  20.015  0.00  0.00    +0.000 NA
ATOM      4  C   UNL     1       4.312   3.782  19.062  0.00  0.00    +0.000 A 
ATOM      5  C   UNL     1       4.616   4.789  18.121  0.00  0.00    +0.000 A 
ATOM      6  N   UNL     1       4.006   6.024  18.116  0.00  0.00    +0.000 NA
ENDROOT
BRANCH   1  10
ATOM      7  C   UNL     1       0.864   9.890  19.277  0.00  0.00    +0.000 A 
ATOM      8  C   UNL     1       0.917   9.052  20.389  0.00  0.00    +0.000 A 
ATOM      9  C   UNL     1       1.691   7.893  20.338  0.00  0.00    +0.000 A 
ATOM     10  C   UNL     1       2.386   7.517  19.169  0.00  0.00    +0.000 A 
ATOM     11  C   UNL     1       2.325   8.389  18.067  0.00  0.00    +0.000 A 
ATOM     12  C   UNL     1       1.564   9.567  18.114  0.00  0.00    +0.000 A 
BRANCH   7  13
ATOM     13  S   UNL     1      -0.196  11.327  19.332  0.00  0.00    +0.000 S 
ATOM     14  O   UNL     1       0.363  12.294  18.409  0.00  0.00    +0.000 OA
ATOM     15  O   UNL     1      -0.367  11.658  20.730  0.00  0.00    +0.000 OA
BRANCH  13  16
ATOM     16  C   UNL     1      -1.787  10.765  18.684  0.00  0.00    +0.000 C 
ATOM     17  C   UNL     1      -1.626   9.956  17.400  0.00  0.00    +0.000 C 
BRANCH  16  19
ATOM     18  C   UNL     1      -3.640  12.266  19.642  0.00  0.00    +0.000 C 
ATOM     19  C   UNL     1      -2.696  11.995  18.479  0.00  0.00    +0.000 C 
ENDBRANCH  16  19
ENDBRANCH  13  16
ENDBRANCH   7  13
ENDBRANCH   1  10
BRANCH   5  20
ATOM     20  C   UNL     1       5.619   4.533  17.029  0.00  0.00    +0.000 C 
ATOM     21  O   UNL     1       6.788   4.301  17.326  0.00  0.00    +0.000 OA
ATOM     22  N   UNL     1       5.115   4.583  15.734  0.00  0.00    +0.000 N 
ATOM     23  H   UNL     1       4.134   4.838  15.656  0.00  0.00    +0.000 HD
BRANCH  22  24
ATOM     24  C   UNL     1       5.864   4.438  14.540  0.00  0.00    +0.000 A 
ATOM     25  C   UNL     1       7.053   5.130  14.293  0.00  0.00    +0.000 A 
ATOM     26  C   UNL     1       7.725   5.004  13.073  0.00  0.00    +0.000 A 
ATOM     27  C   UNL     1       7.214   4.178  12.079  0.00  0.00    +0.000 A 
ATOM     28  C   UNL     1       6.045   3.458  12.319  0.00  0.00    +0.000 A 
ATOM     29  C   UNL     1       5.380   3.576  13.549  0.00  0.00    +0.000 A 
ENDBRANCH  22  24
ENDBRANCH   5  20
BRANCH   4  30
ATOM     30  N   UNL     1       4.953   2.560  19.189  0.00  0.00    +0.000 N 
ATOM     31  H   UNL     1       5.152   2.191  18.265  0.00  0.00    +0.000 HD
ATOM     32  H   UNL     1       5.758   2.601  19.811  0.00  0.00    +0.000 HD
ENDBRANCH   4  30
TORSDOF 7
ENDMDL
MODEL 3
REMARK VINA RESULT:      -8.7      1.296      1.997
REMARK  Name = 
REMARK  9 active torsions:
REMARK  status: ('A' for Active; 'I' for Inactive)
REMARK    1  A    between atoms: C_1  and  C_2
REMARK    2  A    between atoms: C_2  and  C_3
REMARK    3  A    between atoms: C_3  and  C_4
REMARK    4  A    between atoms: C_3  and  S_5
REMARK    5  A    between atoms: S_5  and  C_8
REMARK    6  A    between atoms: C_11  and  C_12
REMARK    7  A    between atoms: C_15  and  N_16
REMARK    8  A    between atoms: C_17  and  C_18
REMARK    9  A    between atoms: N_20  and  C_21
REMARK                            x       y       z     vdW  Elec       q    Type
REMARK                         _______ _______ _______ _____ _____    ______ ____
ROOT
ATOM      1  C   UNL     1       3.058   6.167  19.164  0.00  0.00    +0.000 A 
ATOM      2  C   UNL     1       2.774   5.141  20.072  0.00  0.00    +0.000 A 
ATOM      3  N   UNL     1       3.390   3.940  20.075  0.00  0.00    +0.000 NA
ATOM      4  C   UNL     1       4.315   3.746  19.118  0.00  0.00    +0.000 A 
ATOM      5  C   UNL     1       4.604   4.759  18.178  0.00  0.00    +0.000 A 
ATOM      6  N   UNL     1       3.980   5.987  18.179  0.00  0.00    +0.000 NA
ENDROOT
BRANCH   1  10
ATOM      7  C   UNL     1       0.798   9.813  19.375  0.00  0.00    +0.000 A 
ATOM      8  C   UNL     1       0.923   9.003  20.502  0.00  0.00    +0.000 A 
ATOM      9  C   UNL     1       1.710   7.854  20.437  0.00  0.00    +0.000 A 
ATOM     10  C   UNL     1       2.347   7.459  19.242  0.00  0.00    +0.000 A 
ATOM     11  C   UNL     1       2.215   8.302  18.124  0.00  0.00    +0.000 A 
ATOM     12  C   UNL     1       1.440   9.471  18.184  0.00  0.00    +0.000 A 
BRANCH   7  13
ATOM     13  S   UNL     1      -0.278  11.236  19.452  0.00  0.00    +0.000 S 
ATOM     14  O   UNL     1      -0.440  11.564  20.853  0.00  0.00    +0.000 OA
ATOM     15  O   UNL     1      -1.429  10.925  18.631  0.00  0.00    +0.000 OA
BRANCH  13  16
ATOM     16  C   UNL     1       0.645  12.569  18.651  0.00  0.00    +0.000 C 
ATOM     17  C   UNL     1       1.817  13.044  19.506  0.00  0.00    +0.000 C 
BRANCH  16  19
ATOM     18  C   UNL     1       0.088  15.066  18.890  0.00  0.00    +0.000 C 
ATOM     19  C   UNL     1      -0.334  13.717  18.327  0.00  0.00    +0.000 C 
ENDBRANCH  16  19
ENDBRANCH  13  16
ENDBRANCH   7  13
ENDBRANCH   1  10
BRANCH   5  20
ATOM     20  C   UNL     1       5.606   4.516  17.082  0.00  0.00    +0.000 C 
ATOM     21  O   UNL     1       6.776   4.282  17.375  0.00  0.00    +0.000 OA
ATOM     22  N   UNL     1       5.101   4.582  15.789  0.00  0.00    +0.000 N 
ATOM     23  H   UNL     1       4.120   4.837  15.714  0.00  0.00    +0.000 HD
BRANCH  22  24
ATOM     24  C   UNL     1       5.848   4.452  14.592  0.00  0.00    +0.000 A 
ATOM     25  C   UNL     1       7.045   5.137  14.359  0.00  0.00    +0.000 A 
ATOM     26  C   UNL     1       7.715   5.028  13.136  0.00  0.00    +0.000 A 
ATOM     27  C   UNL     1       7.196   4.226  12.126  0.00  0.00    +0.000 A 
ATOM     28  C   UNL     1       6.020   3.514  12.353  0.00  0.00    +0.000 A 
ATOM     29  C   UNL     1       5.356   3.615  13.584  0.00  0.00    +0.000 A 
ENDBRANCH  22  24
ENDBRANCH   5  20
BRANCH   4  30
ATOM     30  N   UNL     1       4.969   2.531  19.239  0.00  0.00    +0.000 N 
ATOM     31  H   UNL     1       5.707   2.478  18.543  0.00  0.00    +0.000 HD
ATOM     32  H   UNL     1       5.273   2.341  20.192  0.00  0.00    +0.000 HD
ENDBRANCH   4  30
TORSDOF 7
ENDMDL
MODEL 4
REMARK VINA RESULT:      -8.6      0.784      1.286
REMARK  Name = 
REMARK  9 active torsions:
REMARK  status: ('A' for Active; 'I' for Inactive)
REMARK    1  A    between atoms: C_1  and  C_2
REMARK    2  A    between atoms: C_2  and  C_3
REMARK    3  A    between atoms: C_3  and  C_4
REMARK    4  A    between atoms: C_3  and  S_5
REMARK    5  A    between atoms: S_5  and  C_8
REMARK    6  A    between atoms: C_11  and  C_12
REMARK    7  A    between atoms: C_15  and  N_16
REMARK    8  A    between atoms: C_17  and  C_18
REMARK    9  A    between atoms: N_20  and  C_21
REMARK                            x       y       z     vdW  Elec       q    Type
REMARK                         _______ _______ _______ _____ _____    ______ ____
ROOT
ATOM      1  C   UNL     1       2.861   5.929  18.977  0.00  0.00    +0.000 A 
ATOM      2  C   UNL     1       2.353   4.799  19.624  0.00  0.00    +0.000 A 
ATOM      3  N   UNL     1       2.819   3.546  19.438  0.00  0.00    +0.000 NA
ATOM      4  C   UNL     1       3.823   3.411  18.553  0.00  0.00    +0.000 A 
ATOM      5  C   UNL     1       4.338   4.535  17.872  0.00  0.00    +0.000 A 
ATOM      6  N   UNL     1       3.868   5.814  18.066  0.00  0.00    +0.000 NA
ENDROOT
BRANCH   1  10
ATOM      7  C   UNL     1       1.034   9.736  19.758  0.00  0.00    +0.000 A 
ATOM      8  C   UNL     1       1.131   8.786  20.774  0.00  0.00    +0.000 A 
ATOM      9  C   UNL     1       1.781   7.579  20.524  0.00  0.00    +0.000 A 
ATOM     10  C   UNL     1       2.303   7.268  19.250  0.00  0.00    +0.000 A 
ATOM     11  C   UNL     1       2.202   8.250  18.248  0.00  0.00    +0.000 A 
ATOM     12  C   UNL     1       1.566   9.477  18.495  0.00  0.00    +0.000 A 
BRANCH   7  13
ATOM     13  S   UNL     1       0.127  11.243  20.071  0.00  0.00    +0.000 S 
ATOM     14  O   UNL     1       1.086  12.217  20.549  0.00  0.00    +0.000 OA
ATOM     15  O   UNL     1      -1.014  10.874  20.883  0.00  0.00    +0.000 OA
BRANCH  13  16
ATOM     16  C   UNL     1      -0.477  11.775  18.453  0.00  0.00    +0.000 C 
ATOM     17  C   UNL     1      -0.451  13.294  18.305  0.00  0.00    +0.000 C 
BRANCH  16  19
ATOM     18  C   UNL     1      -1.944  10.004  17.306  0.00  0.00    +0.000 C 
ATOM     19  C   UNL     1      -1.894  11.201  18.245  0.00  0.00    +0.000 C 
ENDBRANCH  16  19
ENDBRANCH  13  16
ENDBRANCH   7  13
ENDBRANCH   1  10
BRANCH   5  20
ATOM     20  C   UNL     1       5.429   4.369  16.848  0.00  0.00    +0.000 C 
ATOM     21  O   UNL     1       6.585   4.187  17.222  0.00  0.00    +0.000 OA
ATOM     22  N   UNL     1       5.017   4.441  15.523  0.00  0.00    +0.000 N 
ATOM     23  H   UNL     1       4.032   4.649  15.381  0.00  0.00    +0.000 HD
BRANCH  22  24
ATOM     24  C   UNL     1       5.855   4.378  14.382  0.00  0.00    +0.000 A 
ATOM     25  C   UNL     1       7.010   5.153  14.237  0.00  0.00    +0.000 A 
ATOM     26  C   UNL     1       7.772   5.105  13.065  0.00  0.00    +0.000 A 
ATOM     27  C   UNL     1       7.388   4.275  12.018  0.00  0.00    +0.000 A 
ATOM     28  C   UNL     1       6.256   3.474  12.158  0.00  0.00    +0.000 A 
ATOM     29  C   UNL     1       5.500   3.515  13.339  0.00  0.00    +0.000 A 
ENDBRANCH  22  24
ENDBRANCH   5  20
BRANCH   4  30
ATOM     30  N   UNL     1       4.311   2.116  18.483  0.00  0.00    +0.000 N 
ATOM     31  H   UNL     1       4.575   1.911  17.525  0.00  0.00    +0.000 HD
ATOM     32  H   UNL     1       5.038   1.933  19.172  0.00  0.00    +0.000 HD
ENDBRANCH   4  30
TORSDOF 7
ENDMDL
MODEL 5
REMARK VINA RESULT:      -8.6      0.851      1.082
REMARK  Name = 
REMARK  9 active torsions:
REMARK  status: ('A' for Active; 'I' for Inactive)
REMARK    1  A    between atoms: C_1  and  C_2
REMARK    2  A    between atoms: C_2  and  C_3
REMARK    3  A    between atoms: C_3  and  C_4
REMARK    4  A    between atoms: C_3  and  S_5
REMARK    5  A    between atoms: S_5  and  C_8
REMARK    6  A    between atoms: C_11  and  C_12
REMARK    7  A    between atoms: C_15  and  N_16
REMARK    8  A    between atoms: C_17  and  C_18
REMARK    9  A    between atoms: N_20  and  C_21
REMARK                            x       y       z     vdW  Elec       q    Type
REMARK                         _______ _______ _______ _____ _____    ______ ____
ROOT
ATOM      1  C   UNL     1       2.922   5.866  19.543  0.00  0.00    +0.000 A 
ATOM      2  C   UNL     1       2.654   4.761  20.358  0.00  0.00    +0.000 A 
ATOM      3  N   UNL     1       3.303   3.581  20.271  0.00  0.00    +0.000 NA
ATOM      4  C   UNL     1       4.246   3.492  19.316  0.00  0.00    +0.000 A 
ATOM      5  C   UNL     1       4.521   4.587  18.470  0.00  0.00    +0.000 A 
ATOM      6  N   UNL     1       3.864   5.794  18.562  0.00  0.00    +0.000 NA
ENDROOT
BRANCH   1  10
ATOM      7  C   UNL     1       0.945   9.641  20.074  0.00  0.00    +0.000 A 
ATOM      8  C   UNL     1       1.542   9.331  18.853  0.00  0.00    +0.000 A 
ATOM      9  C   UNL     1       2.127   8.079  18.674  0.00  0.00    +0.000 A 
ATOM     10  C   UNL     1       2.176   7.128  19.716  0.00  0.00    +0.000 A 
ATOM     11  C   UNL     1       1.554   7.463  20.933  0.00  0.00    +0.000 A 
ATOM     12  C   UNL     1       0.947   8.715  21.117  0.00  0.00    +0.000 A 
BRANCH   7  13
ATOM     13  S   UNL     1       0.273  11.279  20.314  0.00  0.00    +0.000 S 
ATOM     14  O   UNL     1       1.334  12.089  20.875  0.00  0.00    +0.000 OA
ATOM     15  O   UNL     1      -0.977  11.110  21.023  0.00  0.00    +0.000 OA
BRANCH  13  16
ATOM     16  C   UNL     1      -0.096  11.886  18.651  0.00  0.00    +0.000 C 
ATOM     17  C   UNL     1       0.213  13.373  18.505  0.00  0.00    +0.000 C 
BRANCH  16  19
ATOM     18  C   UNL     1      -1.771  10.274  17.556  0.00  0.00    +0.000 C 
ATOM     19  C   UNL     1      -1.571  11.569  18.330  0.00  0.00    +0.000 C 
ENDBRANCH  16  19
ENDBRANCH  13  16
ENDBRANCH   7  13
ENDBRANCH   1  10
BRANCH   5  20
ATOM     20  C   UNL     1       5.546   4.463  17.374  0.00  0.00    +0.000 C 
ATOM     21  O   UNL     1       6.737   4.405  17.666  0.00  0.00    +0.000 OA
ATOM     22  N   UNL     1       5.033   4.425  16.082  0.00  0.00    +0.000 N 
ATOM     23  H   UNL     1       4.026   4.537  16.007  0.00  0.00    +0.000 HD
BRANCH  22  24
ATOM     24  C   UNL     1       5.789   4.375  14.885  0.00  0.00    +0.000 A 
ATOM     25  C   UNL     1       6.971   5.097  14.695  0.00  0.00    +0.000 A 
ATOM     26  C   UNL     1       7.650   5.067  13.472  0.00  0.00    +0.000 A 
ATOM     27  C   UNL     1       7.153   4.307  12.419  0.00  0.00    +0.000 A 
ATOM     28  C   UNL     1       5.993   3.558  12.601  0.00  0.00    +0.000 A 
ATOM     29  C   UNL     1       5.321   3.580  13.832  0.00  0.00    +0.000 A 
ENDBRANCH  22  24
ENDBRANCH   5  20
BRANCH   4  30
ATOM     30  N   UNL     1       4.932   2.288  19.347  0.00  0.00    +0.000 N 
ATOM     31  H   UNL     1       5.810   2.417  19.840  0.00  0.00    +0.000 HD
ATOM     32  H   UNL     1       4.362   1.519  19.693  0.00  0.00    +0.000 HD
ENDBRANCH   4  30
TORSDOF 7
ENDMDL
MODEL 6
REMARK VINA RESULT:      -8.6      1.108      1.627
REMARK  Name = 
REMARK  9 active torsions:
REMARK  status: ('A' for Active; 'I' for Inactive)
REMARK    1  A    between atoms: C_1  and  C_2
REMARK    2  A    between atoms: C_2  and  C_3
REMARK    3  A    between atoms: C_3  and  C_4
REMARK    4  A    between atoms: C_3  and  S_5
REMARK    5  A    between atoms: S_5  and  C_8
REMARK    6  A    between atoms: C_11  and  C_12
REMARK    7  A    between atoms: C_15  and  N_16
REMARK    8  A    between atoms: C_17  and  C_18
REMARK    9  A    between atoms: N_20  and  C_21
REMARK                            x       y       z     vdW  Elec       q    Type
REMARK                         _______ _______ _______ _____ _____    ______ ____
ROOT
ATOM      1  C   UNL     1       2.891   5.973  19.187  0.00  0.00    +0.000 A 
ATOM      2  C   UNL     1       2.528   4.879  19.979  0.00  0.00    +0.000 A 
ATOM      3  N   UNL     1       3.100   3.659  19.894  0.00  0.00    +0.000 NA
ATOM      4  C   UNL     1       4.063   3.519  18.964  0.00  0.00    +0.000 A 
ATOM      5  C   UNL     1       4.432   4.603  18.140  0.00  0.00    +0.000 A 
ATOM      6  N   UNL     1       3.853   5.849  18.230  0.00  0.00    +0.000 NA
ENDROOT
BRANCH   1  10
ATOM      7  C   UNL     1       1.152   9.866  19.697  0.00  0.00    +0.000 A 
ATOM      8  C   UNL     1       1.682   9.494  18.463  0.00  0.00    +0.000 A 
ATOM      9  C   UNL     1       2.188   8.207  18.293  0.00  0.00    +0.000 A 
ATOM     10  C   UNL     1       2.224   7.279  19.356  0.00  0.00    +0.000 A 
ATOM     11  C   UNL     1       1.670   7.676  20.586  0.00  0.00    +0.000 A 
ATOM     12  C   UNL     1       1.141   8.965  20.762  0.00  0.00    +0.000 A 
BRANCH   7  13
ATOM     13  S   UNL     1       0.583  11.544  19.921  0.00  0.00    +0.000 S 
ATOM     14  O   UNL     1       0.498  12.136  18.602  0.00  0.00    +0.000 OA
ATOM     15  O   UNL     1       1.428  12.132  20.938  0.00  0.00    +0.000 OA
BRANCH  13  16
ATOM     16  C   UNL     1      -1.088  11.391  20.592  0.00  0.00    +0.000 C 
ATOM     17  C   UNL     1      -2.113  12.145  19.749  0.00  0.00    +0.000 C 
BRANCH  16  19
ATOM     18  C   UNL     1      -1.089  10.754  23.081  0.00  0.00    +0.000 C 
ATOM     19  C   UNL     1      -1.076  11.878  22.056  0.00  0.00    +0.000 C 
ENDBRANCH  16  19
ENDBRANCH  13  16
ENDBRANCH   7  13
ENDBRANCH   1  10
BRANCH   5  20
ATOM     20  C   UNL     1       5.476   4.425  17.071  0.00  0.00    +0.000 C 
ATOM     21  O   UNL     1       6.651   4.269  17.395  0.00  0.00    +0.000 OA
ATOM     22  N   UNL     1       5.002   4.454  15.765  0.00  0.00    +0.000 N 
ATOM     23  H   UNL     1       4.008   4.644  15.664  0.00  0.00    +0.000 HD
BRANCH  22  24
ATOM     24  C   UNL     1       5.787   4.372  14.588  0.00  0.00    +0.000 A 
ATOM     25  C   UNL     1       6.975   5.086  14.409  0.00  0.00    +0.000 A 
ATOM     26  C   UNL     1       7.684   5.023  13.205  0.00  0.00    +0.000 A 
ATOM     27  C   UNL     1       7.212   4.239  12.159  0.00  0.00    +0.000 A 
ATOM     28  C   UNL     1       6.045   3.497  12.331  0.00  0.00    +0.000 A 
ATOM     29  C   UNL     1       5.342   3.552  13.544  0.00  0.00    +0.000 A 
ENDBRANCH  22  24
ENDBRANCH   5  20
BRANCH   4  30
ATOM     30  N   UNL     1       4.667   2.272  18.998  0.00  0.00    +0.000 N 
ATOM     31  H   UNL     1       5.014   2.095  19.935  0.00  0.00    +0.000 HD
ATOM     32  H   UNL     1       4.073   1.537  18.620  0.00  0.00    +0.000 HD
ENDBRANCH   4  30
TORSDOF 7
ENDMDL
MODEL 7
REMARK VINA RESULT:      -8.5      1.302      2.075
REMARK  Name = 
REMARK  9 active torsions:
REMARK  status: ('A' for Active; 'I' for Inactive)
REMARK    1  A    between atoms: C_1  and  C_2
REMARK    2  A    between atoms: C_2  and  C_3
REMARK    3  A    between atoms: C_3  and  C_4
REMARK    4  A    between atoms: C_3  and  S_5
REMARK    5  A    between atoms: S_5  and  C_8
REMARK    6  A    between atoms: C_11  and  C_12
REMARK    7  A    between atoms: C_15  and  N_16
REMARK    8  A    between atoms: C_17  and  C_18
REMARK    9  A    between atoms: N_20  and  C_21
REMARK                            x       y       z     vdW  Elec       q    Type
REMARK                         _______ _______ _______ _____ _____    ______ ____
ROOT
ATOM      1  C   UNL     1       3.058   6.254  19.050  0.00  0.00    +0.000 A 
ATOM      2  C   UNL     1       2.793   5.244  19.980  0.00  0.00    +0.000 A 
ATOM      3  N   UNL     1       3.430   4.055  20.010  0.00  0.00    +0.000 NA
ATOM      4  C   UNL     1       4.360   3.856  19.058  0.00  0.00    +0.000 A 
ATOM      5  C   UNL     1       4.631   4.853  18.096  0.00  0.00    +0.000 A 
ATOM      6  N   UNL     1       3.985   6.069  18.069  0.00  0.00    +0.000 NA
ENDROOT
BRANCH   1  10
ATOM      7  C   UNL     1       0.732   9.861  19.193  0.00  0.00    +0.000 A 
ATOM      8  C   UNL     1       0.942   9.119  20.354  0.00  0.00    +0.000 A 
ATOM      9  C   UNL     1       1.749   7.984  20.306  0.00  0.00    +0.000 A 
ATOM     10  C   UNL     1       2.324   7.534  19.098  0.00  0.00    +0.000 A 
ATOM     11  C   UNL     1       2.106   8.310  17.945  0.00  0.00    +0.000 A 
ATOM     12  C   UNL     1       1.310   9.465  17.987  0.00  0.00    +0.000 A 
BRANCH   7  13
ATOM     13  S   UNL     1      -0.370  11.266  19.256  0.00  0.00    +0.000 S 
ATOM     14  O   UNL     1      -1.717  10.746  19.143  0.00  0.00    +0.000 OA
ATOM     15  O   UNL     1       0.131  12.224  18.294  0.00  0.00    +0.000 OA
BRANCH  13  16
ATOM     16  C   UNL     1      -0.158  11.960  20.911  0.00  0.00    +0.000 C 
ATOM     17  C   UNL     1      -1.493  12.149  21.626  0.00  0.00    +0.000 C 
BRANCH  16  19
ATOM     18  C   UNL     1       2.135  13.106  20.734  0.00  0.00    +0.000 C 
ATOM     19  C   UNL     1       0.625  13.284  20.791  0.00  0.00    +0.000 C 
ENDBRANCH  16  19
ENDBRANCH  13  16
ENDBRANCH   7  13
ENDBRANCH   1  10
BRANCH   5  20
ATOM     20  C   UNL     1       5.639   4.605  17.006  0.00  0.00    +0.000 C 
ATOM     21  O   UNL     1       6.818   4.436  17.302  0.00  0.00    +0.000 OA
ATOM     22  N   UNL     1       5.126   4.590  15.715  0.00  0.00    +0.000 N 
ATOM     23  H   UNL     1       4.134   4.798  15.634  0.00  0.00    +0.000 HD
BRANCH  22  24
ATOM     24  C   UNL     1       5.873   4.438  14.520  0.00  0.00    +0.000 A 
ATOM     25  C   UNL     1       7.064   5.126  14.271  0.00  0.00    +0.000 A 
ATOM     26  C   UNL     1       7.735   4.994  13.050  0.00  0.00    +0.000 A 
ATOM     27  C   UNL     1       7.221   4.166  12.059  0.00  0.00    +0.000 A 
ATOM     28  C   UNL     1       6.051   3.450  12.303  0.00  0.00    +0.000 A 
ATOM     29  C   UNL     1       5.386   3.574  13.532  0.00  0.00    +0.000 A 
ENDBRANCH  22  24
ENDBRANCH   5  20
BRANCH   4  30
ATOM     30  N   UNL     1       5.036   2.657  19.207  0.00  0.00    +0.000 N 
ATOM     31  H   UNL     1       5.983   2.845  19.520  0.00  0.00    +0.000 HD
ATOM     32  H   UNL     1       4.527   1.986  19.778  0.00  0.00    +0.000 HD
ENDBRANCH   4  30
TORSDOF 7
ENDMDL
MODEL 8
REMARK VINA RESULT:      -8.4      0.519      1.454
REMARK  Name = 
REMARK  9 active torsions:
REMARK  status: ('A' for Active; 'I' for Inactive)
REMARK    1  A    between atoms: C_1  and  C_2
REMARK    2  A    between atoms: C_2  and  C_3
REMARK    3  A    between atoms: C_3  and  C_4
REMARK    4  A    between atoms: C_3  and  S_5
REMARK    5  A    between atoms: S_5  and  C_8
REMARK    6  A    between atoms: C_11  and  C_12
REMARK    7  A    between atoms: C_15  and  N_16
REMARK    8  A    between atoms: C_17  and  C_18
REMARK    9  A    between atoms: N_20  and  C_21
REMARK                            x       y       z     vdW  Elec       q    Type
REMARK                         _______ _______ _______ _____ _____    ______ ____
ROOT
ATOM      1  C   UNL     1       2.976   6.106  19.209  0.00  0.00    +0.000 A 
ATOM      2  C   UNL     1       2.743   5.084  20.135  0.00  0.00    +0.000 A 
ATOM      3  N   UNL     1       3.386   3.898  20.133  0.00  0.00    +0.000 NA
ATOM      4  C   UNL     1       4.288   3.714  19.152  0.00  0.00    +0.000 A 
ATOM      5  C   UNL     1       4.525   4.722  18.194  0.00  0.00    +0.000 A 
ATOM      6  N   UNL     1       3.874   5.936  18.199  0.00  0.00    +0.000 NA
ENDROOT
BRANCH   1  10
ATOM      7  C   UNL     1       1.026   9.923  19.474  0.00  0.00    +0.000 A 
ATOM      8  C   UNL     1       1.616   9.522  18.277  0.00  0.00    +0.000 A 
ATOM      9  C   UNL     1       2.192   8.255  18.186  0.00  0.00    +0.000 A 
ATOM     10  C   UNL     1       2.238   7.382  19.293  0.00  0.00    +0.000 A 
ATOM     11  C   UNL     1       1.624   7.807  20.485  0.00  0.00    +0.000 A 
ATOM     12  C   UNL     1       1.025   9.074  20.581  0.00  0.00    +0.000 A 
BRANCH   7  13
ATOM     13  S   UNL     1       0.366  11.578  19.598  0.00  0.00    +0.000 S 
ATOM     14  O   UNL     1       0.897  12.325  18.477  0.00  0.00    +0.000 OA
ATOM     15  O   UNL     1       0.609  12.016  20.955  0.00  0.00    +0.000 OA
BRANCH  13  16
ATOM     16  C   UNL     1      -1.418  11.392  19.373  0.00  0.00    +0.000 C 
ATOM     17  C   UNL     1      -1.769  10.917  17.965  0.00  0.00    +0.000 C 
BRANCH  16  19
ATOM     18  C   UNL     1      -3.544  12.597  20.169  0.00  0.00    +0.000 C 
ATOM     19  C   UNL     1      -2.098  12.735  19.714  0.00  0.00    +0.000 C 
ENDBRANCH  16  19
ENDBRANCH  13  16
ENDBRANCH   7  13
ENDBRANCH   1  10
BRANCH   5  20
ATOM     20  C   UNL     1       5.502   4.490  17.072  0.00  0.00    +0.000 C 
ATOM     21  O   UNL     1       6.677   4.252  17.334  0.00  0.00    +0.000 OA
ATOM     22  N   UNL     1       4.966   4.570  15.792  0.00  0.00    +0.000 N 
ATOM     23  H   UNL     1       3.983   4.827  15.743  0.00  0.00    +0.000 HD
BRANCH  22  24
ATOM     24  C   UNL     1       5.685   4.453  14.576  0.00  0.00    +0.000 A 
ATOM     25  C   UNL     1       5.281   3.623  13.525  0.00  0.00    +0.000 A 
ATOM     26  C   UNL     1       6.057   3.490  12.369  0.00  0.00    +0.000 A 
ATOM     27  C   UNL     1       7.252   4.190  12.247  0.00  0.00    +0.000 A 
ATOM     28  C   UNL     1       7.653   5.044  13.272  0.00  0.00    +0.000 A 
ATOM     29  C   UNL     1       6.868   5.186  14.426  0.00  0.00    +0.000 A 
ENDBRANCH  22  24
ENDBRANCH   5  20
BRANCH   4  30
ATOM     30  N   UNL     1       4.973   2.515  19.267  0.00  0.00    +0.000 N 
ATOM     31  H   UNL     1       5.924   2.703  19.567  0.00  0.00    +0.000 HD
ATOM     32  H   UNL     1       4.477   1.831  19.836  0.00  0.00    +0.000 HD
ENDBRANCH   4  30
TORSDOF 7
ENDMDL
MODEL 9
REMARK VINA RESULT:      -8.4      1.428      2.064
REMARK  Name = 
REMARK  9 active torsions:
REMARK  status: ('A' for Active; 'I' for Inactive)
REMARK    1  A    between atoms: C_1  and  C_2
REMARK    2  A    between atoms: C_2  and  C_3
REMARK    3  A    between atoms: C_3  and  C_4
REMARK    4  A    between atoms: C_3  and  S_5
REMARK    5  A    between atoms: S_5  and  C_8
REMARK    6  A    between atoms: C_11  and  C_12
REMARK    7  A    between atoms: C_15  and  N_16
REMARK    8  A    between atoms: C_17  and  C_18
REMARK    9  A    between atoms: N_20  and  C_21
REMARK                            x       y       z     vdW  Elec       q    Type
REMARK                         _______ _______ _______ _____ _____    ______ ____
ROOT
ATOM      1  C   UNL     1       2.996   6.174  19.100  0.00  0.00    +0.000 A 
ATOM      2  C   UNL     1       2.745   5.164  20.034  0.00  0.00    +0.000 A 
ATOM      3  N   UNL     1       3.401   3.985  20.070  0.00  0.00    +0.000 NA
ATOM      4  C   UNL     1       4.335   3.796  19.120  0.00  0.00    +0.000 A 
ATOM      5  C   UNL     1       4.591   4.793  18.154  0.00  0.00    +0.000 A 
ATOM      6  N   UNL     1       3.927   5.999  18.121  0.00  0.00    +0.000 NA
ENDROOT
BRANCH   1  10
ATOM      7  C   UNL     1       0.999   9.973  19.234  0.00  0.00    +0.000 A 
ATOM      8  C   UNL     1       1.574   9.528  18.045  0.00  0.00    +0.000 A 
ATOM      9  C   UNL     1       2.165   8.267  17.999  0.00  0.00    +0.000 A 
ATOM     10  C   UNL     1       2.243   7.443  19.142  0.00  0.00    +0.000 A 
ATOM     11  C   UNL     1       1.643   7.912  20.325  0.00  0.00    +0.000 A 
ATOM     12  C   UNL     1       1.028   9.173  20.376  0.00  0.00    +0.000 A 
BRANCH   7  13
ATOM     13  S   UNL     1       0.318  11.624  19.297  0.00  0.00    +0.000 S 
ATOM     14  O   UNL     1      -1.123  11.483  19.264  0.00  0.00    +0.000 OA
ATOM     15  O   UNL     1       1.006  12.391  18.281  0.00  0.00    +0.000 OA
BRANCH  13  16
ATOM     16  C   UNL     1       0.796  12.270  20.916  0.00  0.00    +0.000 C 
ATOM     17  C   UNL     1      -0.377  12.289  21.893  0.00  0.00    +0.000 C 
BRANCH  16  19
ATOM     18  C   UNL     1       2.913  13.727  20.943  0.00  0.00    +0.000 C 
ATOM     19  C   UNL     1       1.408  13.673  20.723  0.00  0.00    +0.000 C 
ENDBRANCH  16  19
ENDBRANCH  13  16
ENDBRANCH   7  13
ENDBRANCH   1  10
BRANCH   5  20
ATOM     20  C   UNL     1       5.604   4.555  17.066  0.00  0.00    +0.000 C 
ATOM     21  O   UNL     1       6.778   4.356  17.367  0.00  0.00    +0.000 OA
ATOM     22  N   UNL     1       5.102   4.585  15.770  0.00  0.00    +0.000 N 
ATOM     23  H   UNL     1       4.115   4.814  15.687  0.00  0.00    +0.000 HD
BRANCH  22  24
ATOM     24  C   UNL     1       5.858   4.452  14.579  0.00  0.00    +0.000 A 
ATOM     25  C   UNL     1       7.027   5.176  14.329  0.00  0.00    +0.000 A 
ATOM     26  C   UNL     1       7.705   5.060  13.111  0.00  0.00    +0.000 A 
ATOM     27  C   UNL     1       7.220   4.211  12.122  0.00  0.00    +0.000 A 
ATOM     28  C   UNL     1       6.072   3.460  12.366  0.00  0.00    +0.000 A 
ATOM     29  C   UNL     1       5.401   3.569  13.593  0.00  0.00    +0.000 A 
ENDBRANCH  22  24
ENDBRANCH   5  20
BRANCH   4  30
ATOM     30  N   UNL     1       5.029   2.608  19.275  0.00  0.00    +0.000 N 
ATOM     31  H   UNL     1       5.749   2.547  18.561  0.00  0.00    +0.000 HD
ATOM     32  H   UNL     1       5.364   2.469  20.226  0.00  0.00    +0.000 HD
ENDBRANCH   4  30
TORSDOF 7
ENDMDL
