MODEL 1
REMARK VINA RESULT:      -7.2      0.000      0.000
REMARK  Name = 
REMARK  5 active torsions:
REMARK  status: ('A' for Active; 'I' for Inactive)
REMARK    1  A    between atoms: C_1  and  C_2
REMARK    2  A    between atoms: C_4  and  C_5
REMARK    3  A    between atoms: C_7  and  O_8
REMARK    4  A    between atoms: N_9  and  C_10
REMARK    5  A    between atoms: N_17  and  C_18
REMARK                            x       y       z     vdW  Elec       q    Type
REMARK                         _______ _______ _______ _____ _____    ______ ____
ROOT
ATOM      1  C   UNL     1       4.578   5.608  17.039  0.00  0.00    +0.000 A 
ATOM      2  C   UNL     1       3.980   6.847  17.360  0.00  0.00    +0.000 A 
ATOM      3  C   UNL     1       3.030   6.561  18.310  0.00  0.00    +0.000 A 
ATOM      4  N   UNL     1       3.131   5.190  18.559  0.00  0.00    +0.000 N 
ATOM      5  N   UNL     1       4.117   4.621  17.807  0.00  0.00    +0.000 NA
ENDROOT
BRANCH   1   9
ATOM      6  C   UNL     1       7.022   4.182  12.816  0.00  0.00    +0.000 C 
ATOM      7  C   UNL     1       6.664   4.767  14.130  0.00  0.00    +0.000 A 
ATOM      8  C   UNL     1       5.428   4.704  14.805  0.00  0.00    +0.000 A 
ATOM      9  C   UNL     1       5.609   5.406  15.980  0.00  0.00    +0.000 A 
ATOM     10  N   UNL     1       6.917   5.819  15.960  0.00  0.00    +0.000 N 
ATOM     11  C   UNL     1       7.692   6.489  16.977  0.00  0.00    +0.000 C 
ATOM     12  N   UNL     1       7.573   5.450  14.833  0.00  0.00    +0.000 NA
ENDBRANCH   1   9
BRANCH   4  13
ATOM     13  C   UNL     1       2.390   4.410  19.493  0.00  0.00    +0.000 A 
ATOM     14  C   UNL     1       2.763   4.363  20.842  0.00  0.00    +0.000 A 
ATOM     15  C   UNL     1       2.082   3.528  21.728  0.00  0.00    +0.000 A 
ATOM     16  C   UNL     1       1.039   2.726  21.269  0.00  0.00    +0.000 A 
ATOM     17  C   UNL     1       0.644   2.791  19.932  0.00  0.00    +0.000 A 
ATOM     18  C   UNL     1       1.300   3.650  19.047  0.00  0.00    +0.000 A 
ENDBRANCH   4  13
BRANCH   3  19
ATOM     19  O   UNL     1       2.198   7.366  18.963  0.00  0.00    +0.000 OA
ATOM     20  H   UNL     1       2.329   8.268  18.620  0.00  0.00    +0.000 HD
ENDBRANCH   3  19
TORSDOF 3
ENDMDL
MODEL 2
REMARK VINA RESULT:      -7.1      2.081      6.908
REMARK  Name = 
REMARK  5 active torsions:
REMARK  status: ('A' for Active; 'I' for Inactive)
REMARK    1  A    between atoms: C_1  and  C_2
REMARK    2  A    between atoms: C_4  and  C_5
REMARK    3  A    between atoms: C_7  and  O_8
REMARK    4  A    between atoms: N_9  and  C_10
REMARK    5  A    between atoms: N_17  and  C_18
REMARK                            x       y       z     vdW  Elec       q    Type
REMARK                         _______ _______ _______ _____ _____    ______ ____
ROOT
ATOM      1  C   UNL     1       4.815   4.475  17.860  0.00  0.00    +0.000 A 
ATOM      2  C   UNL     1       6.158   4.501  18.294  0.00  0.00    +0.000 A 
ATOM      3  C   UNL     1       6.915   4.426  17.149  0.00  0.00    +0.000 A 
ATOM      4  N   UNL     1       6.010   4.413  16.086  0.00  0.00    +0.000 N 
ATOM      5  N   UNL     1       4.723   4.491  16.530  0.00  0.00    +0.000 NA
ENDROOT
BRANCH   1   9
ATOM      6  C   UNL     1       1.170   2.999  21.080  0.00  0.00    +0.000 C 
ATOM      7  C   UNL     1       2.036   3.778  20.165  0.00  0.00    +0.000 A 
ATOM      8  C   UNL     1       3.184   3.346  19.470  0.00  0.00    +0.000 A 
ATOM      9  C   UNL     1       3.626   4.444  18.761  0.00  0.00    +0.000 A 
ATOM     10  N   UNL     1       2.729   5.443  19.039  0.00  0.00    +0.000 N 
ATOM     11  C   UNL     1       2.624   6.773  18.487  0.00  0.00    +0.000 C 
ATOM     12  N   UNL     1       1.759   5.060  19.904  0.00  0.00    +0.000 NA
ENDBRANCH   1   9
BRANCH   4  13
ATOM     13  C   UNL     1       6.295   4.383  14.690  0.00  0.00    +0.000 A 
ATOM     14  C   UNL     1       5.579   3.540  13.831  0.00  0.00    +0.000 A 
ATOM     15  C   UNL     1       5.926   3.457  12.482  0.00  0.00    +0.000 A 
ATOM     16  C   UNL     1       6.997   4.201  11.991  0.00  0.00    +0.000 A 
ATOM     17  C   UNL     1       7.694   5.065  12.836  0.00  0.00    +0.000 A 
ATOM     18  C   UNL     1       7.330   5.178  14.179  0.00  0.00    +0.000 A 
ENDBRANCH   4  13
BRANCH   3  19
ATOM     19  O   UNL     1       8.235   4.431  16.990  0.00  0.00    +0.000 OA
ATOM     20  H   UNL     1       8.574   3.573  17.299  0.00  0.00    +0.000 HD
ENDBRANCH   3  19
TORSDOF 3
ENDMDL
MODEL 3
REMARK VINA RESULT:      -7.1      2.374      6.806
REMARK  Name = 
REMARK  5 active torsions:
REMARK  status: ('A' for Active; 'I' for Inactive)
REMARK    1  A    between atoms: C_1  and  C_2
REMARK    2  A    between atoms: C_4  and  C_5
REMARK    3  A    between atoms: C_7  and  O_8
REMARK    4  A    between atoms: N_9  and  C_10
REMARK    5  A    between atoms: N_17  and  C_18
REMARK                            x       y       z     vdW  Elec       q    Type
REMARK                         _______ _______ _______ _____ _____    ______ ____
ROOT
ATOM      1  C   UNL     1       4.964   5.863  17.396  0.00  0.00    +0.000 A 
ATOM      2  C   UNL     1       6.108   5.321  18.022  0.00  0.00    +0.000 A 
ATOM      3  C   UNL     1       6.844   4.751  17.011  0.00  0.00    +0.000 A 
ATOM      4  N   UNL     1       6.151   5.019  15.828  0.00  0.00    +0.000 N 
ATOM      5  N   UNL     1       5.021   5.743  16.070  0.00  0.00    +0.000 NA
ENDROOT
BRANCH   1   9
ATOM      6  C   UNL     1       1.346   9.108  18.885  0.00  0.00    +0.000 C 
ATOM      7  C   UNL     1       2.251   7.942  18.752  0.00  0.00    +0.000 A 
ATOM      8  C   UNL     1       3.290   7.747  17.819  0.00  0.00    +0.000 A 
ATOM      9  C   UNL     1       3.824   6.507  18.110  0.00  0.00    +0.000 A 
ATOM     10  N   UNL     1       3.112   6.049  19.189  0.00  0.00    +0.000 N 
ATOM     11  C   UNL     1       3.308   4.864  19.992  0.00  0.00    +0.000 C 
ATOM     12  N   UNL     1       2.140   6.904  19.587  0.00  0.00    +0.000 NA
ENDBRANCH   1   9
BRANCH   4  13
ATOM     13  C   UNL     1       6.521   4.675  14.497  0.00  0.00    +0.000 A 
ATOM     14  C   UNL     1       7.551   5.360  13.840  0.00  0.00    +0.000 A 
ATOM     15  C   UNL     1       7.845   5.071  12.507  0.00  0.00    +0.000 A 
ATOM     16  C   UNL     1       7.102   4.112  11.821  0.00  0.00    +0.000 A 
ATOM     17  C   UNL     1       6.095   3.406  12.479  0.00  0.00    +0.000 A 
ATOM     18  C   UNL     1       5.818   3.666  13.823  0.00  0.00    +0.000 A 
ENDBRANCH   4  13
BRANCH   3  19
ATOM     19  O   UNL     1       8.015   4.123  17.050  0.00  0.00    +0.000 OA
ATOM     20  H   UNL     1       8.402   4.271  17.931  0.00  0.00    +0.000 HD
ENDBRANCH   3  19
TORSDOF 3
ENDMDL
MODEL 4
REMARK VINA RESULT:      -7.1      2.096      3.250
REMARK  Name = 
REMARK  5 active torsions:
REMARK  status: ('A' for Active; 'I' for Inactive)
REMARK    1  A    between atoms: C_1  and  C_2
REMARK    2  A    between atoms: C_4  and  C_5
REMARK    3  A    between atoms: C_7  and  O_8
REMARK    4  A    between atoms: N_9  and  C_10
REMARK    5  A    between atoms: N_17  and  C_18
REMARK                            x       y       z     vdW  Elec       q    Type
REMARK                         _______ _______ _______ _____ _____    ______ ____
ROOT
ATOM      1  C   UNL     1       4.373   5.430  17.083  0.00  0.00    +0.000 A 
ATOM      2  C   UNL     1       3.537   4.419  17.606  0.00  0.00    +0.000 A 
ATOM      3  C   UNL     1       2.640   5.069  18.418  0.00  0.00    +0.000 A 
ATOM      4  N   UNL     1       2.933   6.431  18.309  0.00  0.00    +0.000 N 
ATOM      5  N   UNL     1       3.970   6.646  17.449  0.00  0.00    +0.000 NA
ENDROOT
BRANCH   1   9
ATOM      6  C   UNL     1       7.437   4.749  13.084  0.00  0.00    +0.000 C 
ATOM      7  C   UNL     1       6.886   4.889  14.453  0.00  0.00    +0.000 A 
ATOM      8  C   UNL     1       5.554   5.154  14.834  0.00  0.00    +0.000 A 
ATOM      9  C   UNL     1       5.562   5.191  16.214  0.00  0.00    +0.000 A 
ATOM     10  N   UNL     1       6.857   4.928  16.578  0.00  0.00    +0.000 N 
ATOM     11  C   UNL     1       7.428   4.726  17.889  0.00  0.00    +0.000 C 
ATOM     12  N   UNL     1       7.682   4.754  15.518  0.00  0.00    +0.000 NA
ENDBRANCH   1   9
BRANCH   4  13
ATOM     13  C   UNL     1       2.263   7.526  18.925  0.00  0.00    +0.000 A 
ATOM     14  C   UNL     1       1.946   7.496  20.289  0.00  0.00    +0.000 A 
ATOM     15  C   UNL     1       1.213   8.537  20.860  0.00  0.00    +0.000 A 
ATOM     16  C   UNL     1       0.781   9.601  20.071  0.00  0.00    +0.000 A 
ATOM     17  C   UNL     1       1.120   9.650  18.719  0.00  0.00    +0.000 A 
ATOM     18  C   UNL     1       1.882   8.629  18.148  0.00  0.00    +0.000 A 
ENDBRANCH   4  13
BRANCH   3  19
ATOM     19  O   UNL     1       1.628   4.592  19.136  0.00  0.00    +0.000 OA
ATOM     20  H   UNL     1       1.963   4.401  20.030  0.00  0.00    +0.000 HD
ENDBRANCH   3  19
TORSDOF 3
ENDMDL
MODEL 5
REMARK VINA RESULT:      -7.0      2.113      6.854
REMARK  Name = 
REMARK  5 active torsions:
REMARK  status: ('A' for Active; 'I' for Inactive)
REMARK    1  A    between atoms: C_1  and  C_2
REMARK    2  A    between atoms: C_4  and  C_5
REMARK    3  A    between atoms: C_7  and  O_8
REMARK    4  A    between atoms: N_9  and  C_10
REMARK    5  A    between atoms: N_17  and  C_18
REMARK                            x       y       z     vdW  Elec       q    Type
REMARK                         _______ _______ _______ _____ _____    ______ ____
ROOT
ATOM      1  C   UNL     1       4.831   4.520  17.631  0.00  0.00    +0.000 A 
ATOM      2  C   UNL     1       6.145   4.486  18.147  0.00  0.00    +0.000 A 
ATOM      3  C   UNL     1       6.967   4.363  17.052  0.00  0.00    +0.000 A 
ATOM      4  N   UNL     1       6.129   4.383  15.935  0.00  0.00    +0.000 N 
ATOM      5  N   UNL     1       4.822   4.527  16.298  0.00  0.00    +0.000 NA
ENDROOT
BRANCH   1   9
ATOM      6  C   UNL     1       0.832   3.221  20.487  0.00  0.00    +0.000 C 
ATOM      7  C   UNL     1       1.842   3.966  19.699  0.00  0.00    +0.000 A 
ATOM      8  C   UNL     1       2.977   3.460  19.033  0.00  0.00    +0.000 A 
ATOM      9  C   UNL     1       3.589   4.555  18.456  0.00  0.00    +0.000 A 
ATOM     10  N   UNL     1       2.796   5.627  18.776  0.00  0.00    +0.000 N 
ATOM     11  C   UNL     1       2.882   7.003  18.347  0.00  0.00    +0.000 C 
ATOM     12  N   UNL     1       1.733   5.290  19.545  0.00  0.00    +0.000 NA
ENDBRANCH   1   9
BRANCH   4  13
ATOM     13  C   UNL     1       6.497   4.326  14.560  0.00  0.00    +0.000 A 
ATOM     14  C   UNL     1       7.484   5.177  14.046  0.00  0.00    +0.000 A 
ATOM     15  C   UNL     1       7.773   5.170  12.682  0.00  0.00    +0.000 A 
ATOM     16  C   UNL     1       7.070   4.327  11.824  0.00  0.00    +0.000 A 
ATOM     17  C   UNL     1       6.107   3.456  12.334  0.00  0.00    +0.000 A 
ATOM     18  C   UNL     1       5.836   3.434  13.704  0.00  0.00    +0.000 A 
ENDBRANCH   4  13
BRANCH   3  19
ATOM     19  O   UNL     1       8.292   4.304  16.975  0.00  0.00    +0.000 OA
ATOM     20  H   UNL     1       8.644   5.167  17.259  0.00  0.00    +0.000 HD
ENDBRANCH   3  19
TORSDOF 3
ENDMDL
MODEL 6
REMARK VINA RESULT:      -7.0      2.370      3.509
REMARK  Name = 
REMARK  5 active torsions:
REMARK  status: ('A' for Active; 'I' for Inactive)
REMARK    1  A    between atoms: C_1  and  C_2
REMARK    2  A    between atoms: C_4  and  C_5
REMARK    3  A    between atoms: C_7  and  O_8
REMARK    4  A    between atoms: N_9  and  C_10
REMARK    5  A    between atoms: N_17  and  C_18
REMARK                            x       y       z     vdW  Elec       q    Type
REMARK                         _______ _______ _______ _____ _____    ______ ____
ROOT
ATOM      1  C   UNL     1       4.335   5.967  17.718  0.00  0.00    +0.000 A 
ATOM      2  C   UNL     1       4.051   5.161  18.842  0.00  0.00    +0.000 A 
ATOM      3  C   UNL     1       3.145   5.877  19.588  0.00  0.00    +0.000 A 
ATOM      4  N   UNL     1       2.885   7.044  18.865  0.00  0.00    +0.000 N 
ATOM      5  N   UNL     1       3.585   7.068  17.695  0.00  0.00    +0.000 NA
ENDROOT
BRANCH   1   9
ATOM      6  C   UNL     1       6.677   4.064  13.628  0.00  0.00    +0.000 C 
ATOM      7  C   UNL     1       6.351   4.794  14.875  0.00  0.00    +0.000 A 
ATOM      8  C   UNL     1       5.131   4.814  15.581  0.00  0.00    +0.000 A 
ATOM      9  C   UNL     1       5.341   5.641  16.666  0.00  0.00    +0.000 A 
ATOM     10  N   UNL     1       6.649   6.042  16.570  0.00  0.00    +0.000 N 
ATOM     11  C   UNL     1       7.450   6.818  17.488  0.00  0.00    +0.000 C 
ATOM     12  N   UNL     1       7.278   5.546  15.477  0.00  0.00    +0.000 NA
ENDBRANCH   1   9
BRANCH   4  13
ATOM     13  C   UNL     1       1.983   8.097  19.193  0.00  0.00    +0.000 A 
ATOM     14  C   UNL     1       1.484   8.233  20.494  0.00  0.00    +0.000 A 
ATOM     15  C   UNL     1       0.535   9.216  20.781  0.00  0.00    +0.000 A 
ATOM     16  C   UNL     1       0.071  10.053  19.768  0.00  0.00    +0.000 A 
ATOM     17  C   UNL     1       0.587   9.941  18.477  0.00  0.00    +0.000 A 
ATOM     18  C   UNL     1       1.561   8.982  18.191  0.00  0.00    +0.000 A 
ENDBRANCH   4  13
BRANCH   3  19
ATOM     19  O   UNL     1       2.538   5.570  20.730  0.00  0.00    +0.000 OA
ATOM     20  H   UNL     1       2.360   6.402  21.203  0.00  0.00    +0.000 HD
ENDBRANCH   3  19
TORSDOF 3
ENDMDL
MODEL 7
REMARK VINA RESULT:      -7.0      0.156      1.120
REMARK  Name = 
REMARK  5 active torsions:
REMARK  status: ('A' for Active; 'I' for Inactive)
REMARK    1  A    between atoms: C_1  and  C_2
REMARK    2  A    between atoms: C_4  and  C_5
REMARK    3  A    between atoms: C_7  and  O_8
REMARK    4  A    between atoms: N_9  and  C_10
REMARK    5  A    between atoms: N_17  and  C_18
REMARK                            x       y       z     vdW  Elec       q    Type
REMARK                         _______ _______ _______ _____ _____    ______ ____
ROOT
ATOM      1  C   UNL     1       4.605   5.480  17.023  0.00  0.00    +0.000 A 
ATOM      2  C   UNL     1       3.987   6.699  17.379  0.00  0.00    +0.000 A 
ATOM      3  C   UNL     1       3.060   6.374  18.339  0.00  0.00    +0.000 A 
ATOM      4  N   UNL     1       3.194   5.001  18.559  0.00  0.00    +0.000 N 
ATOM      5  N   UNL     1       4.178   4.468  17.779  0.00  0.00    +0.000 NA
ENDROOT
BRANCH   1   9
ATOM      6  C   UNL     1       7.026   4.140  12.759  0.00  0.00    +0.000 C 
ATOM      7  C   UNL     1       6.667   4.718  14.076  0.00  0.00    +0.000 A 
ATOM      8  C   UNL     1       5.451   4.599  14.779  0.00  0.00    +0.000 A 
ATOM      9  C   UNL     1       5.622   5.320  15.944  0.00  0.00    +0.000 A 
ATOM     10  N   UNL     1       6.906   5.799  15.891  0.00  0.00    +0.000 N 
ATOM     11  C   UNL     1       7.668   6.517  16.885  0.00  0.00    +0.000 C 
ATOM     12  N   UNL     1       7.555   5.453  14.753  0.00  0.00    +0.000 NA
ENDBRANCH   1   9
BRANCH   4  13
ATOM     13  C   UNL     1       2.485   4.188  19.489  0.00  0.00    +0.000 A 
ATOM     14  C   UNL     1       1.343   3.479  19.097  0.00  0.00    +0.000 A 
ATOM     15  C   UNL     1       0.610   2.756  20.039  0.00  0.00    +0.000 A 
ATOM     16  C   UNL     1       1.004   2.751  21.375  0.00  0.00    +0.000 A 
ATOM     17  C   UNL     1       2.158   3.430  21.765  0.00  0.00    +0.000 A 
ATOM     18  C   UNL     1       2.915   4.128  20.822  0.00  0.00    +0.000 A 
ENDBRANCH   4  13
BRANCH   3  19
ATOM     19  O   UNL     1       2.223   7.149  19.022  0.00  0.00    +0.000 OA
ATOM     20  H   UNL     1       2.151   7.997  18.548  0.00  0.00    +0.000 HD
ENDBRANCH   3  19
TORSDOF 3
ENDMDL
MODEL 8
REMARK VINA RESULT:      -7.0      2.368      6.872
REMARK  Name = 
REMARK  5 active torsions:
REMARK  status: ('A' for Active; 'I' for Inactive)
REMARK    1  A    between atoms: C_1  and  C_2
REMARK    2  A    between atoms: C_4  and  C_5
REMARK    3  A    between atoms: C_7  and  O_8
REMARK    4  A    between atoms: N_9  and  C_10
REMARK    5  A    between atoms: N_17  and  C_18
REMARK                            x       y       z     vdW  Elec       q    Type
REMARK                         _______ _______ _______ _____ _____    ______ ____
ROOT
ATOM      1  C   UNL     1       4.913   5.865  17.375  0.00  0.00    +0.000 A 
ATOM      2  C   UNL     1       6.074   5.314  17.959  0.00  0.00    +0.000 A 
ATOM      3  C   UNL     1       6.779   4.756  16.919  0.00  0.00    +0.000 A 
ATOM      4  N   UNL     1       6.049   5.038  15.761  0.00  0.00    +0.000 N 
ATOM      5  N   UNL     1       4.928   5.761  16.046  0.00  0.00    +0.000 NA
ENDROOT
BRANCH   1   9
ATOM      6  C   UNL     1       1.357   9.102  19.024  0.00  0.00    +0.000 C 
ATOM      7  C   UNL     1       2.250   7.933  18.843  0.00  0.00    +0.000 A 
ATOM      8  C   UNL     1       3.264   7.750  17.880  0.00  0.00    +0.000 A 
ATOM      9  C   UNL     1       3.796   6.501  18.132  0.00  0.00    +0.000 A 
ATOM     10  N   UNL     1       3.109   6.025  19.219  0.00  0.00    +0.000 N 
ATOM     11  C   UNL     1       3.316   4.822  19.991  0.00  0.00    +0.000 C 
ATOM     12  N   UNL     1       2.153   6.878  19.659  0.00  0.00    +0.000 NA
ENDBRANCH   1   9
BRANCH   4  13
ATOM     13  C   UNL     1       6.377   4.710  14.415  0.00  0.00    +0.000 A 
ATOM     14  C   UNL     1       5.659   3.728  13.721  0.00  0.00    +0.000 A 
ATOM     15  C   UNL     1       6.046   3.356  12.434  0.00  0.00    +0.000 A 
ATOM     16  C   UNL     1       7.159   3.949  11.841  0.00  0.00    +0.000 A 
ATOM     17  C   UNL     1       7.860   4.948  12.516  0.00  0.00    +0.000 A 
ATOM     18  C   UNL     1       7.457   5.350  13.791  0.00  0.00    +0.000 A 
ENDBRANCH   4  13
BRANCH   3  19
ATOM     19  O   UNL     1       7.949   4.127  16.914  0.00  0.00    +0.000 OA
ATOM     20  H   UNL     1       8.251   4.070  15.990  0.00  0.00    +0.000 HD
ENDBRANCH   3  19
TORSDOF 3
ENDMDL
MODEL 9
REMARK VINA RESULT:      -6.9      2.346      3.550
REMARK  Name = 
REMARK  5 active torsions:
REMARK  status: ('A' for Active; 'I' for Inactive)
REMARK    1  A    between atoms: C_1  and  C_2
REMARK    2  A    between atoms: C_4  and  C_5
REMARK    3  A    between atoms: C_7  and  O_8
REMARK    4  A    between atoms: N_9  and  C_10
REMARK    5  A    between atoms: N_17  and  C_18
REMARK                            x       y       z     vdW  Elec       q    Type
REMARK                         _______ _______ _______ _____ _____    ______ ____
ROOT
ATOM      1  C   UNL     1       4.342   5.850  17.744  0.00  0.00    +0.000 A 
ATOM      2  C   UNL     1       4.096   5.024  18.863  0.00  0.00    +0.000 A 
ATOM      3  C   UNL     1       3.206   5.720  19.644  0.00  0.00    +0.000 A 
ATOM      4  N   UNL     1       2.915   6.896  18.947  0.00  0.00    +0.000 N 
ATOM      5  N   UNL     1       3.582   6.945  17.759  0.00  0.00    +0.000 NA
ENDROOT
BRANCH   1   9
ATOM      6  C   UNL     1       6.598   3.998  13.582  0.00  0.00    +0.000 C 
ATOM      7  C   UNL     1       6.293   4.724  14.837  0.00  0.00    +0.000 A 
ATOM      8  C   UNL     1       5.098   4.711  15.585  0.00  0.00    +0.000 A 
ATOM      9  C   UNL     1       5.321   5.549  16.659  0.00  0.00    +0.000 A 
ATOM     10  N   UNL     1       6.612   5.988  16.517  0.00  0.00    +0.000 N 
ATOM     11  C   UNL     1       7.420   6.791  17.404  0.00  0.00    +0.000 C 
ATOM     12  N   UNL     1       7.217   5.506  15.405  0.00  0.00    +0.000 NA
ENDBRANCH   1   9
BRANCH   4  13
ATOM     13  C   UNL     1       2.014   7.936  19.317  0.00  0.00    +0.000 A 
ATOM     14  C   UNL     1       1.626   8.911  18.389  0.00  0.00    +0.000 A 
ATOM     15  C   UNL     1       0.812   9.972  18.787  0.00  0.00    +0.000 A 
ATOM     16  C   UNL     1       0.398  10.072  20.113  0.00  0.00    +0.000 A 
ATOM     17  C   UNL     1       0.757   9.088  21.035  0.00  0.00    +0.000 A 
ATOM     18  C   UNL     1       1.543   8.006  20.635  0.00  0.00    +0.000 A 
ENDBRANCH   4  13
BRANCH   3  19
ATOM     19  O   UNL     1       2.634   5.391  20.798  0.00  0.00    +0.000 OA
ATOM     20  H   UNL     1       2.046   4.633  20.631  0.00  0.00    +0.000 HD
ENDBRANCH   3  19
TORSDOF 3
ENDMDL
