MODEL 1
REMARK VINA RESULT:      -7.5      0.000      0.000
REMARK  Name = 
REMARK  7 active torsions:
REMARK  status: ('A' for Active; 'I' for Inactive)
REMARK    1  A    between atoms: C_1  and  C_2
REMARK    2  A    between atoms: N_4  and  C_5
REMARK    3  A    between atoms: C_8  and  S_9
REMARK    4  A    between atoms: S_9  and  C_10
REMARK    5  A    between atoms: C_10  and  C_11
REMARK    6  A    between atoms: C_11  and  N_12
REMARK    7  A    between atoms: C_15  and  O_16
REMARK                            x       y       z     vdW  Elec       q    Type
REMARK                         _______ _______ _______ _____ _____    ______ ____
ROOT
ATOM      1  S   UNL     1       4.158   6.593  17.187  0.00  0.00    +0.000 S 
ENDROOT
BRANCH   1   5
ATOM      2  C   UNL     1       1.203   8.659  20.030  0.00  0.00    +0.000 A 
ATOM      3  C   UNL     1       1.781   7.439  20.382  0.00  0.00    +0.000 A 
ATOM      4  C   UNL     1       2.695   6.813  19.534  0.00  0.00    +0.000 A 
ATOM      5  C   UNL     1       3.032   7.391  18.309  0.00  0.00    +0.000 A 
ATOM      6  C   UNL     1       2.460   8.613  17.951  0.00  0.00    +0.000 A 
ATOM      7  C   UNL     1       1.541   9.240  18.800  0.00  0.00    +0.000 A 
BRANCH   2  11
ATOM      8  C   UNL     1      -0.745  10.332  22.788  0.00  0.00    +0.000 C 
ATOM      9  C   UNL     1       0.477   9.709  22.171  0.00  0.00    +0.000 C 
ATOM     10  O   UNL     1       1.502   9.565  22.828  0.00  0.00    +0.000 OA
ATOM     11  N   UNL     1       0.280   9.339  20.851  0.00  0.00    +0.000 N 
ATOM     12  H   UNL     1      -0.573   9.653  20.405  0.00  0.00    +0.000 HD
ENDBRANCH   2  11
ENDBRANCH   1   5
BRANCH   1  13
ATOM     13  C   UNL     1       5.223   5.732  18.387  0.00  0.00    +0.000 C 
BRANCH  13  14
ATOM     14  C   UNL     1       5.231   4.209  18.199  0.00  0.00    +0.000 C 
BRANCH  14  15
ATOM     15  N   UNL     1       3.936   3.690  18.635  0.00  0.00    +0.000 N 
ATOM     16  C   UNL     1       2.959   3.371  17.606  0.00  0.00    +0.000 C 
ATOM     17  C   UNL     1       1.520   3.633  18.034  0.00  0.00    +0.000 C 
ATOM     18  C   UNL     1       0.988   2.681  19.106  0.00  0.00    +0.000 C 
ATOM     19  C   UNL     1       1.426   2.973  20.543  0.00  0.00    +0.000 C 
ATOM     20  C   UNL     1       2.824   3.524  20.756  0.00  0.00    +0.000 C 
ATOM     21  C   UNL     1       3.892   2.999  19.833  0.00  0.00    +0.000 C 
ATOM     22  O   UNL     1       4.699   2.139  20.166  0.00  0.00    +0.000 OA
BRANCH  18  23
ATOM     23  O   UNL     1       1.286   1.330  18.758  0.00  0.00    +0.000 OA
ATOM     24  H   UNL     1       2.229   1.152  18.929  0.00  0.00    +0.000 HD
ENDBRANCH  18  23
ENDBRANCH  14  15
ENDBRANCH  13  14
ENDBRANCH   1  13
TORSDOF 6
ENDMDL
MODEL 2
REMARK VINA RESULT:      -7.2      0.655      1.212
REMARK  Name = 
REMARK  7 active torsions:
REMARK  status: ('A' for Active; 'I' for Inactive)
REMARK    1  A    between atoms: C_1  and  C_2
REMARK    2  A    between atoms: N_4  and  C_5
REMARK    3  A    between atoms: C_8  and  S_9
REMARK    4  A    between atoms: S_9  and  C_10
REMARK    5  A    between atoms: C_10  and  C_11
REMARK    6  A    between atoms: C_11  and  N_12
REMARK    7  A    between atoms: C_15  and  O_16
REMARK                            x       y       z     vdW  Elec       q    Type
REMARK                         _______ _______ _______ _____ _____    ______ ____
ROOT
ATOM      1  S   UNL     1       3.826   7.039  17.252  0.00  0.00    +0.000 S 
ENDROOT
BRANCH   1   5
ATOM      2  C   UNL     1       0.829   8.895  20.194  0.00  0.00    +0.000 A 
ATOM      3  C   UNL     1       0.990   9.438  18.919  0.00  0.00    +0.000 A 
ATOM      4  C   UNL     1       1.884   8.869  18.011  0.00  0.00    +0.000 A 
ATOM      5  C   UNL     1       2.646   7.757  18.373  0.00  0.00    +0.000 A 
ATOM      6  C   UNL     1       2.488   7.206  19.645  0.00  0.00    +0.000 A 
ATOM      7  C   UNL     1       1.593   7.779  20.558  0.00  0.00    +0.000 A 
BRANCH   2  11
ATOM      8  C   UNL     1      -0.984  10.824  22.877  0.00  0.00    +0.000 C 
ATOM      9  C   UNL     1       0.108  10.596  21.867  0.00  0.00    +0.000 C 
ATOM     10  O   UNL     1       1.028  11.399  21.753  0.00  0.00    +0.000 OA
ATOM     11  N   UNL     1      -0.063   9.425  21.148  0.00  0.00    +0.000 N 
ATOM     12  H   UNL     1      -0.947   8.941  21.256  0.00  0.00    +0.000 HD
ENDBRANCH   2  11
ENDBRANCH   1   5
BRANCH   1  13
ATOM     13  C   UNL     1       4.813   6.066  18.433  0.00  0.00    +0.000 C 
BRANCH  13  14
ATOM     14  C   UNL     1       4.881   4.576  18.074  0.00  0.00    +0.000 C 
BRANCH  14  15
ATOM     15  N   UNL     1       3.663   3.934  18.565  0.00  0.00    +0.000 N 
ATOM     16  C   UNL     1       2.636   3.606  17.588  0.00  0.00    +0.000 C 
ATOM     17  C   UNL     1       1.218   3.730  18.134  0.00  0.00    +0.000 C 
ATOM     18  C   UNL     1       0.838   2.676  19.174  0.00  0.00    +0.000 C 
ATOM     19  C   UNL     1       1.361   2.913  20.593  0.00  0.00    +0.000 C 
ATOM     20  C   UNL     1       2.728   3.554  20.743  0.00  0.00    +0.000 C 
ATOM     21  C   UNL     1       3.759   3.169  19.714  0.00  0.00    +0.000 C 
ATOM     22  O   UNL     1       4.648   2.354  19.931  0.00  0.00    +0.000 OA
BRANCH  18  23
ATOM     23  O   UNL     1       1.204   1.376  18.717  0.00  0.00    +0.000 OA
ATOM     24  H   UNL     1       1.745   1.457  17.910  0.00  0.00    +0.000 HD
ENDBRANCH  18  23
ENDBRANCH  14  15
ENDBRANCH  13  14
ENDBRANCH   1  13
TORSDOF 6
ENDMDL
MODEL 3
REMARK VINA RESULT:      -7.0      2.646      4.332
REMARK  Name = 
REMARK  7 active torsions:
REMARK  status: ('A' for Active; 'I' for Inactive)
REMARK    1  A    between atoms: C_1  and  C_2
REMARK    2  A    between atoms: N_4  and  C_5
REMARK    3  A    between atoms: C_8  and  S_9
REMARK    4  A    between atoms: S_9  and  C_10
REMARK    5  A    between atoms: C_10  and  C_11
REMARK    6  A    between atoms: C_11  and  N_12
REMARK    7  A    between atoms: C_15  and  O_16
REMARK                            x       y       z     vdW  Elec       q    Type
REMARK                         _______ _______ _______ _____ _____    ______ ____
ROOT
ATOM      1  S   UNL     1       2.332   3.494  17.085  0.00  0.00    +0.000 S 
ENDROOT
BRANCH   1   5
ATOM      2  C   UNL     1       1.983   6.694  20.359  0.00  0.00    +0.000 A 
ATOM      3  C   UNL     1       1.691   5.360  20.646  0.00  0.00    +0.000 A 
ATOM      4  C   UNL     1       1.812   4.378  19.663  0.00  0.00    +0.000 A 
ATOM      5  C   UNL     1       2.212   4.718  18.370  0.00  0.00    +0.000 A 
ATOM      6  C   UNL     1       2.509   6.050  18.076  0.00  0.00    +0.000 A 
ATOM      7  C   UNL     1       2.384   7.037  19.062  0.00  0.00    +0.000 A 
BRANCH   2  11
ATOM      8  C   UNL     1       1.010   9.562  22.602  0.00  0.00    +0.000 C 
ATOM      9  C   UNL     1       0.752   8.472  21.597  0.00  0.00    +0.000 C 
ATOM     10  O   UNL     1      -0.365   8.324  21.113  0.00  0.00    +0.000 OA
ATOM     11  N   UNL     1       1.883   7.726  21.315  0.00  0.00    +0.000 N 
ATOM     12  H   UNL     1       2.695   7.876  21.901  0.00  0.00    +0.000 HD
ENDBRANCH   2  11
ENDBRANCH   1   5
BRANCH   1  13
ATOM     13  C   UNL     1       4.092   3.058  17.244  0.00  0.00    +0.000 C 
BRANCH  13  14
ATOM     14  C   UNL     1       5.005   3.915  16.356  0.00  0.00    +0.000 C 
BRANCH  14  15
ATOM     15  N   UNL     1       5.906   4.670  17.225  0.00  0.00    +0.000 N 
ATOM     16  C   UNL     1       5.879   4.367  18.647  0.00  0.00    +0.000 C 
ATOM     17  C   UNL     1       6.133   5.582  19.531  0.00  0.00    +0.000 C 
ATOM     18  C   UNL     1       7.561   6.125  19.477  0.00  0.00    +0.000 C 
ATOM     19  C   UNL     1       7.907   6.988  18.262  0.00  0.00    +0.000 C 
ATOM     20  C   UNL     1       7.268   6.626  16.934  0.00  0.00    +0.000 C 
ATOM     21  C   UNL     1       7.076   5.155  16.669  0.00  0.00    +0.000 C 
ATOM     22  O   UNL     1       7.819   4.505  15.942  0.00  0.00    +0.000 OA
BRANCH  18  23
ATOM     23  O   UNL     1       8.499   5.061  19.619  0.00  0.00    +0.000 OA
ATOM     24  H   UNL     1       8.194   4.290  19.106  0.00  0.00    +0.000 HD
ENDBRANCH  18  23
ENDBRANCH  14  15
ENDBRANCH  13  14
ENDBRANCH   1  13
TORSDOF 6
ENDMDL
MODEL 4
REMARK VINA RESULT:      -6.8      1.472      1.481
REMARK  Name = 
REMARK  7 active torsions:
REMARK  status: ('A' for Active; 'I' for Inactive)
REMARK    1  A    between atoms: C_1  and  C_2
REMARK    2  A    between atoms: N_4  and  C_5
REMARK    3  A    between atoms: C_8  and  S_9
REMARK    4  A    between atoms: S_9  and  C_10
REMARK    5  A    between atoms: C_10  and  C_11
REMARK    6  A    between atoms: C_11  and  N_12
REMARK    7  A    between atoms: C_15  and  O_16
REMARK                            x       y       z     vdW  Elec       q    Type
REMARK                         _______ _______ _______ _____ _____    ______ ____
ROOT
ATOM      1  S   UNL     1       4.224   6.269  17.272  0.00  0.00    +0.000 S 
ENDROOT
BRANCH   1   5
ATOM      2  C   UNL     1       1.334   9.094  19.452  0.00  0.00    +0.000 A 
ATOM      3  C   UNL     1       1.689   7.872  20.025  0.00  0.00    +0.000 A 
ATOM      4  C   UNL     1       2.581   7.015  19.379  0.00  0.00    +0.000 A 
ATOM      5  C   UNL     1       3.120   7.361  18.139  0.00  0.00    +0.000 A 
ATOM      6  C   UNL     1       2.773   8.583  17.561  0.00  0.00    +0.000 A 
ATOM      7  C   UNL     1       1.874   9.442  18.207  0.00  0.00    +0.000 A 
BRANCH   2  11
ATOM      8  C   UNL     1      -1.410  11.499  20.393  0.00  0.00    +0.000 C 
ATOM      9  C   UNL     1      -0.745  10.466  19.525  0.00  0.00    +0.000 C 
ATOM     10  O   UNL     1      -1.252  10.126  18.462  0.00  0.00    +0.000 OA
ATOM     11  N   UNL     1       0.443  10.000  20.063  0.00  0.00    +0.000 N 
ATOM     12  H   UNL     1       0.657  10.269  21.015  0.00  0.00    +0.000 HD
ENDBRANCH   2  11
ENDBRANCH   1   5
BRANCH   1  13
ATOM     13  C   UNL     1       5.181   5.624  18.680  0.00  0.00    +0.000 C 
BRANCH  13  14
ATOM     14  C   UNL     1       5.202   4.091  18.740  0.00  0.00    +0.000 C 
BRANCH  14  15
ATOM     15  N   UNL     1       3.839   3.627  18.991  0.00  0.00    +0.000 N 
ATOM     16  C   UNL     1       3.026   3.271  17.839  0.00  0.00    +0.000 C 
ATOM     17  C   UNL     1       1.547   3.588  18.018  0.00  0.00    +0.000 C 
ATOM     18  C   UNL     1       0.824   2.712  19.041  0.00  0.00    +0.000 C 
ATOM     19  C   UNL     1       1.039   3.077  20.511  0.00  0.00    +0.000 C 
ATOM     20  C   UNL     1       2.402   3.608  20.914  0.00  0.00    +0.000 C 
ATOM     21  C   UNL     1       3.586   3.007  20.202  0.00  0.00    +0.000 C 
ATOM     22  O   UNL     1       4.303   2.150  20.705  0.00  0.00    +0.000 OA
BRANCH  18  23
ATOM     23  O   UNL     1       1.130   1.337  18.817  0.00  0.00    +0.000 OA
ATOM     24  H   UNL     1       0.328   0.871  18.519  0.00  0.00    +0.000 HD
ENDBRANCH  18  23
ENDBRANCH  14  15
ENDBRANCH  13  14
ENDBRANCH   1  13
TORSDOF 6
ENDMDL
MODEL 5
REMARK VINA RESULT:      -6.8      2.711      4.274
REMARK  Name = 
REMARK  7 active torsions:
REMARK  status: ('A' for Active; 'I' for Inactive)
REMARK    1  A    between atoms: C_1  and  C_2
REMARK    2  A    between atoms: N_4  and  C_5
REMARK    3  A    between atoms: C_8  and  S_9
REMARK    4  A    between atoms: S_9  and  C_10
REMARK    5  A    between atoms: C_10  and  C_11
REMARK    6  A    between atoms: C_11  and  N_12
REMARK    7  A    between atoms: C_15  and  O_16
REMARK                            x       y       z     vdW  Elec       q    Type
REMARK                         _______ _______ _______ _____ _____    ______ ____
ROOT
ATOM      1  S   UNL     1       2.815   5.932  19.561  0.00  0.00    +0.000 S 
ENDROOT
BRANCH   1   5
ATOM      2  C   UNL     1       1.038  10.100  18.820  0.00  0.00    +0.000 A 
ATOM      3  C   UNL     1       0.896   9.486  20.065  0.00  0.00    +0.000 A 
ATOM      4  C   UNL     1       1.449   8.228  20.305  0.00  0.00    +0.000 A 
ATOM      5  C   UNL     1       2.139   7.555  19.296  0.00  0.00    +0.000 A 
ATOM      6  C   UNL     1       2.288   8.164  18.049  0.00  0.00    +0.000 A 
ATOM      7  C   UNL     1       1.730   9.425  17.806  0.00  0.00    +0.000 A 
BRANCH   2  11
ATOM      8  C   UNL     1       0.147  13.751  18.542  0.00  0.00    +0.000 C 
ATOM      9  C   UNL     1       1.008  12.589  18.953  0.00  0.00    +0.000 C 
ATOM     10  O   UNL     1       2.029  12.772  19.607  0.00  0.00    +0.000 OA
ATOM     11  N   UNL     1       0.506  11.371  18.524  0.00  0.00    +0.000 N 
ATOM     12  H   UNL     1      -0.269  11.395  17.872  0.00  0.00    +0.000 HD
ENDBRANCH   2  11
ENDBRANCH   1   5
BRANCH   1  13
ATOM     13  C   UNL     1       2.233   5.109  18.044  0.00  0.00    +0.000 C 
BRANCH  13  14
ATOM     14  C   UNL     1       3.191   4.020  17.546  0.00  0.00    +0.000 C 
BRANCH  14  15
ATOM     15  N   UNL     1       4.549   4.562  17.571  0.00  0.00    +0.000 N 
ATOM     16  C   UNL     1       5.473   4.017  18.553  0.00  0.00    +0.000 C 
ATOM     17  C   UNL     1       6.463   5.043  19.090  0.00  0.00    +0.000 C 
ATOM     18  C   UNL     1       7.511   5.510  18.079  0.00  0.00    +0.000 C 
ATOM     19  C   UNL     1       7.045   6.553  17.060  0.00  0.00    +0.000 C 
ATOM     20  C   UNL     1       5.614   6.463  16.563  0.00  0.00    +0.000 C 
ATOM     21  C   UNL     1       5.057   5.074  16.390  0.00  0.00    +0.000 C 
ATOM     22  O   UNL     1       4.963   4.523  15.300  0.00  0.00    +0.000 OA
BRANCH  18  23
ATOM     23  O   UNL     1       8.092   4.389  17.416  0.00  0.00    +0.000 OA
ATOM     24  H   UNL     1       8.183   4.586  16.466  0.00  0.00    +0.000 HD
ENDBRANCH  18  23
ENDBRANCH  14  15
ENDBRANCH  13  14
ENDBRANCH   1  13
TORSDOF 6
ENDMDL
MODEL 6
REMARK VINA RESULT:      -6.8      2.695      4.332
REMARK  Name = 
REMARK  7 active torsions:
REMARK  status: ('A' for Active; 'I' for Inactive)
REMARK    1  A    between atoms: C_1  and  C_2
REMARK    2  A    between atoms: N_4  and  C_5
REMARK    3  A    between atoms: C_8  and  S_9
REMARK    4  A    between atoms: S_9  and  C_10
REMARK    5  A    between atoms: C_10  and  C_11
REMARK    6  A    between atoms: C_11  and  N_12
REMARK    7  A    between atoms: C_15  and  O_16
REMARK                            x       y       z     vdW  Elec       q    Type
REMARK                         _______ _______ _______ _____ _____    ______ ____
ROOT
ATOM      1  S   UNL     1       2.733   6.088  19.599  0.00  0.00    +0.000 S 
ENDROOT
BRANCH   1   5
ATOM      2  C   UNL     1       1.083  10.285  18.735  0.00  0.00    +0.000 A 
ATOM      3  C   UNL     1       1.834   9.613  17.771  0.00  0.00    +0.000 A 
ATOM      4  C   UNL     1       2.324   8.330  18.017  0.00  0.00    +0.000 A 
ATOM      5  C   UNL     1       2.083   7.705  19.241  0.00  0.00    +0.000 A 
ATOM      6  C   UNL     1       1.330   8.369  20.210  0.00  0.00    +0.000 A 
ATOM      7  C   UNL     1       0.842   9.659  19.965  0.00  0.00    +0.000 A 
BRANCH   2  11
ATOM      8  C   UNL     1       0.275  13.966  18.668  0.00  0.00    +0.000 C 
ATOM      9  C   UNL     1       1.142  12.768  18.946  0.00  0.00    +0.000 C 
ATOM     10  O   UNL     1       2.233  12.902  19.489  0.00  0.00    +0.000 OA
ATOM     11  N   UNL     1       0.560  11.579  18.539  0.00  0.00    +0.000 N 
ATOM     12  H   UNL     1      -0.281  11.644  17.977  0.00  0.00    +0.000 HD
ENDBRANCH   2  11
ENDBRANCH   1   5
BRANCH   1  13
ATOM     13  C   UNL     1       2.202   5.208  18.096  0.00  0.00    +0.000 C 
BRANCH  13  14
ATOM     14  C   UNL     1       3.138   4.054  17.715  0.00  0.00    +0.000 C 
BRANCH  14  15
ATOM     15  N   UNL     1       4.511   4.556  17.729  0.00  0.00    +0.000 N 
ATOM     16  C   UNL     1       5.385   4.093  18.796  0.00  0.00    +0.000 C 
ATOM     17  C   UNL     1       6.390   5.142  19.255  0.00  0.00    +0.000 C 
ATOM     18  C   UNL     1       7.484   5.469  18.238  0.00  0.00    +0.000 C 
ATOM     19  C   UNL     1       7.084   6.409  17.099  0.00  0.00    +0.000 C 
ATOM     20  C   UNL     1       5.668   6.308  16.565  0.00  0.00    +0.000 C 
ATOM     21  C   UNL     1       5.072   4.925  16.520  0.00  0.00    +0.000 C 
ATOM     22  O   UNL     1       4.996   4.264  15.491  0.00  0.00    +0.000 OA
BRANCH  18  23
ATOM     23  O   UNL     1       8.050   4.267  17.719  0.00  0.00    +0.000 OA
ATOM     24  H   UNL     1       7.556   3.994  16.923  0.00  0.00    +0.000 HD
ENDBRANCH  18  23
ENDBRANCH  14  15
ENDBRANCH  13  14
ENDBRANCH   1  13
TORSDOF 6
ENDMDL
MODEL 7
REMARK VINA RESULT:      -6.7      2.123      3.929
REMARK  Name = 
REMARK  7 active torsions:
REMARK  status: ('A' for Active; 'I' for Inactive)
REMARK    1  A    between atoms: C_1  and  C_2
REMARK    2  A    between atoms: N_4  and  C_5
REMARK    3  A    between atoms: C_8  and  S_9
REMARK    4  A    between atoms: S_9  and  C_10
REMARK    5  A    between atoms: C_10  and  C_11
REMARK    6  A    between atoms: C_11  and  N_12
REMARK    7  A    between atoms: C_15  and  O_16
REMARK                            x       y       z     vdW  Elec       q    Type
REMARK                         _______ _______ _______ _____ _____    ______ ____
ROOT
ATOM      1  S   UNL     1       2.945   7.268  18.165  0.00  0.00    +0.000 S 
ENDROOT
BRANCH   1   5
ATOM      2  C   UNL     1       0.163   9.914  20.683  0.00  0.00    +0.000 A 
ATOM      3  C   UNL     1       0.334  10.169  19.322  0.00  0.00    +0.000 A 
ATOM      4  C   UNL     1       1.162   9.359  18.545  0.00  0.00    +0.000 A 
ATOM      5  C   UNL     1       1.848   8.289  19.122  0.00  0.00    +0.000 A 
ATOM      6  C   UNL     1       1.680   8.026  20.482  0.00  0.00    +0.000 A 
ATOM      7  C   UNL     1       0.851   8.841  21.264  0.00  0.00    +0.000 A 
BRANCH   2  11
ATOM      8  C   UNL     1      -1.432  12.475  22.941  0.00  0.00    +0.000 C 
ATOM      9  C   UNL     1      -0.378  11.960  22.000  0.00  0.00    +0.000 C 
ATOM     10  O   UNL     1       0.611  12.637  21.742  0.00  0.00    +0.000 OA
ATOM     11  N   UNL     1      -0.665  10.695  21.514  0.00  0.00    +0.000 N 
ATOM     12  H   UNL     1      -1.589  10.325  21.706  0.00  0.00    +0.000 HD
ENDBRANCH   2  11
ENDBRANCH   1   5
BRANCH   1  13
ATOM     13  C   UNL     1       2.522   5.638  18.855  0.00  0.00    +0.000 C 
BRANCH  13  14
ATOM     14  C   UNL     1       3.722   4.927  19.494  0.00  0.00    +0.000 C 
BRANCH  14  15
ATOM     15  N   UNL     1       4.830   4.956  18.541  0.00  0.00    +0.000 N 
ATOM     16  C   UNL     1       6.138   5.349  19.040  0.00  0.00    +0.000 C 
ATOM     17  C   UNL     1       6.970   6.120  18.023  0.00  0.00    +0.000 C 
ATOM     18  C   UNL     1       7.459   5.290  16.836  0.00  0.00    +0.000 C 
ATOM     19  C   UNL     1       6.433   5.021  15.733  0.00  0.00    +0.000 C 
ATOM     20  C   UNL     1       4.986   4.826  16.148  0.00  0.00    +0.000 C 
ATOM     21  C   UNL     1       4.761   4.105  17.452  0.00  0.00    +0.000 C 
ATOM     22  O   UNL     1       4.437   2.925  17.514  0.00  0.00    +0.000 OA
BRANCH  18  23
ATOM     23  O   UNL     1       8.033   4.067  17.293  0.00  0.00    +0.000 OA
ATOM     24  H   UNL     1       7.330   3.402  17.409  0.00  0.00    +0.000 HD
ENDBRANCH  18  23
ENDBRANCH  14  15
ENDBRANCH  13  14
ENDBRANCH   1  13
TORSDOF 6
ENDMDL
MODEL 8
REMARK VINA RESULT:      -6.7      3.680      6.984
REMARK  Name = 
REMARK  7 active torsions:
REMARK  status: ('A' for Active; 'I' for Inactive)
REMARK    1  A    between atoms: C_1  and  C_2
REMARK    2  A    between atoms: N_4  and  C_5
REMARK    3  A    between atoms: C_8  and  S_9
REMARK    4  A    between atoms: S_9  and  C_10
REMARK    5  A    between atoms: C_10  and  C_11
REMARK    6  A    between atoms: C_11  and  N_12
REMARK    7  A    between atoms: C_15  and  O_16
REMARK                            x       y       z     vdW  Elec       q    Type
REMARK                         _______ _______ _______ _____ _____    ______ ____
ROOT
ATOM      1  S   UNL     1       5.819   6.899  17.391  0.00  0.00    +0.000 S 
ENDROOT
BRANCH   1   5
ATOM      2  C   UNL     1       6.278   3.881  13.961  0.00  0.00    +0.000 A 
ATOM      3  C   UNL     1       5.301   3.692  14.939  0.00  0.00    +0.000 A 
ATOM      4  C   UNL     1       5.141   4.613  15.974  0.00  0.00    +0.000 A 
ATOM      5  C   UNL     1       5.970   5.732  16.058  0.00  0.00    +0.000 A 
ATOM      6  C   UNL     1       6.949   5.931  15.082  0.00  0.00    +0.000 A 
ATOM      7  C   UNL     1       7.112   5.004  14.045  0.00  0.00    +0.000 A 
BRANCH   2  11
ATOM      8  C   UNL     1       6.070   1.647  10.934  0.00  0.00    +0.000 C 
ATOM      9  C   UNL     1       5.589   2.729  11.862  0.00  0.00    +0.000 C 
ATOM     10  O   UNL     1       4.508   3.274  11.673  0.00  0.00    +0.000 OA
ATOM     11  N   UNL     1       6.480   2.987  12.891  0.00  0.00    +0.000 N 
ATOM     12  H   UNL     1       7.394   2.556  12.830  0.00  0.00    +0.000 HD
ENDBRANCH   2  11
ENDBRANCH   1   5
BRANCH   1  13
ATOM     13  C   UNL     1       4.056   6.680  17.788  0.00  0.00    +0.000 C 
BRANCH  13  14
ATOM     14  C   UNL     1       3.823   6.132  19.202  0.00  0.00    +0.000 C 
BRANCH  14  15
ATOM     15  N   UNL     1       3.168   4.831  19.084  0.00  0.00    +0.000 N 
ATOM     16  C   UNL     1       2.266   4.632  17.960  0.00  0.00    +0.000 C 
ATOM     17  C   UNL     1       1.084   3.725  18.284  0.00  0.00    +0.000 C 
ATOM     18  C   UNL     1       1.446   2.256  18.502  0.00  0.00    +0.000 C 
ATOM     19  C   UNL     1       2.038   1.905  19.869  0.00  0.00    +0.000 C 
ATOM     20  C   UNL     1       2.935   2.932  20.534  0.00  0.00    +0.000 C 
ATOM     21  C   UNL     1       3.821   3.733  19.616  0.00  0.00    +0.000 C 
ATOM     22  O   UNL     1       5.014   3.495  19.463  0.00  0.00    +0.000 OA
BRANCH  18  23
ATOM     23  O   UNL     1       2.298   1.797  17.456  0.00  0.00    +0.000 OA
ATOM     24  H   UNL     1       2.224   2.396  16.690  0.00  0.00    +0.000 HD
ENDBRANCH  18  23
ENDBRANCH  14  15
ENDBRANCH  13  14
ENDBRANCH   1  13
TORSDOF 6
ENDMDL
MODEL 9
REMARK VINA RESULT:      -6.6      2.753      4.277
REMARK  Name = 
REMARK  7 active torsions:
REMARK  status: ('A' for Active; 'I' for Inactive)
REMARK    1  A    between atoms: C_1  and  C_2
REMARK    2  A    between atoms: N_4  and  C_5
REMARK    3  A    between atoms: C_8  and  S_9
REMARK    4  A    between atoms: S_9  and  C_10
REMARK    5  A    between atoms: C_10  and  C_11
REMARK    6  A    between atoms: C_11  and  N_12
REMARK    7  A    between atoms: C_15  and  O_16
REMARK                            x       y       z     vdW  Elec       q    Type
REMARK                         _______ _______ _______ _____ _____    ______ ____
ROOT
ATOM      1  S   UNL     1       2.950   5.621  19.563  0.00  0.00    +0.000 S 
ENDROOT
BRANCH   1   5
ATOM      2  C   UNL     1       1.154   9.827  19.149  0.00  0.00    +0.000 A 
ATOM      3  C   UNL     1       1.025   9.122  20.345  0.00  0.00    +0.000 A 
ATOM      4  C   UNL     1       1.583   7.851  20.487  0.00  0.00    +0.000 A 
ATOM      5  C   UNL     1       2.267   7.258  19.426  0.00  0.00    +0.000 A 
ATOM      6  C   UNL     1       2.404   7.958  18.226  0.00  0.00    +0.000 A 
ATOM      7  C   UNL     1       1.840   9.231  18.082  0.00  0.00    +0.000 A 
BRANCH   2  11
ATOM      8  C   UNL     1      -0.885  12.882  18.307  0.00  0.00    +0.000 C 
ATOM      9  C   UNL     1      -0.660  11.407  18.501  0.00  0.00    +0.000 C 
ATOM     10  O   UNL     1      -1.554  10.604  18.255  0.00  0.00    +0.000 OA
ATOM     11  N   UNL     1       0.616  11.114  18.952  0.00  0.00    +0.000 N 
ATOM     12  H   UNL     1       1.193  11.893  19.245  0.00  0.00    +0.000 HD
ENDBRANCH   2  11
ENDBRANCH   1   5
BRANCH   1  13
ATOM     13  C   UNL     1       2.247   4.871  18.061  0.00  0.00    +0.000 C 
BRANCH  13  14
ATOM     14  C   UNL     1       3.217   3.912  17.358  0.00  0.00    +0.000 C 
BRANCH  14  15
ATOM     15  N   UNL     1       4.559   4.488  17.430  0.00  0.00    +0.000 N 
ATOM     16  C   UNL     1       5.494   3.898  18.375  0.00  0.00    +0.000 C 
ATOM     17  C   UNL     1       6.454   4.909  18.990  0.00  0.00    +0.000 C 
ATOM     18  C   UNL     1       7.491   5.477  18.022  0.00  0.00    +0.000 C 
ATOM     19  C   UNL     1       7.000   6.578  17.080  0.00  0.00    +0.000 C 
ATOM     20  C   UNL     1       5.574   6.486  16.570  0.00  0.00    +0.000 C 
ATOM     21  C   UNL     1       5.056   5.098  16.293  0.00  0.00    +0.000 C 
ATOM     22  O   UNL     1       4.982   4.626  15.164  0.00  0.00    +0.000 OA
BRANCH  18  23
ATOM     23  O   UNL     1       8.106   4.424  17.283  0.00  0.00    +0.000 OA
ATOM     24  H   UNL     1       9.027   4.312  17.583  0.00  0.00    +0.000 HD
ENDBRANCH  18  23
ENDBRANCH  14  15
ENDBRANCH  13  14
ENDBRANCH   1  13
TORSDOF 6
ENDMDL
