MODEL 1
REMARK VINA RESULT:      -8.9      0.000      0.000
REMARK  Name = 
REMARK  7 active torsions:
REMARK  status: ('A' for Active; 'I' for Inactive)
REMARK    1  A    between atoms: C_1  and  O_2
REMARK    2  A    between atoms: O_2  and  C_3
REMARK    3  A    between atoms: C_6  and  N_7
REMARK    4  A    between atoms: C_8  and  C_10
REMARK    5  A    between atoms: C_10  and  N_11
REMARK    6  A    between atoms: N_15  and  C_16
REMARK    7  A    between atoms: C_16  and  C_17
REMARK                            x       y       z     vdW  Elec       q    Type
REMARK                         _______ _______ _______ _____ _____    ______ ____
ROOT
ATOM      1  N   UNL     1       2.442   2.263  19.933  0.00  0.00    +0.000 NA
ATOM      2  C   UNL     1       1.328   2.136  18.967  0.00  0.00    +0.000 C 
ATOM      3  C   UNL     1       1.212   3.395  18.131  0.00  0.00    +0.000 C 
ATOM      4  C   UNL     1       2.447   3.574  17.265  0.00  0.00    +0.000 C 
ATOM      5  N   UNL     1       3.702   3.654  18.067  0.00  0.00    +0.000 NA
ATOM      6  S   UNL     1       3.951   2.393  19.193  0.00  0.00    +0.000 S 
ATOM      7  O   UNL     1       4.927   2.830  20.160  0.00  0.00    +0.000 OA
ATOM      8  O   UNL     1       4.145   1.185  18.420  0.00  0.00    +0.000 OA
ENDROOT
BRANCH   1   9
ATOM      9  C   UNL     1       2.199   3.172  21.077  0.00  0.00    +0.000 C 
BRANCH   9  11
ATOM     10  N   UNL     1       2.526   5.503  20.378  0.00  0.00    +0.000 N 
ATOM     11  C   UNL     1       1.593   4.509  20.664  0.00  0.00    +0.000 C 
ATOM     12  O   UNL     1       0.373   4.646  20.630  0.00  0.00    +0.000 OA
ATOM     13  H   UNL     1       3.469   5.346  20.717  0.00  0.00    +0.000 HD
BRANCH  10  17
ATOM     14  C   UNL     1       1.497   9.300  18.770  0.00  0.00    +0.000 A 
ATOM     15  C   UNL     1       2.149   8.354  17.982  0.00  0.00    +0.000 A 
ATOM     16  C   UNL     1       2.498   7.109  18.510  0.00  0.00    +0.000 A 
ATOM     17  C   UNL     1       2.218   6.778  19.838  0.00  0.00    +0.000 A 
ATOM     18  C   UNL     1       1.635   7.751  20.656  0.00  0.00    +0.000 A 
ATOM     19  C   UNL     1       1.271   9.001  20.122  0.00  0.00    +0.000 A 
ATOM     20 CL   UNL     1       0.501  10.143  21.169  0.00  0.00    +0.000 Cl
BRANCH  14  22
ATOM     21  C   UNL     1       2.060  11.571  18.430  0.00  0.00    +0.000 C 
ATOM     22  O   UNL     1       1.101  10.523  18.290  0.00  0.00    +0.000 OA
ENDBRANCH  14  22
ENDBRANCH  10  17
ENDBRANCH   9  11
ENDBRANCH   1   9
BRANCH   5  23
ATOM     23  C   UNL     1       4.903   3.734  17.146  0.00  0.00    +0.000 C 
BRANCH  23  24
ATOM     24  C   UNL     1       5.770   4.966  17.327  0.00  0.00    +0.000 A 
ATOM     25  C   UNL     1       6.931   4.906  18.110  0.00  0.00    +0.000 A 
ATOM     26  C   UNL     1       7.716   6.046  18.300  0.00  0.00    +0.000 A 
ATOM     27  C   UNL     1       7.349   7.251  17.706  0.00  0.00    +0.000 A 
ATOM     28 CL   UNL     1       8.298   8.662  17.970  0.00  0.00    +0.000 Cl
ATOM     29  C   UNL     1       6.211   7.323  16.904  0.00  0.00    +0.000 A 
ATOM     30  C   UNL     1       5.428   6.183  16.712  0.00  0.00    +0.000 A 
ENDBRANCH  23  24
ENDBRANCH   5  23
TORSDOF 6
ENDMDL
MODEL 2
REMARK VINA RESULT:      -8.8      0.503      1.036
REMARK  Name = 
REMARK  7 active torsions:
REMARK  status: ('A' for Active; 'I' for Inactive)
REMARK    1  A    between atoms: C_1  and  O_2
REMARK    2  A    between atoms: O_2  and  C_3
REMARK    3  A    between atoms: C_6  and  N_7
REMARK    4  A    between atoms: C_8  and  C_10
REMARK    5  A    between atoms: C_10  and  N_11
REMARK    6  A    between atoms: N_15  and  C_16
REMARK    7  A    between atoms: C_16  and  C_17
REMARK                            x       y       z     vdW  Elec       q    Type
REMARK                         _______ _______ _______ _____ _____    ______ ____
ROOT
ATOM      1  N   UNL     1       2.429   2.144  19.868  0.00  0.00    +0.000 NA
ATOM      2  C   UNL     1       1.312   2.065  18.900  0.00  0.00    +0.000 C 
ATOM      3  C   UNL     1       1.197   3.364  18.126  0.00  0.00    +0.000 C 
ATOM      4  C   UNL     1       2.430   3.584  17.267  0.00  0.00    +0.000 C 
ATOM      5  N   UNL     1       3.686   3.623  18.070  0.00  0.00    +0.000 NA
ATOM      6  S   UNL     1       3.936   2.308  19.132  0.00  0.00    +0.000 S 
ATOM      7  O   UNL     1       4.915   2.697  20.118  0.00  0.00    +0.000 OA
ATOM      8  O   UNL     1       4.128   1.139  18.301  0.00  0.00    +0.000 OA
ENDROOT
BRANCH   1   9
ATOM      9  C   UNL     1       2.189   2.997  21.056  0.00  0.00    +0.000 C 
BRANCH   9  11
ATOM     10  N   UNL     1       2.493   5.368  20.497  0.00  0.00    +0.000 N 
ATOM     11  C   UNL     1       1.570   4.347  20.711  0.00  0.00    +0.000 C 
ATOM     12  O   UNL     1       0.349   4.469  20.667  0.00  0.00    +0.000 OA
ATOM     13  H   UNL     1       3.433   5.203  20.840  0.00  0.00    +0.000 HD
BRANCH  10  17
ATOM     14  C   UNL     1       1.436   9.238  19.096  0.00  0.00    +0.000 A 
ATOM     15  C   UNL     1       2.091   8.340  18.257  0.00  0.00    +0.000 A 
ATOM     16  C   UNL     1       2.450   7.071  18.718  0.00  0.00    +0.000 A 
ATOM     17  C   UNL     1       2.176   6.668  20.026  0.00  0.00    +0.000 A 
ATOM     18  C   UNL     1       1.589   7.591  20.897  0.00  0.00    +0.000 A 
ATOM     19  C   UNL     1       1.215   8.866  20.431  0.00  0.00    +0.000 A 
ATOM     20 CL   UNL     1       0.440   9.945  21.539  0.00  0.00    +0.000 Cl
BRANCH  14  22
ATOM     21  C   UNL     1      -0.307  10.553  18.189  0.00  0.00    +0.000 C 
ATOM     22  O   UNL     1       1.030  10.482  18.684  0.00  0.00    +0.000 OA
ENDBRANCH  14  22
ENDBRANCH  10  17
ENDBRANCH   9  11
ENDBRANCH   1   9
BRANCH   5  23
ATOM     23  C   UNL     1       4.886   3.746  17.152  0.00  0.00    +0.000 C 
BRANCH  23  24
ATOM     24  C   UNL     1       5.736   4.983  17.370  0.00  0.00    +0.000 A 
ATOM     25  C   UNL     1       5.383   6.201  16.772  0.00  0.00    +0.000 A 
ATOM     26  C   UNL     1       6.180   7.335  16.949  0.00  0.00    +0.000 A 
ATOM     27  C   UNL     1       7.332   7.261  17.728  0.00  0.00    +0.000 A 
ATOM     28 CL   UNL     1       8.330   8.649  17.916  0.00  0.00    +0.000 Cl
ATOM     29  C   UNL     1       7.685   6.066  18.350  0.00  0.00    +0.000 A 
ATOM     30  C   UNL     1       6.888   4.933  18.175  0.00  0.00    +0.000 A 
ENDBRANCH  23  24
ENDBRANCH   5  23
TORSDOF 6
ENDMDL
MODEL 3
REMARK VINA RESULT:      -8.2      1.054      1.383
REMARK  Name = 
REMARK  7 active torsions:
REMARK  status: ('A' for Active; 'I' for Inactive)
REMARK    1  A    between atoms: C_1  and  O_2
REMARK    2  A    between atoms: O_2  and  C_3
REMARK    3  A    between atoms: C_6  and  N_7
REMARK    4  A    between atoms: C_8  and  C_10
REMARK    5  A    between atoms: C_10  and  N_11
REMARK    6  A    between atoms: N_15  and  C_16
REMARK    7  A    between atoms: C_16  and  C_17
REMARK                            x       y       z     vdW  Elec       q    Type
REMARK                         _______ _______ _______ _____ _____    ______ ____
ROOT
ATOM      1  N   UNL     1       2.486   2.129  19.839  0.00  0.00    +0.000 NA
ATOM      2  C   UNL     1       1.336   2.134  18.907  0.00  0.00    +0.000 C 
ATOM      3  C   UNL     1       1.241   3.471  18.198  0.00  0.00    +0.000 C 
ATOM      4  C   UNL     1       2.452   3.691  17.309  0.00  0.00    +0.000 C 
ATOM      5  N   UNL     1       3.735   3.649  18.068  0.00  0.00    +0.000 NA
ATOM      6  S   UNL     1       3.973   2.277  19.059  0.00  0.00    +0.000 S 
ATOM      7  O   UNL     1       4.997   2.584  20.027  0.00  0.00    +0.000 OA
ATOM      8  O   UNL     1       4.095   1.143  18.169  0.00  0.00    +0.000 OA
ENDROOT
BRANCH   1   9
ATOM      9  C   UNL     1       2.316   2.932  21.072  0.00  0.00    +0.000 C 
BRANCH   9  11
ATOM     10  N   UNL     1       2.424   5.365  20.759  0.00  0.00    +0.000 N 
ATOM     11  C   UNL     1       1.590   4.251  20.835  0.00  0.00    +0.000 C 
ATOM     12  O   UNL     1       0.365   4.272  20.753  0.00  0.00    +0.000 OA
ATOM     13  H   UNL     1       3.363   5.248  21.122  0.00  0.00    +0.000 HD
BRANCH  10  17
ATOM     14  C   UNL     1       1.275   9.316  19.698  0.00  0.00    +0.000 A 
ATOM     15  C   UNL     1       0.866   8.765  20.910  0.00  0.00    +0.000 A 
ATOM     16  C   UNL     1       1.233   7.463  21.257  0.00  0.00    +0.000 A 
ATOM     17  C   UNL     1       2.005   6.673  20.403  0.00  0.00    +0.000 A 
ATOM     18  C   UNL     1       2.353   7.191  19.152  0.00  0.00    +0.000 A 
ATOM     19  C   UNL     1       1.996   8.508  18.805  0.00  0.00    +0.000 A 
ATOM     20 CL   UNL     1       2.504   9.114  17.267  0.00  0.00    +0.000 Cl
BRANCH  14  22
ATOM     21  C   UNL     1      -0.374  10.811  18.901  0.00  0.00    +0.000 C 
ATOM     22  O   UNL     1       0.973  10.601  19.324  0.00  0.00    +0.000 OA
ENDBRANCH  14  22
ENDBRANCH  10  17
ENDBRANCH   9  11
ENDBRANCH   1   9
BRANCH   5  23
ATOM     23  C   UNL     1       4.907   3.774  17.116  0.00  0.00    +0.000 C 
BRANCH  23  24
ATOM     24  C   UNL     1       5.764   5.011  17.312  0.00  0.00    +0.000 A 
ATOM     25  C   UNL     1       6.947   4.942  18.061  0.00  0.00    +0.000 A 
ATOM     26  C   UNL     1       7.723   6.086  18.266  0.00  0.00    +0.000 A 
ATOM     27  C   UNL     1       7.325   7.304  17.720  0.00  0.00    +0.000 A 
ATOM     28 CL   UNL     1       8.264   8.718  18.002  0.00  0.00    +0.000 Cl
ATOM     29  C   UNL     1       6.165   7.386  16.953  0.00  0.00    +0.000 A 
ATOM     30  C   UNL     1       5.390   6.243  16.746  0.00  0.00    +0.000 A 
ENDBRANCH  23  24
ENDBRANCH   5  23
TORSDOF 6
ENDMDL
MODEL 4
REMARK VINA RESULT:      -7.8      4.903      7.377
REMARK  Name = 
REMARK  7 active torsions:
REMARK  status: ('A' for Active; 'I' for Inactive)
REMARK    1  A    between atoms: C_1  and  O_2
REMARK    2  A    between atoms: O_2  and  C_3
REMARK    3  A    between atoms: C_6  and  N_7
REMARK    4  A    between atoms: C_8  and  C_10
REMARK    5  A    between atoms: C_10  and  N_11
REMARK    6  A    between atoms: N_15  and  C_16
REMARK    7  A    between atoms: C_16  and  C_17
REMARK                            x       y       z     vdW  Elec       q    Type
REMARK                         _______ _______ _______ _____ _____    ______ ____
ROOT
ATOM      1  N   UNL     1       6.940   6.787  16.551  0.00  0.00    +0.000 NA
ATOM      2  C   UNL     1       7.593   5.758  15.711  0.00  0.00    +0.000 C 
ATOM      3  C   UNL     1       7.424   4.387  16.336  0.00  0.00    +0.000 C 
ATOM      4  C   UNL     1       5.960   3.987  16.358  0.00  0.00    +0.000 C 
ATOM      5  N   UNL     1       5.113   4.956  17.111  0.00  0.00    +0.000 NA
ATOM      6  S   UNL     1       5.269   6.596  16.657  0.00  0.00    +0.000 S 
ATOM      7  O   UNL     1       4.755   7.417  17.726  0.00  0.00    +0.000 OA
ATOM      8  O   UNL     1       4.748   6.701  15.311  0.00  0.00    +0.000 OA
ENDROOT
BRANCH   1   9
ATOM      9  C   UNL     1       7.638   7.120  17.815  0.00  0.00    +0.000 C 
BRANCH   9  11
ATOM     10  N   UNL     1       8.874   8.908  18.958  0.00  0.00    +0.000 N 
ATOM     11  C   UNL     1       7.966   8.604  17.946  0.00  0.00    +0.000 C 
ATOM     12  O   UNL     1       7.422   9.420  17.207  0.00  0.00    +0.000 OA
ATOM     13  H   UNL     1       9.019   8.192  19.662  0.00  0.00    +0.000 HD
BRANCH  10  17
ATOM     14  C   UNL     1      10.481  12.783  19.637  0.00  0.00    +0.000 A 
ATOM     15  C   UNL     1      10.732  12.115  18.440  0.00  0.00    +0.000 A 
ATOM     16  C   UNL     1      10.214  10.837  18.218  0.00  0.00    +0.000 A 
ATOM     17  C   UNL     1       9.444  10.187  19.184  0.00  0.00    +0.000 A 
ATOM     18  C   UNL     1       9.253  10.818  20.417  0.00  0.00    +0.000 A 
ATOM     19  C   UNL     1       9.763  12.111  20.638  0.00  0.00    +0.000 A 
ATOM     20 CL   UNL     1       9.446  12.864  22.163  0.00  0.00    +0.000 Cl
BRANCH  14  22
ATOM     21  C   UNL     1      11.002  14.913  18.755  0.00  0.00    +0.000 C 
ATOM     22  O   UNL     1      10.935  14.052  19.891  0.00  0.00    +0.000 OA
ENDBRANCH  14  22
ENDBRANCH  10  17
ENDBRANCH   9  11
ENDBRANCH   1   9
BRANCH   5  23
ATOM     23  C   UNL     1       3.655   4.557  17.014  0.00  0.00    +0.000 C 
BRANCH  23  24
ATOM     24  C   UNL     1       3.040   4.051  18.306  0.00  0.00    +0.000 A 
ATOM     25  C   UNL     1       3.725   3.118  19.098  0.00  0.00    +0.000 A 
ATOM     26  C   UNL     1       3.149   2.629  20.273  0.00  0.00    +0.000 A 
ATOM     27  C   UNL     1       1.889   3.073  20.668  0.00  0.00    +0.000 A 
ATOM     28 CL   UNL     1       1.167   2.445  22.097  0.00  0.00    +0.000 Cl
ATOM     29  C   UNL     1       1.205   4.018  19.906  0.00  0.00    +0.000 A 
ATOM     30  C   UNL     1       1.781   4.508  18.732  0.00  0.00    +0.000 A 
ENDBRANCH  23  24
ENDBRANCH   5  23
TORSDOF 6
ENDMDL
MODEL 5
REMARK VINA RESULT:      -7.4      4.892      9.650
REMARK  Name = 
REMARK  7 active torsions:
REMARK  status: ('A' for Active; 'I' for Inactive)
REMARK    1  A    between atoms: C_1  and  O_2
REMARK    2  A    between atoms: O_2  and  C_3
REMARK    3  A    between atoms: C_6  and  N_7
REMARK    4  A    between atoms: C_8  and  C_10
REMARK    5  A    between atoms: C_10  and  N_11
REMARK    6  A    between atoms: N_15  and  C_16
REMARK    7  A    between atoms: C_16  and  C_17
REMARK                            x       y       z     vdW  Elec       q    Type
REMARK                         _______ _______ _______ _____ _____    ______ ____
ROOT
ATOM      1  N   UNL     1       1.354  11.023  19.370  0.00  0.00    +0.000 NA
ATOM      2  C   UNL     1       1.933  12.336  19.009  0.00  0.00    +0.000 C 
ATOM      3  C   UNL     1       0.856  13.252  18.462  0.00  0.00    +0.000 C 
ATOM      4  C   UNL     1      -0.169  13.571  19.536  0.00  0.00    +0.000 C 
ATOM      5  N   UNL     1      -0.823  12.347  20.084  0.00  0.00    +0.000 NA
ATOM      6  S   UNL     1       0.230  11.114  20.623  0.00  0.00    +0.000 S 
ATOM      7  O   UNL     1      -0.512   9.879  20.697  0.00  0.00    +0.000 OA
ATOM      8  O   UNL     1       0.927  11.644  21.775  0.00  0.00    +0.000 OA
ENDROOT
BRANCH   1   9
ATOM      9  C   UNL     1       0.990  10.148  18.232  0.00  0.00    +0.000 C 
BRANCH   9  11
ATOM     10  N   UNL     1       1.830   8.081  19.256  0.00  0.00    +0.000 N 
ATOM     11  C   UNL     1       1.861   8.901  18.130  0.00  0.00    +0.000 C 
ATOM     12  O   UNL     1       2.535   8.703  17.123  0.00  0.00    +0.000 OA
ATOM     13  H   UNL     1       1.468   8.498  20.107  0.00  0.00    +0.000 HD
BRANCH  10  17
ATOM     14  C   UNL     1       3.686   4.276  19.633  0.00  0.00    +0.000 A 
ATOM     15  C   UNL     1       4.095   5.165  18.641  0.00  0.00    +0.000 A 
ATOM     16  C   UNL     1       3.480   6.412  18.508  0.00  0.00    +0.000 A 
ATOM     17  C   UNL     1       2.436   6.801  19.349  0.00  0.00    +0.000 A 
ATOM     18  C   UNL     1       1.968   5.885  20.296  0.00  0.00    +0.000 A 
ATOM     19  C   UNL     1       2.595   4.633  20.441  0.00  0.00    +0.000 A 
ATOM     20 CL   UNL     1       2.010   3.563  21.668  0.00  0.00    +0.000 Cl
BRANCH  14  22
ATOM     21  C   UNL     1       3.798   2.003  18.994  0.00  0.00    +0.000 C 
ATOM     22  O   UNL     1       4.280   3.055  19.830  0.00  0.00    +0.000 OA
ENDBRANCH  14  22
ENDBRANCH  10  17
ENDBRANCH   9  11
ENDBRANCH   1   9
BRANCH   5  23
ATOM     23  C   UNL     1      -1.759  12.721  21.215  0.00  0.00    +0.000 C 
BRANCH  23  24
ATOM     24  C   UNL     1      -3.237  12.607  20.889  0.00  0.00    +0.000 A 
ATOM     25  C   UNL     1      -3.653  12.284  19.590  0.00  0.00    +0.000 A 
ATOM     26  C   UNL     1      -5.014  12.205  19.281  0.00  0.00    +0.000 A 
ATOM     27  C   UNL     1      -5.967  12.443  20.269  0.00  0.00    +0.000 A 
ATOM     28 CL   UNL     1      -7.640  12.380  19.879  0.00  0.00    +0.000 Cl
ATOM     29  C   UNL     1      -5.570  12.741  21.572  0.00  0.00    +0.000 A 
ATOM     30  C   UNL     1      -4.211  12.818  21.881  0.00  0.00    +0.000 A 
ENDBRANCH  23  24
ENDBRANCH   5  23
TORSDOF 6
ENDMDL
MODEL 6
REMARK VINA RESULT:      -7.3      5.139      9.764
REMARK  Name = 
REMARK  7 active torsions:
REMARK  status: ('A' for Active; 'I' for Inactive)
REMARK    1  A    between atoms: C_1  and  O_2
REMARK    2  A    between atoms: O_2  and  C_3
REMARK    3  A    between atoms: C_6  and  N_7
REMARK    4  A    between atoms: C_8  and  C_10
REMARK    5  A    between atoms: C_10  and  N_11
REMARK    6  A    between atoms: N_15  and  C_16
REMARK    7  A    between atoms: C_16  and  C_17
REMARK                            x       y       z     vdW  Elec       q    Type
REMARK                         _______ _______ _______ _____ _____    ______ ____
ROOT
ATOM      1  N   UNL     1       1.067  10.324  20.529  0.00  0.00    +0.000 NA
ATOM      2  C   UNL     1       1.739  11.641  20.611  0.00  0.00    +0.000 C 
ATOM      3  C   UNL     1       0.716  12.757  20.525  0.00  0.00    +0.000 C 
ATOM      4  C   UNL     1      -0.209  12.726  21.729  0.00  0.00    +0.000 C 
ATOM      5  N   UNL     1      -0.935  11.430  21.860  0.00  0.00    +0.000 NA
ATOM      6  S   UNL     1       0.035  10.023  21.827  0.00  0.00    +0.000 S 
ATOM      7  O   UNL     1      -0.809   8.894  21.521  0.00  0.00    +0.000 OA
ATOM      8  O   UNL     1       0.845  10.055  23.025  0.00  0.00    +0.000 OA
ENDROOT
BRANCH   1   9
ATOM      9  C   UNL     1       0.557   9.946  19.191  0.00  0.00    +0.000 C 
BRANCH   9  11
ATOM     10  N   UNL     1       1.948   7.943  18.912  0.00  0.00    +0.000 N 
ATOM     11  C   UNL     1       1.570   9.165  18.361  0.00  0.00    +0.000 C 
ATOM     12  O   UNL     1       2.001   9.638  17.313  0.00  0.00    +0.000 OA
ATOM     13  H   UNL     1       1.741   7.809  19.896  0.00  0.00    +0.000 HD
BRANCH  10  17
ATOM     14  C   UNL     1       4.397   4.994  17.076  0.00  0.00    +0.000 A 
ATOM     15  C   UNL     1       4.799   6.327  17.103  0.00  0.00    +0.000 A 
ATOM     16  C   UNL     1       3.992   7.300  17.696  0.00  0.00    +0.000 A 
ATOM     17  C   UNL     1       2.760   6.975  18.267  0.00  0.00    +0.000 A 
ATOM     18  C   UNL     1       2.314   5.653  18.175  0.00  0.00    +0.000 A 
ATOM     19  C   UNL     1       3.132   4.667  17.589  0.00  0.00    +0.000 A 
ATOM     20 CL   UNL     1       2.551   3.038  17.556  0.00  0.00    +0.000 Cl
BRANCH  14  22
ATOM     21  C   UNL     1       5.639   4.235  15.213  0.00  0.00    +0.000 C 
ATOM     22  O   UNL     1       5.167   3.994  16.539  0.00  0.00    +0.000 OA
ENDBRANCH  14  22
ENDBRANCH  10  17
ENDBRANCH   9  11
ENDBRANCH   1   9
BRANCH   5  23
ATOM     23  C   UNL     1      -1.763  11.425  23.129  0.00  0.00    +0.000 C 
BRANCH  23  24
ATOM     24  C   UNL     1      -3.076  12.180  23.041  0.00  0.00    +0.000 A 
ATOM     25  C   UNL     1      -3.593  12.561  21.794  0.00  0.00    +0.000 A 
ATOM     26  C   UNL     1      -4.788  13.280  21.713  0.00  0.00    +0.000 A 
ATOM     27  C   UNL     1      -5.477  13.619  22.875  0.00  0.00    +0.000 A 
ATOM     28 CL   UNL     1      -6.930  14.534  22.774  0.00  0.00    +0.000 Cl
ATOM     29  C   UNL     1      -4.991  13.227  24.121  0.00  0.00    +0.000 A 
ATOM     30  C   UNL     1      -3.798  12.507  24.203  0.00  0.00    +0.000 A 
ENDBRANCH  23  24
ENDBRANCH   5  23
TORSDOF 6
ENDMDL
MODEL 7
REMARK VINA RESULT:      -7.3      3.017      3.705
REMARK  Name = 
REMARK  7 active torsions:
REMARK  status: ('A' for Active; 'I' for Inactive)
REMARK    1  A    between atoms: C_1  and  O_2
REMARK    2  A    between atoms: O_2  and  C_3
REMARK    3  A    between atoms: C_6  and  N_7
REMARK    4  A    between atoms: C_8  and  C_10
REMARK    5  A    between atoms: C_10  and  N_11
REMARK    6  A    between atoms: N_15  and  C_16
REMARK    7  A    between atoms: C_16  and  C_17
REMARK                            x       y       z     vdW  Elec       q    Type
REMARK                         _______ _______ _______ _____ _____    ______ ____
ROOT
ATOM      1  N   UNL     1       2.607   5.314  19.624  0.00  0.00    +0.000 NA
ATOM      2  C   UNL     1       1.419   4.506  19.271  0.00  0.00    +0.000 C 
ATOM      3  C   UNL     1       1.318   4.350  17.766  0.00  0.00    +0.000 C 
ATOM      4  C   UNL     1       2.494   3.550  17.233  0.00  0.00    +0.000 C 
ATOM      5  N   UNL     1       3.807   4.179  17.556  0.00  0.00    +0.000 NA
ATOM      6  S   UNL     1       4.062   4.576  19.199  0.00  0.00    +0.000 S 
ATOM      7  O   UNL     1       5.133   5.540  19.275  0.00  0.00    +0.000 OA
ATOM      8  O   UNL     1       4.125   3.323  19.919  0.00  0.00    +0.000 OA
ENDROOT
BRANCH   1   9
ATOM      9  C   UNL     1       2.506   6.764  19.338  0.00  0.00    +0.000 C 
BRANCH   9  11
ATOM     10  N   UNL     1       1.298   8.796  20.002  0.00  0.00    +0.000 N 
ATOM     11  C   UNL     1       1.727   7.532  20.401  0.00  0.00    +0.000 C 
ATOM     12  O   UNL     1       1.549   7.035  21.509  0.00  0.00    +0.000 OA
ATOM     13  H   UNL     1       1.751   9.187  19.184  0.00  0.00    +0.000 HD
BRANCH  10  17
ATOM     14  C   UNL     1      -1.210  11.407  22.228  0.00  0.00    +0.000 A 
ATOM     15  C   UNL     1      -0.489  10.404  22.872  0.00  0.00    +0.000 A 
ATOM     16  C   UNL     1       0.329   9.538  22.142  0.00  0.00    +0.000 A 
ATOM     17  C   UNL     1       0.440   9.639  20.754  0.00  0.00    +0.000 A 
ATOM     18  C   UNL     1      -0.342  10.591  20.092  0.00  0.00    +0.000 A 
ATOM     19  C   UNL     1      -1.156  11.474  20.827  0.00  0.00    +0.000 A 
ATOM     20 CL   UNL     1      -2.056  12.670  19.958  0.00  0.00    +0.000 Cl
BRANCH  14  22
ATOM     21  C   UNL     1      -1.338  13.500  23.319  0.00  0.00    +0.000 C 
ATOM     22  O   UNL     1      -1.999  12.306  22.900  0.00  0.00    +0.000 OA
ENDBRANCH  14  22
ENDBRANCH  10  17
ENDBRANCH   9  11
ENDBRANCH   1   9
BRANCH   5  23
ATOM     23  C   UNL     1       4.939   3.288  17.086  0.00  0.00    +0.000 C 
BRANCH  23  24
ATOM     24  C   UNL     1       5.771   3.852  15.950  0.00  0.00    +0.000 A 
ATOM     25  C   UNL     1       6.869   4.681  16.220  0.00  0.00    +0.000 A 
ATOM     26  C   UNL     1       7.620   5.224  15.174  0.00  0.00    +0.000 A 
ATOM     27  C   UNL     1       7.283   4.939  13.853  0.00  0.00    +0.000 A 
ATOM     28 CL   UNL     1       8.187   5.636  12.567  0.00  0.00    +0.000 Cl
ATOM     29  C   UNL     1       6.210   4.096  13.567  0.00  0.00    +0.000 A 
ATOM     30  C   UNL     1       5.460   3.552  14.612  0.00  0.00    +0.000 A 
ENDBRANCH  23  24
ENDBRANCH   5  23
TORSDOF 6
ENDMDL
MODEL 8
REMARK VINA RESULT:      -7.3      5.238      9.939
REMARK  Name = 
REMARK  7 active torsions:
REMARK  status: ('A' for Active; 'I' for Inactive)
REMARK    1  A    between atoms: C_1  and  O_2
REMARK    2  A    between atoms: O_2  and  C_3
REMARK    3  A    between atoms: C_6  and  N_7
REMARK    4  A    between atoms: C_8  and  C_10
REMARK    5  A    between atoms: C_10  and  N_11
REMARK    6  A    between atoms: N_15  and  C_16
REMARK    7  A    between atoms: C_16  and  C_17
REMARK                            x       y       z     vdW  Elec       q    Type
REMARK                         _______ _______ _______ _____ _____    ______ ____
ROOT
ATOM      1  N   UNL     1       0.928  11.124  19.508  0.00  0.00    +0.000 NA
ATOM      2  C   UNL     1       0.356  12.123  18.578  0.00  0.00    +0.000 C 
ATOM      3  C   UNL     1      -1.125  12.303  18.849  0.00  0.00    +0.000 C 
ATOM      4  C   UNL     1      -1.346  12.898  20.229  0.00  0.00    +0.000 C 
ATOM      5  N   UNL     1      -0.766  12.055  21.314  0.00  0.00    +0.000 NA
ATOM      6  S   UNL     1       0.872  11.610  21.121  0.00  0.00    +0.000 S 
ATOM      7  O   UNL     1       1.142  10.479  21.975  0.00  0.00    +0.000 OA
ATOM      8  O   UNL     1       1.644  12.829  21.220  0.00  0.00    +0.000 OA
ENDROOT
BRANCH   1   9
ATOM      9  C   UNL     1       0.563   9.714  19.240  0.00  0.00    +0.000 C 
BRANCH   9  11
ATOM     10  N   UNL     1       1.981   7.739  18.898  0.00  0.00    +0.000 N 
ATOM     11  C   UNL     1       1.593   8.977  18.391  0.00  0.00    +0.000 C 
ATOM     12  O   UNL     1       2.029   9.496  17.367  0.00  0.00    +0.000 OA
ATOM     13  H   UNL     1       1.766   7.566  19.874  0.00  0.00    +0.000 HD
BRANCH  10  17
ATOM     14  C   UNL     1       4.486   4.895  16.976  0.00  0.00    +0.000 A 
ATOM     15  C   UNL     1       4.859   6.236  17.037  0.00  0.00    +0.000 A 
ATOM     16  C   UNL     1       4.033   7.175  17.659  0.00  0.00    +0.000 A 
ATOM     17  C   UNL     1       2.812   6.807  18.225  0.00  0.00    +0.000 A 
ATOM     18  C   UNL     1       2.394   5.478  18.099  0.00  0.00    +0.000 A 
ATOM     19  C   UNL     1       3.231   4.527  17.485  0.00  0.00    +0.000 A 
ATOM     20 CL   UNL     1       2.686   2.887  17.410  0.00  0.00    +0.000 Cl
BRANCH  14  22
ATOM     21  C   UNL     1       6.194   4.393  15.421  0.00  0.00    +0.000 C 
ATOM     22  O   UNL     1       5.276   3.927  16.410  0.00  0.00    +0.000 OA
ENDBRANCH  14  22
ENDBRANCH  10  17
ENDBRANCH   9  11
ENDBRANCH   1   9
BRANCH   5  23
ATOM     23  C   UNL     1      -0.931  12.746  22.653  0.00  0.00    +0.000 C 
BRANCH  23  24
ATOM     24  C   UNL     1      -2.318  13.300  22.923  0.00  0.00    +0.000 A 
ATOM     25  C   UNL     1      -2.563  14.677  22.824  0.00  0.00    +0.000 A 
ATOM     26  C   UNL     1      -3.832  15.192  23.099  0.00  0.00    +0.000 A 
ATOM     27  C   UNL     1      -4.866  14.334  23.468  0.00  0.00    +0.000 A 
ATOM     28 CL   UNL     1      -6.419  14.974  23.840  0.00  0.00    +0.000 Cl
ATOM     29  C   UNL     1      -4.647  12.961  23.548  0.00  0.00    +0.000 A 
ATOM     30  C   UNL     1      -3.379  12.445  23.271  0.00  0.00    +0.000 A 
ENDBRANCH  23  24
ENDBRANCH   5  23
TORSDOF 6
ENDMDL
MODEL 9
REMARK VINA RESULT:      -7.2      4.931      9.757
REMARK  Name = 
REMARK  7 active torsions:
REMARK  status: ('A' for Active; 'I' for Inactive)
REMARK    1  A    between atoms: C_1  and  O_2
REMARK    2  A    between atoms: O_2  and  C_3
REMARK    3  A    between atoms: C_6  and  N_7
REMARK    4  A    between atoms: C_8  and  C_10
REMARK    5  A    between atoms: C_10  and  N_11
REMARK    6  A    between atoms: N_15  and  C_16
REMARK    7  A    between atoms: C_16  and  C_17
REMARK                            x       y       z     vdW  Elec       q    Type
REMARK                         _______ _______ _______ _____ _____    ______ ____
ROOT
ATOM      1  N   UNL     1       0.831  10.335  19.675  0.00  0.00    +0.000 NA
ATOM      2  C   UNL     1       0.252  10.104  18.333  0.00  0.00    +0.000 C 
ATOM      3  C   UNL     1      -1.256   9.979  18.428  0.00  0.00    +0.000 C 
ATOM      4  C   UNL     1      -1.872  11.289  18.888  0.00  0.00    +0.000 C 
ATOM      5  N   UNL     1      -1.351  11.731  20.214  0.00  0.00    +0.000 NA
ATOM      6  S   UNL     1       0.350  11.796  20.365  0.00  0.00    +0.000 S 
ATOM      7  O   UNL     1       0.684  11.801  21.768  0.00  0.00    +0.000 OA
ATOM      8  O   UNL     1       0.802  12.847  19.479  0.00  0.00    +0.000 OA
ENDROOT
BRANCH   1   9
ATOM      9  C   UNL     1       0.843   9.161  20.580  0.00  0.00    +0.000 C 
BRANCH   9  11
ATOM     10  N   UNL     1       1.643   6.855  20.841  0.00  0.00    +0.000 N 
ATOM     11  C   UNL     1       1.645   7.987  20.030  0.00  0.00    +0.000 C 
ATOM     12  O   UNL     1       2.246   8.099  18.965  0.00  0.00    +0.000 OA
ATOM     13  H   UNL     1       1.355   6.992  21.804  0.00  0.00    +0.000 HD
BRANCH  10  17
ATOM     14  C   UNL     1       3.279   3.112  19.668  0.00  0.00    +0.000 A 
ATOM     15  C   UNL     1       2.045   3.171  20.313  0.00  0.00    +0.000 A 
ATOM     16  C   UNL     1       1.510   4.399  20.709  0.00  0.00    +0.000 A 
ATOM     17  C   UNL     1       2.192   5.596  20.485  0.00  0.00    +0.000 A 
ATOM     18  C   UNL     1       3.465   5.538  19.909  0.00  0.00    +0.000 A 
ATOM     19  C   UNL     1       4.001   4.303  19.497  0.00  0.00    +0.000 A 
ATOM     20 CL   UNL     1       5.556   4.300  18.738  0.00  0.00    +0.000 Cl
BRANCH  14  22
ATOM     21  C   UNL     1       3.472   1.556  17.899  0.00  0.00    +0.000 C 
ATOM     22  O   UNL     1       3.833   1.937  19.227  0.00  0.00    +0.000 OA
ENDBRANCH  14  22
ENDBRANCH  10  17
ENDBRANCH   9  11
ENDBRANCH   1   9
BRANCH   5  23
ATOM     23  C   UNL     1      -1.926  13.087  20.571  0.00  0.00    +0.000 C 
BRANCH  23  24
ATOM     24  C   UNL     1      -3.140  13.049  21.480  0.00  0.00    +0.000 A 
ATOM     25  C   UNL     1      -4.408  13.380  20.982  0.00  0.00    +0.000 A 
ATOM     26  C   UNL     1      -5.524  13.373  21.824  0.00  0.00    +0.000 A 
ATOM     27  C   UNL     1      -5.381  13.029  23.166  0.00  0.00    +0.000 A 
ATOM     28 CL   UNL     1      -6.749  13.054  24.208  0.00  0.00    +0.000 Cl
ATOM     29  C   UNL     1      -4.132  12.674  23.672  0.00  0.00    +0.000 A 
ATOM     30  C   UNL     1      -3.017  12.679  22.831  0.00  0.00    +0.000 A 
ENDBRANCH  23  24
ENDBRANCH   5  23
TORSDOF 6
ENDMDL
