MODEL 1
REMARK VINA RESULT:      -7.1      0.000      0.000
REMARK  Name = 
REMARK  6 active torsions:
REMARK  status: ('A' for Active; 'I' for Inactive)
REMARK    1  A    between atoms: C_1  and  C_2
REMARK    2  A    between atoms: C_5  and  C_6
REMARK    3  A    between atoms: N_8  and  C_9
REMARK    4  A    between atoms: N_8  and  C_12
REMARK    5  A    between atoms: C_9  and  C_10
REMARK    6  A    between atoms: C_10  and  N_11
REMARK                            x       y       z     vdW  Elec       q    Type
REMARK                         _______ _______ _______ _____ _____    ______ ____
ROOT
ATOM      1  C   UNL     1       2.930   4.833  19.818  0.00  0.00    +0.000 C 
ATOM      2  O   UNL     1       2.397   4.458  20.861  0.00  0.00    +0.000 OA
ATOM      3  N   UNL     1       3.812   3.944  19.202  0.00  0.00    +0.000 N 
ENDROOT
BRANCH   1   8
ATOM      4  C   UNL     1       1.342  10.352  18.475  0.00  0.00    +0.000 C 
ATOM      5  C   UNL     1       1.753   8.950  18.828  0.00  0.00    +0.000 A 
ATOM      6  C   UNL     1       1.512   8.398  20.090  0.00  0.00    +0.000 A 
ATOM      7  C   UNL     1       1.901   7.078  20.372  0.00  0.00    +0.000 A 
ATOM      8  C   UNL     1       2.564   6.267  19.411  0.00  0.00    +0.000 A 
ATOM      9  C   UNL     1       2.795   6.871  18.154  0.00  0.00    +0.000 A 
ATOM     10  C   UNL     1       2.389   8.174  17.867  0.00  0.00    +0.000 A 
ENDBRANCH   1   8
BRANCH   3  11
ATOM     11  C   UNL     1       4.645   4.251  18.077  0.00  0.00    +0.000 A 
ATOM     12  C   UNL     1       5.988   4.636  18.281  0.00  0.00    +0.000 A 
ATOM     13  C   UNL     1       6.837   4.868  17.196  0.00  0.00    +0.000 A 
ATOM     14  C   UNL     1       6.361   4.720  15.892  0.00  0.00    +0.000 A 
ATOM     15 CL   UNL     1       7.420   5.021  14.528  0.00  0.00    +0.000 Cl
ATOM     16  C   UNL     1       5.041   4.313  15.677  0.00  0.00    +0.000 A 
ATOM     17  C   UNL     1       4.201   4.057  16.762  0.00  0.00    +0.000 A 
ENDBRANCH   3  11
BRANCH   3  18
ATOM     18  C   UNL     1       4.114   2.654  19.855  0.00  0.00    +0.000 C 
BRANCH  18  19
ATOM     19  C   UNL     1       3.677   1.447  19.008  0.00  0.00    +0.000 C 
BRANCH  19  20
ATOM     20  N   UNL     1       2.270   1.536  18.624  0.00  0.00    +0.000 NA
ATOM     21  H   UNL     1       1.799   0.639  18.877  0.00  0.00    +0.000 HD
ATOM     22  H   UNL     1       2.208   1.609  17.584  0.00  0.00    +0.000 HD
ENDBRANCH  19  20
ENDBRANCH  18  19
ENDBRANCH   3  18
TORSDOF 5
ENDMDL
MODEL 2
REMARK VINA RESULT:      -7.0      0.279      1.115
REMARK  Name = 
REMARK  6 active torsions:
REMARK  status: ('A' for Active; 'I' for Inactive)
REMARK    1  A    between atoms: C_1  and  C_2
REMARK    2  A    between atoms: C_5  and  C_6
REMARK    3  A    between atoms: N_8  and  C_9
REMARK    4  A    between atoms: N_8  and  C_12
REMARK    5  A    between atoms: C_9  and  C_10
REMARK    6  A    between atoms: C_10  and  N_11
REMARK                            x       y       z     vdW  Elec       q    Type
REMARK                         _______ _______ _______ _____ _____    ______ ____
ROOT
ATOM      1  C   UNL     1       3.129   4.767  19.669  0.00  0.00    +0.000 C 
ATOM      2  O   UNL     1       2.578   4.428  20.716  0.00  0.00    +0.000 OA
ATOM      3  N   UNL     1       3.998   3.847  19.082  0.00  0.00    +0.000 N 
ENDROOT
BRANCH   1   8
ATOM      4  C   UNL     1       1.642  10.273  18.166  0.00  0.00    +0.000 C 
ATOM      5  C   UNL     1       2.026   8.875  18.560  0.00  0.00    +0.000 A 
ATOM      6  C   UNL     1       1.664   8.322  19.793  0.00  0.00    +0.000 A 
ATOM      7  C   UNL     1       2.033   7.005  20.115  0.00  0.00    +0.000 A 
ATOM      8  C   UNL     1       2.794   6.198  19.225  0.00  0.00    +0.000 A 
ATOM      9  C   UNL     1       3.144   6.802  17.996  0.00  0.00    +0.000 A 
ATOM     10  C   UNL     1       2.760   8.102  17.668  0.00  0.00    +0.000 A 
ENDBRANCH   1   8
BRANCH   3  11
ATOM     11  C   UNL     1       4.847   4.111  17.958  0.00  0.00    +0.000 A 
ATOM     12  C   UNL     1       4.351   3.942  16.647  0.00  0.00    +0.000 A 
ATOM     13  C   UNL     1       5.138   4.264  15.539  0.00  0.00    +0.000 A 
ATOM     14  C   UNL     1       6.432   4.757  15.720  0.00  0.00    +0.000 A 
ATOM     15 CL   UNL     1       7.427   5.152  14.332  0.00  0.00    +0.000 Cl
ATOM     16  C   UNL     1       6.924   4.955  17.014  0.00  0.00    +0.000 A 
ATOM     17  C   UNL     1       6.127   4.657  18.120  0.00  0.00    +0.000 A 
ENDBRANCH   3  11
BRANCH   3  18
ATOM     18  C   UNL     1       4.269   2.567  19.768  0.00  0.00    +0.000 C 
BRANCH  18  19
ATOM     19  C   UNL     1       3.756   1.353  18.976  0.00  0.00    +0.000 C 
BRANCH  19  20
ATOM     20  N   UNL     1       2.358   1.514  18.582  0.00  0.00    +0.000 NA
ATOM     21  H   UNL     1       1.833   1.929  19.383  0.00  0.00    +0.000 HD
ATOM     22  H   UNL     1       1.941   0.569  18.423  0.00  0.00    +0.000 HD
ENDBRANCH  19  20
ENDBRANCH  18  19
ENDBRANCH   3  18
TORSDOF 5
ENDMDL
MODEL 3
REMARK VINA RESULT:      -7.0      3.107      5.086
REMARK  Name = 
REMARK  6 active torsions:
REMARK  status: ('A' for Active; 'I' for Inactive)
REMARK    1  A    between atoms: C_1  and  C_2
REMARK    2  A    between atoms: C_5  and  C_6
REMARK    3  A    between atoms: N_8  and  C_9
REMARK    4  A    between atoms: N_8  and  C_12
REMARK    5  A    between atoms: C_9  and  C_10
REMARK    6  A    between atoms: C_10  and  N_11
REMARK                            x       y       z     vdW  Elec       q    Type
REMARK                         _______ _______ _______ _____ _____    ______ ____
ROOT
ATOM      1  C   UNL     1       4.917   4.329  17.318  0.00  0.00    +0.000 C 
ATOM      2  O   UNL     1       5.316   3.472  16.532  0.00  0.00    +0.000 OA
ATOM      3  N   UNL     1       3.634   4.161  17.842  0.00  0.00    +0.000 N 
ENDROOT
BRANCH   1   8
ATOM      4  C   UNL     1       8.781   8.648  18.412  0.00  0.00    +0.000 C 
ATOM      5  C   UNL     1       7.806   7.540  18.132  0.00  0.00    +0.000 A 
ATOM      6  C   UNL     1       7.830   6.330  18.835  0.00  0.00    +0.000 A 
ATOM      7  C   UNL     1       6.891   5.326  18.549  0.00  0.00    +0.000 A 
ATOM      8  C   UNL     1       5.905   5.483  17.537  0.00  0.00    +0.000 A 
ATOM      9  C   UNL     1       5.925   6.717  16.847  0.00  0.00    +0.000 A 
ATOM     10  C   UNL     1       6.845   7.722  17.145  0.00  0.00    +0.000 A 
ENDBRANCH   1   8
BRANCH   3  11
ATOM     11  C   UNL     1       2.934   5.122  18.642  0.00  0.00    +0.000 A 
ATOM     12  C   UNL     1       2.479   4.765  19.931  0.00  0.00    +0.000 A 
ATOM     13  C   UNL     1       1.860   5.707  20.755  0.00  0.00    +0.000 A 
ATOM     14  C   UNL     1       1.684   7.018  20.308  0.00  0.00    +0.000 A 
ATOM     15 CL   UNL     1       0.897   8.201  21.336  0.00  0.00    +0.000 Cl
ATOM     16  C   UNL     1       2.154   7.390  19.046  0.00  0.00    +0.000 A 
ATOM     17  C   UNL     1       2.795   6.454  18.233  0.00  0.00    +0.000 A 
ENDBRANCH   3  11
BRANCH   3  18
ATOM     18  C   UNL     1       2.806   3.028  17.380  0.00  0.00    +0.000 C 
BRANCH  18  19
ATOM     19  C   UNL     1       2.846   1.834  18.348  0.00  0.00    +0.000 C 
BRANCH  19  20
ATOM     20  N   UNL     1       4.078   1.061  18.204  0.00  0.00    +0.000 NA
ATOM     21  H   UNL     1       4.027   0.235  18.841  0.00  0.00    +0.000 HD
ATOM     22  H   UNL     1       4.880   1.638  18.544  0.00  0.00    +0.000 HD
ENDBRANCH  19  20
ENDBRANCH  18  19
ENDBRANCH   3  18
TORSDOF 5
ENDMDL
MODEL 4
REMARK VINA RESULT:      -7.0      2.714      3.849
REMARK  Name = 
REMARK  6 active torsions:
REMARK  status: ('A' for Active; 'I' for Inactive)
REMARK    1  A    between atoms: C_1  and  C_2
REMARK    2  A    between atoms: C_5  and  C_6
REMARK    3  A    between atoms: N_8  and  C_9
REMARK    4  A    between atoms: N_8  and  C_12
REMARK    5  A    between atoms: C_9  and  C_10
REMARK    6  A    between atoms: C_10  and  N_11
REMARK                            x       y       z     vdW  Elec       q    Type
REMARK                         _______ _______ _______ _____ _____    ______ ____
ROOT
ATOM      1  C   UNL     1       3.999   4.514  17.278  0.00  0.00    +0.000 C 
ATOM      2  O   UNL     1       3.378   3.538  16.859  0.00  0.00    +0.000 OA
ATOM      3  N   UNL     1       5.296   4.695  16.796  0.00  0.00    +0.000 N 
ENDROOT
BRANCH   1   8
ATOM      4  C   UNL     1       1.154   7.915  21.167  0.00  0.00    +0.000 C 
ATOM      5  C   UNL     1       1.871   7.052  20.167  0.00  0.00    +0.000 A 
ATOM      6  C   UNL     1       2.318   7.549  18.937  0.00  0.00    +0.000 A 
ATOM      7  C   UNL     1       2.995   6.709  18.038  0.00  0.00    +0.000 A 
ATOM      8  C   UNL     1       3.235   5.337  18.324  0.00  0.00    +0.000 A 
ATOM      9  C   UNL     1       2.757   4.878  19.573  0.00  0.00    +0.000 A 
ATOM     10  C   UNL     1       2.102   5.717  20.475  0.00  0.00    +0.000 A 
ENDBRANCH   1   8
BRANCH   3  11
ATOM     11  C   UNL     1       6.229   5.671  17.275  0.00  0.00    +0.000 A 
ATOM     12  C   UNL     1       6.203   6.984  16.757  0.00  0.00    +0.000 A 
ATOM     13  C   UNL     1       7.054   7.968  17.263  0.00  0.00    +0.000 A 
ATOM     14  C   UNL     1       7.946   7.660  18.292  0.00  0.00    +0.000 A 
ATOM     15 CL   UNL     1       9.024   8.890  18.922  0.00  0.00    +0.000 Cl
ATOM     16  C   UNL     1       7.963   6.370  18.832  0.00  0.00    +0.000 A 
ATOM     17  C   UNL     1       7.093   5.394  18.343  0.00  0.00    +0.000 A 
ENDBRANCH   3  11
BRANCH   3  18
ATOM     18  C   UNL     1       5.877   3.688  15.883  0.00  0.00    +0.000 C 
BRANCH  18  19
ATOM     19  C   UNL     1       6.315   4.293  14.539  0.00  0.00    +0.000 C 
BRANCH  19  20
ATOM     20  N   UNL     1       6.288   3.304  13.464  0.00  0.00    +0.000 NA
ATOM     21  H   UNL     1       6.815   2.460  13.776  0.00  0.00    +0.000 HD
ATOM     22  H   UNL     1       6.811   3.684  12.643  0.00  0.00    +0.000 HD
ENDBRANCH  19  20
ENDBRANCH  18  19
ENDBRANCH   3  18
TORSDOF 5
ENDMDL
MODEL 5
REMARK VINA RESULT:      -6.9      3.113      5.136
REMARK  Name = 
REMARK  6 active torsions:
REMARK  status: ('A' for Active; 'I' for Inactive)
REMARK    1  A    between atoms: C_1  and  C_2
REMARK    2  A    between atoms: C_5  and  C_6
REMARK    3  A    between atoms: N_8  and  C_9
REMARK    4  A    between atoms: N_8  and  C_12
REMARK    5  A    between atoms: C_9  and  C_10
REMARK    6  A    between atoms: C_10  and  N_11
REMARK                            x       y       z     vdW  Elec       q    Type
REMARK                         _______ _______ _______ _____ _____    ______ ____
ROOT
ATOM      1  C   UNL     1       4.912   4.340  17.400  0.00  0.00    +0.000 C 
ATOM      2  O   UNL     1       5.311   3.496  16.599  0.00  0.00    +0.000 OA
ATOM      3  N   UNL     1       3.606   4.200  17.871  0.00  0.00    +0.000 N 
ENDROOT
BRANCH   1   8
ATOM      4  C   UNL     1       8.756   8.726  18.282  0.00  0.00    +0.000 C 
ATOM      5  C   UNL     1       7.767   7.616  18.058  0.00  0.00    +0.000 A 
ATOM      6  C   UNL     1       6.739   7.712  17.114  0.00  0.00    +0.000 A 
ATOM      7  C   UNL     1       5.845   6.645  16.930  0.00  0.00    +0.000 A 
ATOM      8  C   UNL     1       5.931   5.450  17.694  0.00  0.00    +0.000 A 
ATOM      9  C   UNL     1       6.978   5.403  18.642  0.00  0.00    +0.000 A 
ATOM     10  C   UNL     1       7.879   6.454  18.811  0.00  0.00    +0.000 A 
ENDBRANCH   1   8
BRANCH   3  11
ATOM     11  C   UNL     1       2.910   5.158  18.679  0.00  0.00    +0.000 A 
ATOM     12  C   UNL     1       2.462   4.796  19.968  0.00  0.00    +0.000 A 
ATOM     13  C   UNL     1       1.847   5.735  20.799  0.00  0.00    +0.000 A 
ATOM     14  C   UNL     1       1.669   7.048  20.359  0.00  0.00    +0.000 A 
ATOM     15 CL   UNL     1       0.888   8.227  21.396  0.00  0.00    +0.000 Cl
ATOM     16  C   UNL     1       2.133   7.425  19.096  0.00  0.00    +0.000 A 
ATOM     17  C   UNL     1       2.770   6.492  18.276  0.00  0.00    +0.000 A 
ENDBRANCH   3  11
BRANCH   3  18
ATOM     18  C   UNL     1       2.757   3.113  17.341  0.00  0.00    +0.000 C 
BRANCH  18  19
ATOM     19  C   UNL     1       2.704   1.895  18.277  0.00  0.00    +0.000 C 
BRANCH  19  20
ATOM     20  N   UNL     1       3.888   1.050  18.135  0.00  0.00    +0.000 NA
ATOM     21  H   UNL     1       4.585   1.330  18.859  0.00  0.00    +0.000 HD
ATOM     22  H   UNL     1       4.336   1.250  17.213  0.00  0.00    +0.000 HD
ENDBRANCH  19  20
ENDBRANCH  18  19
ENDBRANCH   3  18
TORSDOF 5
ENDMDL
MODEL 6
REMARK VINA RESULT:      -6.9      2.761      3.827
REMARK  Name = 
REMARK  6 active torsions:
REMARK  status: ('A' for Active; 'I' for Inactive)
REMARK    1  A    between atoms: C_1  and  C_2
REMARK    2  A    between atoms: C_5  and  C_6
REMARK    3  A    between atoms: N_8  and  C_9
REMARK    4  A    between atoms: N_8  and  C_12
REMARK    5  A    between atoms: C_9  and  C_10
REMARK    6  A    between atoms: C_10  and  N_11
REMARK                            x       y       z     vdW  Elec       q    Type
REMARK                         _______ _______ _______ _____ _____    ______ ____
ROOT
ATOM      1  C   UNL     1       4.140   4.705  17.334  0.00  0.00    +0.000 C 
ATOM      2  O   UNL     1       3.534   3.702  16.961  0.00  0.00    +0.000 OA
ATOM      3  N   UNL     1       5.451   4.860  16.879  0.00  0.00    +0.000 N 
ENDROOT
BRANCH   1   8
ATOM      4  C   UNL     1       0.991   7.878  21.181  0.00  0.00    +0.000 C 
ATOM      5  C   UNL     1       1.801   7.066  20.210  0.00  0.00    +0.000 A 
ATOM      6  C   UNL     1       2.145   5.733  20.457  0.00  0.00    +0.000 A 
ATOM      7  C   UNL     1       2.893   5.008  19.515  0.00  0.00    +0.000 A 
ATOM      8  C   UNL     1       3.343   5.593  18.300  0.00  0.00    +0.000 A 
ATOM      9  C   UNL     1       2.981   6.944  18.098  0.00  0.00    +0.000 A 
ATOM     10  C   UNL     1       2.220   7.658  19.024  0.00  0.00    +0.000 A 
ENDBRANCH   1   8
BRANCH   3  11
ATOM     11  C   UNL     1       6.367   5.869  17.321  0.00  0.00    +0.000 A 
ATOM     12  C   UNL     1       6.280   7.177  16.797  0.00  0.00    +0.000 A 
ATOM     13  C   UNL     1       7.115   8.192  17.268  0.00  0.00    +0.000 A 
ATOM     14  C   UNL     1       8.051   7.920  18.268  0.00  0.00    +0.000 A 
ATOM     15 CL   UNL     1       9.109   9.189  18.854  0.00  0.00    +0.000 Cl
ATOM     16  C   UNL     1       8.129   6.635  18.814  0.00  0.00    +0.000 A 
ATOM     17  C   UNL     1       7.276   5.628  18.360  0.00  0.00    +0.000 A 
ENDBRANCH   3  11
BRANCH   3  18
ATOM     18  C   UNL     1       6.060   3.798  16.052  0.00  0.00    +0.000 C 
BRANCH  18  19
ATOM     19  C   UNL     1       6.620   4.333  14.723  0.00  0.00    +0.000 C 
BRANCH  19  20
ATOM     20  N   UNL     1       6.223   3.498  13.592  0.00  0.00    +0.000 NA
ATOM     21  H   UNL     1       5.585   2.749  13.940  0.00  0.00    +0.000 HD
ATOM     22  H   UNL     1       7.068   3.007  13.223  0.00  0.00    +0.000 HD
ENDBRANCH  19  20
ENDBRANCH  18  19
ENDBRANCH   3  18
TORSDOF 5
ENDMDL
MODEL 7
REMARK VINA RESULT:      -6.9      1.049      1.586
REMARK  Name = 
REMARK  6 active torsions:
REMARK  status: ('A' for Active; 'I' for Inactive)
REMARK    1  A    between atoms: C_1  and  C_2
REMARK    2  A    between atoms: C_5  and  C_6
REMARK    3  A    between atoms: N_8  and  C_9
REMARK    4  A    between atoms: N_8  and  C_12
REMARK    5  A    between atoms: C_9  and  C_10
REMARK    6  A    between atoms: C_10  and  N_11
REMARK                            x       y       z     vdW  Elec       q    Type
REMARK                         _______ _______ _______ _____ _____    ______ ____
ROOT
ATOM      1  C   UNL     1       2.453   4.886  20.201  0.00  0.00    +0.000 C 
ATOM      2  O   UNL     1       1.781   4.628  21.199  0.00  0.00    +0.000 OA
ATOM      3  N   UNL     1       3.328   3.896  19.753  0.00  0.00    +0.000 N 
ENDROOT
BRANCH   1   8
ATOM      4  C   UNL     1       1.472  10.394  18.332  0.00  0.00    +0.000 C 
ATOM      5  C   UNL     1       1.729   8.995  18.818  0.00  0.00    +0.000 A 
ATOM      6  C   UNL     1       1.486   8.608  20.141  0.00  0.00    +0.000 A 
ATOM      7  C   UNL     1       1.728   7.286  20.548  0.00  0.00    +0.000 A 
ATOM      8  C   UNL     1       2.240   6.305  19.656  0.00  0.00    +0.000 A 
ATOM      9  C   UNL     1       2.479   6.744  18.333  0.00  0.00    +0.000 A 
ATOM     10  C   UNL     1       2.219   8.052  17.923  0.00  0.00    +0.000 A 
ENDBRANCH   1   8
BRANCH   3  11
ATOM     11  C   UNL     1       4.301   4.059  18.713  0.00  0.00    +0.000 A 
ATOM     12  C   UNL     1       3.990   3.670  17.392  0.00  0.00    +0.000 A 
ATOM     13  C   UNL     1       4.896   3.888  16.352  0.00  0.00    +0.000 A 
ATOM     14  C   UNL     1       6.126   4.496  16.612  0.00  0.00    +0.000 A 
ATOM     15 CL   UNL     1       7.270   4.762  15.310  0.00  0.00    +0.000 Cl
ATOM     16  C   UNL     1       6.434   4.911  17.911  0.00  0.00    +0.000 A 
ATOM     17  C   UNL     1       5.517   4.715  18.945  0.00  0.00    +0.000 A 
ENDBRANCH   3  11
BRANCH   3  18
ATOM     18  C   UNL     1       3.460   2.642  20.524  0.00  0.00    +0.000 C 
BRANCH  18  19
ATOM     19  C   UNL     1       4.737   1.862  20.168  0.00  0.00    +0.000 C 
BRANCH  19  20
ATOM     20  N   UNL     1       5.435   1.391  21.362  0.00  0.00    +0.000 NA
ATOM     21  H   UNL     1       4.939   1.758  22.204  0.00  0.00    +0.000 HD
ATOM     22  H   UNL     1       6.390   1.815  21.384  0.00  0.00    +0.000 HD
ENDBRANCH  19  20
ENDBRANCH  18  19
ENDBRANCH   3  18
TORSDOF 5
ENDMDL
MODEL 8
REMARK VINA RESULT:      -6.8      3.131      5.128
REMARK  Name = 
REMARK  6 active torsions:
REMARK  status: ('A' for Active; 'I' for Inactive)
REMARK    1  A    between atoms: C_1  and  C_2
REMARK    2  A    between atoms: C_5  and  C_6
REMARK    3  A    between atoms: N_8  and  C_9
REMARK    4  A    between atoms: N_8  and  C_12
REMARK    5  A    between atoms: C_9  and  C_10
REMARK    6  A    between atoms: C_10  and  N_11
REMARK                            x       y       z     vdW  Elec       q    Type
REMARK                         _______ _______ _______ _____ _____    ______ ____
ROOT
ATOM      1  C   UNL     1       4.918   4.347  17.379  0.00  0.00    +0.000 C 
ATOM      2  O   UNL     1       5.274   3.514  16.547  0.00  0.00    +0.000 OA
ATOM      3  N   UNL     1       3.671   4.156  17.975  0.00  0.00    +0.000 N 
ENDROOT
BRANCH   1   8
ATOM      4  C   UNL     1       8.794   8.683  18.358  0.00  0.00    +0.000 C 
ATOM      5  C   UNL     1       7.816   7.570  18.108  0.00  0.00    +0.000 A 
ATOM      6  C   UNL     1       7.823   6.388  18.858  0.00  0.00    +0.000 A 
ATOM      7  C   UNL     1       6.881   5.379  18.598  0.00  0.00    +0.000 A 
ATOM      8  C   UNL     1       5.910   5.503  17.567  0.00  0.00    +0.000 A 
ATOM      9  C   UNL     1       5.948   6.709  16.830  0.00  0.00    +0.000 A 
ATOM     10  C   UNL     1       6.870   7.720  17.102  0.00  0.00    +0.000 A 
ENDBRANCH   1   8
BRANCH   3  11
ATOM     11  C   UNL     1       3.015   5.090  18.842  0.00  0.00    +0.000 A 
ATOM     12  C   UNL     1       2.877   6.438  18.446  0.00  0.00    +0.000 A 
ATOM     13  C   UNL     1       2.177   7.347  19.242  0.00  0.00    +0.000 A 
ATOM     14  C   UNL     1       1.605   6.928  20.445  0.00  0.00    +0.000 A 
ATOM     15 CL   UNL     1       0.735   8.069  21.453  0.00  0.00    +0.000 Cl
ATOM     16  C   UNL     1       1.712   5.589  20.834  0.00  0.00    +0.000 A 
ATOM     17  C   UNL     1       2.389   4.676  20.025  0.00  0.00    +0.000 A 
ENDBRANCH   3  11
BRANCH   3  18
ATOM     18  C   UNL     1       2.823   3.028  17.535  0.00  0.00    +0.000 C 
BRANCH  18  19
ATOM     19  C   UNL     1       2.936   1.808  18.464  0.00  0.00    +0.000 C 
BRANCH  19  20
ATOM     20  N   UNL     1       4.167   1.058  18.228  0.00  0.00    +0.000 NA
ATOM     21  H   UNL     1       4.648   1.464  17.396  0.00  0.00    +0.000 HD
ATOM     22  H   UNL     1       3.920   0.077  17.967  0.00  0.00    +0.000 HD
ENDBRANCH  19  20
ENDBRANCH  18  19
ENDBRANCH   3  18
TORSDOF 5
ENDMDL
MODEL 9
REMARK VINA RESULT:      -6.8      3.188      5.208
REMARK  Name = 
REMARK  6 active torsions:
REMARK  status: ('A' for Active; 'I' for Inactive)
REMARK    1  A    between atoms: C_1  and  C_2
REMARK    2  A    between atoms: C_5  and  C_6
REMARK    3  A    between atoms: N_8  and  C_9
REMARK    4  A    between atoms: N_8  and  C_12
REMARK    5  A    between atoms: C_9  and  C_10
REMARK    6  A    between atoms: C_10  and  N_11
REMARK                            x       y       z     vdW  Elec       q    Type
REMARK                         _______ _______ _______ _____ _____    ______ ____
ROOT
ATOM      1  C   UNL     1       4.966   4.549  17.415  0.00  0.00    +0.000 C 
ATOM      2  O   UNL     1       5.333   3.739  16.565  0.00  0.00    +0.000 OA
ATOM      3  N   UNL     1       3.679   4.389  17.929  0.00  0.00    +0.000 N 
ENDROOT
BRANCH   1   8
ATOM      4  C   UNL     1       8.851   8.892  18.329  0.00  0.00    +0.000 C 
ATOM      5  C   UNL     1       7.852   7.793  18.097  0.00  0.00    +0.000 A 
ATOM      6  C   UNL     1       6.806   7.918  17.176  0.00  0.00    +0.000 A 
ATOM      7  C   UNL     1       5.902   6.861  16.983  0.00  0.00    +0.000 A 
ATOM      8  C   UNL     1       5.997   5.646  17.716  0.00  0.00    +0.000 A 
ATOM      9  C   UNL     1       7.062   5.570  18.642  0.00  0.00    +0.000 A 
ATOM     10  C   UNL     1       7.973   6.612  18.819  0.00  0.00    +0.000 A 
ENDBRANCH   1   8
BRANCH   3  11
ATOM     11  C   UNL     1       3.015   5.312  18.802  0.00  0.00    +0.000 A 
ATOM     12  C   UNL     1       2.826   6.651  18.396  0.00  0.00    +0.000 A 
ATOM     13  C   UNL     1       2.118   7.547  19.201  0.00  0.00    +0.000 A 
ATOM     14  C   UNL     1       1.589   7.123  20.421  0.00  0.00    +0.000 A 
ATOM     15 CL   UNL     1       0.708   8.247  21.439  0.00  0.00    +0.000 Cl
ATOM     16  C   UNL     1       1.746   5.793  20.821  0.00  0.00    +0.000 A 
ATOM     17  C   UNL     1       2.432   4.892  20.004  0.00  0.00    +0.000 A 
ENDBRANCH   3  11
BRANCH   3  18
ATOM     18  C   UNL     1       2.809   3.325  17.386  0.00  0.00    +0.000 C 
BRANCH  18  19
ATOM     19  C   UNL     1       2.821   2.054  18.252  0.00  0.00    +0.000 C 
BRANCH  19  20
ATOM     20  N   UNL     1       4.096   1.347  18.158  0.00  0.00    +0.000 NA
ATOM     21  H   UNL     1       4.687   1.822  17.442  0.00  0.00    +0.000 HD
ATOM     22  H   UNL     1       3.921   0.384  17.793  0.00  0.00    +0.000 HD
ENDBRANCH  19  20
ENDBRANCH  18  19
ENDBRANCH   3  18
TORSDOF 5
ENDMDL
