MODEL 1
REMARK VINA RESULT:      -7.0      0.000      0.000
REMARK  Name = 
REMARK  7 active torsions:
REMARK  status: ('A' for Active; 'I' for Inactive)
REMARK    1  A    between atoms: C_1  and  C_2
REMARK    2  A    between atoms: C_4  and  C_5
REMARK    3  A    between atoms: C_4  and  C_6
REMARK    4  A    between atoms: C_8  and  C_9
REMARK    5  A    between atoms: C_8  and  N_11
REMARK    6  A    between atoms: C_9  and  O_10
REMARK    7  A    between atoms: C_12  and  C_14
REMARK                            x       y       z     vdW  Elec       q    Type
REMARK                         _______ _______ _______ _____ _____    ______ ____
ROOT
ATOM      1  C   UNL     1       0.662   1.827  19.291  0.00  0.00    +0.000 C 
ATOM      2  C   UNL     1       0.906   3.145  18.556  0.00  0.00    +0.000 C 
ATOM      3  C   UNL     1       0.900   4.382  19.465  0.00  0.00    +0.000 C 
ATOM      4  C   UNL     1       2.233   4.748  20.146  0.00  0.00    +0.000 C 
ATOM      5  C   UNL     1       2.498   3.895  21.397  0.00  0.00    +0.000 C 
ATOM      6  C   UNL     1       2.129   6.209  20.658  0.00  0.00    +0.000 C 
ATOM      7  C   UNL     1       3.397   4.694  19.131  0.00  0.00    +0.000 C 
ATOM      8  C   UNL     1       3.508   3.456  18.203  0.00  0.00    +0.000 C 
ATOM      9  C   UNL     1       2.114   3.119  17.607  0.00  0.00    +0.000 C 
ENDROOT
BRANCH   8  10
ATOM     10  N   UNL     1       4.385   3.816  17.049  0.00  0.00    +0.000 N 
ATOM     11  C   UNL     1       5.621   4.418  17.151  0.00  0.00    +0.000 C 
ATOM     12  O   UNL     1       6.128   4.767  18.210  0.00  0.00    +0.000 OA
ATOM     13  H   UNL     1       4.146   3.445  16.135  0.00  0.00    +0.000 HD
BRANCH  11  14
ATOM     14  C   UNL     1       6.293   4.628  15.872  0.00  0.00    +0.000 A 
ATOM     15  C   UNL     1       5.931   3.989  14.696  0.00  0.00    +0.000 A 
ATOM     16  S   UNL     1       7.004   4.521  13.471  0.00  0.00    +0.000 S 
ATOM     17  N   UNL     1       7.850   5.521  14.511  0.00  0.00    +0.000 NA
ATOM     18  N   UNL     1       7.382   5.493  15.748  0.00  0.00    +0.000 NA
ENDBRANCH  11  14
ENDBRANCH   8  10
BRANCH   8  19
ATOM     19  C   UNL     1       4.132   2.230  18.924  0.00  0.00    +0.000 C 
BRANCH  19  20
ATOM     20  O   UNL     1       5.202   2.635  19.782  0.00  0.00    +0.000 OA
ATOM     21  H   UNL     1       5.173   2.055  20.563  0.00  0.00    +0.000 HD
ENDBRANCH  19  20
ENDBRANCH   8  19
TORSDOF 4
ENDMDL
MODEL 2
REMARK VINA RESULT:      -6.7      4.534      5.918
REMARK  Name = 
REMARK  7 active torsions:
REMARK  status: ('A' for Active; 'I' for Inactive)
REMARK    1  A    between atoms: C_1  and  C_2
REMARK    2  A    between atoms: C_4  and  C_5
REMARK    3  A    between atoms: C_4  and  C_6
REMARK    4  A    between atoms: C_8  and  C_9
REMARK    5  A    between atoms: C_8  and  N_11
REMARK    6  A    between atoms: C_9  and  O_10
REMARK    7  A    between atoms: C_12  and  C_14
REMARK                            x       y       z     vdW  Elec       q    Type
REMARK                         _______ _______ _______ _____ _____    ______ ____
ROOT
ATOM      1  C   UNL     1       2.832   3.365  17.156  0.00  0.00    +0.000 C 
ATOM      2  C   UNL     1       1.673   3.856  18.024  0.00  0.00    +0.000 C 
ATOM      3  C   UNL     1       1.371   2.959  19.232  0.00  0.00    +0.000 C 
ATOM      4  C   UNL     1       2.181   3.229  20.515  0.00  0.00    +0.000 C 
ATOM      5  C   UNL     1       3.580   2.594  20.461  0.00  0.00    +0.000 C 
ATOM      6  C   UNL     1       1.459   2.533  21.699  0.00  0.00    +0.000 C 
ATOM      7  C   UNL     1       2.225   4.743  20.824  0.00  0.00    +0.000 C 
ATOM      8  C   UNL     1       2.570   5.720  19.670  0.00  0.00    +0.000 C 
ATOM      9  C   UNL     1       1.758   5.342  18.401  0.00  0.00    +0.000 C 
ENDROOT
BRANCH   8  10
ATOM     10  N   UNL     1       2.121   7.088  20.068  0.00  0.00    +0.000 N 
ATOM     11  C   UNL     1       1.849   8.118  19.194  0.00  0.00    +0.000 C 
ATOM     12  O   UNL     1       1.987   8.040  17.980  0.00  0.00    +0.000 OA
ATOM     13  H   UNL     1       1.828   7.232  21.029  0.00  0.00    +0.000 HD
BRANCH  11  14
ATOM     14  C   UNL     1       1.389   9.345  19.837  0.00  0.00    +0.000 A 
ATOM     15  C   UNL     1       1.134  10.525  19.154  0.00  0.00    +0.000 A 
ATOM     16  S   UNL     1       0.645  11.692  20.310  0.00  0.00    +0.000 S 
ATOM     17  N   UNL     1       0.788  10.625  21.590  0.00  0.00    +0.000 NA
ATOM     18  N   UNL     1       1.187   9.421  21.216  0.00  0.00    +0.000 NA
ENDBRANCH  11  14
ENDBRANCH   8  10
BRANCH   8  19
ATOM     19  C   UNL     1       4.095   5.775  19.376  0.00  0.00    +0.000 C 
BRANCH  19  20
ATOM     20  O   UNL     1       4.340   6.283  18.061  0.00  0.00    +0.000 OA
ATOM     21  H   UNL     1       5.305   6.363  17.965  0.00  0.00    +0.000 HD
ENDBRANCH  19  20
ENDBRANCH   8  19
TORSDOF 4
ENDMDL
MODEL 3
REMARK VINA RESULT:      -6.6      1.751      2.160
REMARK  Name = 
REMARK  7 active torsions:
REMARK  status: ('A' for Active; 'I' for Inactive)
REMARK    1  A    between atoms: C_1  and  C_2
REMARK    2  A    between atoms: C_4  and  C_5
REMARK    3  A    between atoms: C_4  and  C_6
REMARK    4  A    between atoms: C_8  and  C_9
REMARK    5  A    between atoms: C_8  and  N_11
REMARK    6  A    between atoms: C_9  and  O_10
REMARK    7  A    between atoms: C_12  and  C_14
REMARK                            x       y       z     vdW  Elec       q    Type
REMARK                         _______ _______ _______ _____ _____    ______ ____
ROOT
ATOM      1  C   UNL     1       2.278   3.376  19.333  0.00  0.00    +0.000 C 
ATOM      2  C   UNL     1       2.139   4.123  18.007  0.00  0.00    +0.000 C 
ATOM      3  C   UNL     1       1.510   5.518  18.134  0.00  0.00    +0.000 C 
ATOM      4  C   UNL     1       2.467   6.682  18.458  0.00  0.00    +0.000 C 
ATOM      5  C   UNL     1       2.805   6.755  19.956  0.00  0.00    +0.000 C 
ATOM      6  C   UNL     1       1.737   8.013  18.135  0.00  0.00    +0.000 C 
ATOM      7  C   UNL     1       3.727   6.616  17.566  0.00  0.00    +0.000 C 
ATOM      8  C   UNL     1       4.454   5.254  17.418  0.00  0.00    +0.000 C 
ATOM      9  C   UNL     1       3.416   4.129  17.154  0.00  0.00    +0.000 C 
ENDROOT
BRANCH   8  10
ATOM     10  N   UNL     1       5.324   5.320  16.205  0.00  0.00    +0.000 N 
ATOM     11  C   UNL     1       5.865   4.230  15.558  0.00  0.00    +0.000 C 
ATOM     12  O   UNL     1       5.726   3.073  15.933  0.00  0.00    +0.000 OA
ATOM     13  H   UNL     1       5.390   6.206  15.713  0.00  0.00    +0.000 HD
BRANCH  11  14
ATOM     14  C   UNL     1       6.648   4.564  14.372  0.00  0.00    +0.000 A 
ATOM     15  C   UNL     1       6.454   3.979  13.129  0.00  0.00    +0.000 A 
ATOM     16  S   UNL     1       7.607   4.655  12.057  0.00  0.00    +0.000 S 
ATOM     17  N   UNL     1       8.269   5.639  13.236  0.00  0.00    +0.000 NA
ATOM     18  N   UNL     1       7.680   5.503  14.413  0.00  0.00    +0.000 NA
ENDBRANCH  11  14
ENDBRANCH   8  10
BRANCH   8  19
ATOM     19  C   UNL     1       5.353   4.926  18.642  0.00  0.00    +0.000 C 
BRANCH  19  20
ATOM     20  O   UNL     1       5.586   3.518  18.737  0.00  0.00    +0.000 OA
ATOM     21  H   UNL     1       4.717   3.084  18.680  0.00  0.00    +0.000 HD
ENDBRANCH  19  20
ENDBRANCH   8  19
TORSDOF 4
ENDMDL
MODEL 4
REMARK VINA RESULT:      -6.5      1.164      1.286
REMARK  Name = 
REMARK  7 active torsions:
REMARK  status: ('A' for Active; 'I' for Inactive)
REMARK    1  A    between atoms: C_1  and  C_2
REMARK    2  A    between atoms: C_4  and  C_5
REMARK    3  A    between atoms: C_4  and  C_6
REMARK    4  A    between atoms: C_8  and  C_9
REMARK    5  A    between atoms: C_8  and  N_11
REMARK    6  A    between atoms: C_9  and  O_10
REMARK    7  A    between atoms: C_12  and  C_14
REMARK                            x       y       z     vdW  Elec       q    Type
REMARK                         _______ _______ _______ _____ _____    ______ ____
ROOT
ATOM      1  C   UNL     1       1.401   2.528  19.219  0.00  0.00    +0.000 C 
ATOM      2  C   UNL     1       1.439   3.561  18.093  0.00  0.00    +0.000 C 
ATOM      3  C   UNL     1       1.246   5.009  18.562  0.00  0.00    +0.000 C 
ATOM      4  C   UNL     1       2.510   5.763  19.021  0.00  0.00    +0.000 C 
ATOM      5  C   UNL     1       2.907   5.404  20.463  0.00  0.00    +0.000 C 
ATOM      6  C   UNL     1       2.186   7.280  19.049  0.00  0.00    +0.000 C 
ATOM      7  C   UNL     1       3.665   5.553  18.016  0.00  0.00    +0.000 C 
ATOM      8  C   UNL     1       3.961   4.113  17.524  0.00  0.00    +0.000 C 
ATOM      9  C   UNL     1       2.633   3.405  17.139  0.00  0.00    +0.000 C 
ENDROOT
BRANCH   8  10
ATOM     10  N   UNL     1       4.769   4.205  16.271  0.00  0.00    +0.000 N 
ATOM     11  C   UNL     1       5.988   4.838  16.160  0.00  0.00    +0.000 C 
ATOM     12  O   UNL     1       6.534   5.439  17.076  0.00  0.00    +0.000 OA
ATOM     13  H   UNL     1       4.497   3.623  15.485  0.00  0.00    +0.000 HD
BRANCH  11  14
ATOM     14  C   UNL     1       6.590   4.752  14.833  0.00  0.00    +0.000 A 
ATOM     15  C   UNL     1       6.134   3.906  13.832  0.00  0.00    +0.000 A 
ATOM     16  S   UNL     1       7.152   4.126  12.471  0.00  0.00    +0.000 S 
ATOM     17  N   UNL     1       8.096   5.273  13.240  0.00  0.00    +0.000 NA
ATOM     18  N   UNL     1       7.702   5.519  14.479  0.00  0.00    +0.000 NA
ENDBRANCH  11  14
ENDBRANCH   8  10
BRANCH   8  19
ATOM     19  C   UNL     1       4.767   3.285  18.562  0.00  0.00    +0.000 C 
BRANCH  19  20
ATOM     20  O   UNL     1       4.452   1.894  18.458  0.00  0.00    +0.000 OA
ATOM     21  H   UNL     1       3.496   1.833  18.289  0.00  0.00    +0.000 HD
ENDBRANCH  19  20
ENDBRANCH   8  19
TORSDOF 4
ENDMDL
MODEL 5
REMARK VINA RESULT:      -6.2      4.562      6.026
REMARK  Name = 
REMARK  7 active torsions:
REMARK  status: ('A' for Active; 'I' for Inactive)
REMARK    1  A    between atoms: C_1  and  C_2
REMARK    2  A    between atoms: C_4  and  C_5
REMARK    3  A    between atoms: C_4  and  C_6
REMARK    4  A    between atoms: C_8  and  C_9
REMARK    5  A    between atoms: C_8  and  N_11
REMARK    6  A    between atoms: C_9  and  O_10
REMARK    7  A    between atoms: C_12  and  C_14
REMARK                            x       y       z     vdW  Elec       q    Type
REMARK                         _______ _______ _______ _____ _____    ______ ____
ROOT
ATOM      1  C   UNL     1       2.912   3.215  17.089  0.00  0.00    +0.000 C 
ATOM      2  C   UNL     1       1.754   3.830  17.874  0.00  0.00    +0.000 C 
ATOM      3  C   UNL     1       1.374   3.055  19.143  0.00  0.00    +0.000 C 
ATOM      4  C   UNL     1       2.159   3.397  20.425  0.00  0.00    +0.000 C 
ATOM      5  C   UNL     1       3.527   2.697  20.471  0.00  0.00    +0.000 C 
ATOM      6  C   UNL     1       1.370   2.839  21.639  0.00  0.00    +0.000 C 
ATOM      7  C   UNL     1       2.267   4.928  20.606  0.00  0.00    +0.000 C 
ATOM      8  C   UNL     1       2.691   5.786  19.386  0.00  0.00    +0.000 C 
ATOM      9  C   UNL     1       1.899   5.338  18.127  0.00  0.00    +0.000 C 
ENDROOT
BRANCH   8  10
ATOM     10  N   UNL     1       2.297   7.202  19.653  0.00  0.00    +0.000 N 
ATOM     11  C   UNL     1       1.360   7.602  20.581  0.00  0.00    +0.000 C 
ATOM     12  O   UNL     1       0.708   6.830  21.272  0.00  0.00    +0.000 OA
ATOM     13  H   UNL     1       2.869   7.939  19.253  0.00  0.00    +0.000 HD
BRANCH  11  14
ATOM     14  C   UNL     1       1.187   9.049  20.673  0.00  0.00    +0.000 A 
ATOM     15  C   UNL     1       0.985   9.873  19.576  0.00  0.00    +0.000 A 
ATOM     16  S   UNL     1       0.860  11.480  20.156  0.00  0.00    +0.000 S 
ATOM     17  N   UNL     1       1.068  11.023  21.752  0.00  0.00    +0.000 NA
ATOM     18  N   UNL     1       1.230   9.718  21.897  0.00  0.00    +0.000 NA
ENDBRANCH  11  14
ENDBRANCH   8  10
BRANCH   8  19
ATOM     19  C   UNL     1       4.225   5.747  19.139  0.00  0.00    +0.000 C 
BRANCH  19  20
ATOM     20  O   UNL     1       4.541   6.242  17.835  0.00  0.00    +0.000 OA
ATOM     21  H   UNL     1       4.969   7.107  17.957  0.00  0.00    +0.000 HD
ENDBRANCH  19  20
ENDBRANCH   8  19
TORSDOF 4
ENDMDL
MODEL 6
REMARK VINA RESULT:      -6.1      4.435      6.366
REMARK  Name = 
REMARK  7 active torsions:
REMARK  status: ('A' for Active; 'I' for Inactive)
REMARK    1  A    between atoms: C_1  and  C_2
REMARK    2  A    between atoms: C_4  and  C_5
REMARK    3  A    between atoms: C_4  and  C_6
REMARK    4  A    between atoms: C_8  and  C_9
REMARK    5  A    between atoms: C_8  and  N_11
REMARK    6  A    between atoms: C_9  and  O_10
REMARK    7  A    between atoms: C_12  and  C_14
REMARK                            x       y       z     vdW  Elec       q    Type
REMARK                         _______ _______ _______ _____ _____    ______ ____
ROOT
ATOM      1  C   UNL     1       4.322   2.669  19.106  0.00  0.00    +0.000 C 
ATOM      2  C   UNL     1       4.894   4.060  19.379  0.00  0.00    +0.000 C 
ATOM      3  C   UNL     1       5.900   4.543  18.324  0.00  0.00    +0.000 C 
ATOM      4  C   UNL     1       5.317   5.247  17.083  0.00  0.00    +0.000 C 
ATOM      5  C   UNL     1       4.788   4.245  16.044  0.00  0.00    +0.000 C 
ATOM      6  C   UNL     1       6.469   6.007  16.373  0.00  0.00    +0.000 C 
ATOM      7  C   UNL     1       4.257   6.292  17.497  0.00  0.00    +0.000 C 
ATOM      8  C   UNL     1       3.173   5.874  18.524  0.00  0.00    +0.000 C 
ATOM      9  C   UNL     1       3.834   5.120  19.710  0.00  0.00    +0.000 C 
ENDROOT
BRANCH   8  10
ATOM     10  N   UNL     1       2.570   7.116  19.095  0.00  0.00    +0.000 N 
ATOM     11  C   UNL     1       1.821   7.174  20.251  0.00  0.00    +0.000 C 
ATOM     12  O   UNL     1       1.527   6.195  20.926  0.00  0.00    +0.000 OA
ATOM     13  H   UNL     1       2.865   8.009  18.712  0.00  0.00    +0.000 HD
BRANCH  11  14
ATOM     14  C   UNL     1       1.379   8.517  20.614  0.00  0.00    +0.000 A 
ATOM     15  C   UNL     1       0.989   9.476  19.691  0.00  0.00    +0.000 A 
ATOM     16  S   UNL     1       0.580  10.893  20.563  0.00  0.00    +0.000 S 
ATOM     17  N   UNL     1       0.925  10.196  22.045  0.00  0.00    +0.000 NA
ATOM     18  N   UNL     1       1.336   8.943  21.942  0.00  0.00    +0.000 NA
ENDBRANCH  11  14
ENDBRANCH   8  10
BRANCH   8  19
ATOM     19  C   UNL     1       2.036   5.035  17.878  0.00  0.00    +0.000 C 
BRANCH  19  20
ATOM     20  O   UNL     1       1.414   4.189  18.849  0.00  0.00    +0.000 OA
ATOM     21  H   UNL     1       0.697   3.716  18.393  0.00  0.00    +0.000 HD
ENDBRANCH  19  20
ENDBRANCH   8  19
TORSDOF 4
ENDMDL
MODEL 7
REMARK VINA RESULT:      -6.1      1.247      2.207
REMARK  Name = 
REMARK  7 active torsions:
REMARK  status: ('A' for Active; 'I' for Inactive)
REMARK    1  A    between atoms: C_1  and  C_2
REMARK    2  A    between atoms: C_4  and  C_5
REMARK    3  A    between atoms: C_4  and  C_6
REMARK    4  A    between atoms: C_8  and  C_9
REMARK    5  A    between atoms: C_8  and  N_11
REMARK    6  A    between atoms: C_9  and  O_10
REMARK    7  A    between atoms: C_12  and  C_14
REMARK                            x       y       z     vdW  Elec       q    Type
REMARK                         _______ _______ _______ _____ _____    ______ ____
ROOT
ATOM      1  C   UNL     1       4.301   2.465  20.981  0.00  0.00    +0.000 C 
ATOM      2  C   UNL     1       3.905   2.102  19.550  0.00  0.00    +0.000 C 
ATOM      3  C   UNL     1       2.403   2.226  19.264  0.00  0.00    +0.000 C 
ATOM      4  C   UNL     1       1.890   3.616  18.838  0.00  0.00    +0.000 C 
ATOM      5  C   UNL     1       1.685   4.551  20.042  0.00  0.00    +0.000 C 
ATOM      6  C   UNL     1       0.484   3.441  18.207  0.00  0.00    +0.000 C 
ATOM      7  C   UNL     1       2.810   4.229  17.759  0.00  0.00    +0.000 C 
ATOM      8  C   UNL     1       4.343   4.190  17.989  0.00  0.00    +0.000 C 
ATOM      9  C   UNL     1       4.767   2.776  18.472  0.00  0.00    +0.000 C 
ENDROOT
BRANCH   8  10
ATOM     10  N   UNL     1       5.018   4.408  16.673  0.00  0.00    +0.000 N 
ATOM     11  C   UNL     1       6.381   4.426  16.475  0.00  0.00    +0.000 C 
ATOM     12  O   UNL     1       7.205   4.307  17.373  0.00  0.00    +0.000 OA
ATOM     13  H   UNL     1       4.447   4.370  15.834  0.00  0.00    +0.000 HD
BRANCH  11  14
ATOM     14  C   UNL     1       6.783   4.620  15.085  0.00  0.00    +0.000 A 
ATOM     15  C   UNL     1       6.262   3.895  14.023  0.00  0.00    +0.000 A 
ATOM     16  S   UNL     1       7.040   4.441  12.598  0.00  0.00    +0.000 S 
ATOM     17  N   UNL     1       7.979   5.554  13.421  0.00  0.00    +0.000 NA
ATOM     18  N   UNL     1       7.754   5.556  14.725  0.00  0.00    +0.000 NA
ENDBRANCH  11  14
ENDBRANCH   8  10
BRANCH   8  19
ATOM     19  C   UNL     1       4.824   5.295  18.969  0.00  0.00    +0.000 C 
BRANCH  19  20
ATOM     20  O   UNL     1       5.956   4.849  19.721  0.00  0.00    +0.000 OA
ATOM     21  H   UNL     1       6.421   5.646  20.030  0.00  0.00    +0.000 HD
ENDBRANCH  19  20
ENDBRANCH   8  19
TORSDOF 4
ENDMDL
MODEL 8
REMARK VINA RESULT:      -5.9      3.455      6.216
REMARK  Name = 
REMARK  7 active torsions:
REMARK  status: ('A' for Active; 'I' for Inactive)
REMARK    1  A    between atoms: C_1  and  C_2
REMARK    2  A    between atoms: C_4  and  C_5
REMARK    3  A    between atoms: C_4  and  C_6
REMARK    4  A    between atoms: C_8  and  C_9
REMARK    5  A    between atoms: C_8  and  N_11
REMARK    6  A    between atoms: C_9  and  O_10
REMARK    7  A    between atoms: C_12  and  C_14
REMARK                            x       y       z     vdW  Elec       q    Type
REMARK                         _______ _______ _______ _____ _____    ______ ____
ROOT
ATOM      1  C   UNL     1       6.542   5.138  14.789  0.00  0.00    +0.000 C 
ATOM      2  C   UNL     1       6.594   4.316  16.076  0.00  0.00    +0.000 C 
ATOM      3  C   UNL     1       7.700   4.745  17.050  0.00  0.00    +0.000 C 
ATOM      4  C   UNL     1       7.357   5.885  18.031  0.00  0.00    +0.000 C 
ATOM      5  C   UNL     1       7.471   7.269  17.373  0.00  0.00    +0.000 C 
ATOM      6  C   UNL     1       8.413   5.880  19.167  0.00  0.00    +0.000 C 
ATOM      7  C   UNL     1       5.975   5.647  18.680  0.00  0.00    +0.000 C 
ATOM      8  C   UNL     1       4.787   5.255  17.762  0.00  0.00    +0.000 C 
ATOM      9  C   UNL     1       5.233   4.148  16.768  0.00  0.00    +0.000 C 
ENDROOT
BRANCH   8  10
ATOM     10  N   UNL     1       3.719   4.652  18.615  0.00  0.00    +0.000 N 
ATOM     11  C   UNL     1       3.913   3.644  19.535  0.00  0.00    +0.000 C 
ATOM     12  O   UNL     1       4.990   3.093  19.729  0.00  0.00    +0.000 OA
ATOM     13  H   UNL     1       2.819   5.122  18.654  0.00  0.00    +0.000 HD
BRANCH  11  14
ATOM     14  C   UNL     1       2.711   3.260  20.267  0.00  0.00    +0.000 A 
ATOM     15  C   UNL     1       2.728   2.663  21.519  0.00  0.00    +0.000 A 
ATOM     16  S   UNL     1       1.101   2.372  21.972  0.00  0.00    +0.000 S 
ATOM     17  N   UNL     1       0.490   3.020  20.556  0.00  0.00    +0.000 NA
ATOM     18  N   UNL     1       1.434   3.454  19.738  0.00  0.00    +0.000 NA
ENDBRANCH  11  14
ENDBRANCH   8  10
BRANCH   8  19
ATOM     19  C   UNL     1       4.183   6.478  17.020  0.00  0.00    +0.000 C 
BRANCH  19  20
ATOM     20  O   UNL     1       3.309   7.214  17.880  0.00  0.00    +0.000 OA
ATOM     21  H   UNL     1       2.400   6.978  17.626  0.00  0.00    +0.000 HD
ENDBRANCH  19  20
ENDBRANCH   8  19
TORSDOF 4
ENDMDL
MODEL 9
REMARK VINA RESULT:      -5.9      1.395      1.458
REMARK  Name = 
REMARK  7 active torsions:
REMARK  status: ('A' for Active; 'I' for Inactive)
REMARK    1  A    between atoms: C_1  and  C_2
REMARK    2  A    between atoms: C_4  and  C_5
REMARK    3  A    between atoms: C_4  and  C_6
REMARK    4  A    between atoms: C_8  and  C_9
REMARK    5  A    between atoms: C_8  and  N_11
REMARK    6  A    between atoms: C_9  and  O_10
REMARK    7  A    between atoms: C_12  and  C_14
REMARK                            x       y       z     vdW  Elec       q    Type
REMARK                         _______ _______ _______ _____ _____    ______ ____
ROOT
ATOM      1  C   UNL     1       1.062   2.294  19.159  0.00  0.00    +0.000 C 
ATOM      2  C   UNL     1       1.199   3.465  18.186  0.00  0.00    +0.000 C 
ATOM      3  C   UNL     1       1.212   4.844  18.860  0.00  0.00    +0.000 C 
ATOM      4  C   UNL     1       2.577   5.359  19.357  0.00  0.00    +0.000 C 
ATOM      5  C   UNL     1       2.968   4.751  20.713  0.00  0.00    +0.000 C 
ATOM      6  C   UNL     1       2.455   6.885  19.610  0.00  0.00    +0.000 C 
ATOM      7  C   UNL     1       3.663   5.154  18.276  0.00  0.00    +0.000 C 
ATOM      8  C   UNL     1       3.752   3.773  17.575  0.00  0.00    +0.000 C 
ATOM      9  C   UNL     1       2.332   3.300  17.162  0.00  0.00    +0.000 C 
ENDROOT
BRANCH   8  10
ATOM     10  N   UNL     1       4.527   3.943  16.309  0.00  0.00    +0.000 N 
ATOM     11  C   UNL     1       5.867   4.257  16.236  0.00  0.00    +0.000 C 
ATOM     12  O   UNL     1       6.573   4.475  17.212  0.00  0.00    +0.000 OA
ATOM     13  H   UNL     1       4.092   3.644  15.442  0.00  0.00    +0.000 HD
BRANCH  11  14
ATOM     14  C   UNL     1       6.393   4.327  14.876  0.00  0.00    +0.000 A 
ATOM     15  C   UNL     1       7.399   5.198  14.482  0.00  0.00    +0.000 A 
ATOM     16  S   UNL     1       7.670   4.946  12.810  0.00  0.00    +0.000 S 
ATOM     17  N   UNL     1       6.500   3.756  12.700  0.00  0.00    +0.000 NA
ATOM     18  N   UNL     1       5.897   3.518  13.853  0.00  0.00    +0.000 NA
ENDBRANCH  11  14
ENDBRANCH   8  10
BRANCH   8  19
ATOM     19  C   UNL     1       4.476   2.711  18.448  0.00  0.00    +0.000 C 
BRANCH  19  20
ATOM     20  O   UNL     1       4.219   1.392  17.960  0.00  0.00    +0.000 OA
ATOM     21  H   UNL     1       3.974   1.481  17.022  0.00  0.00    +0.000 HD
ENDBRANCH  19  20
ENDBRANCH   8  19
TORSDOF 4
ENDMDL
