MODEL 1
REMARK VINA RESULT:      -8.0      0.000      0.000
REMARK  Name = 
REMARK  5 active torsions:
REMARK  status: ('A' for Active; 'I' for Inactive)
REMARK    1  A    between atoms: C_1  and  C_2
REMARK    2  A    between atoms: C_3  and  C_4
REMARK    3  A    between atoms: C_14  and  C_15
REMARK    4  A    between atoms: C_22  and  C_23
REMARK    5  A    between atoms: C_23  and  N_24
REMARK                            x       y       z     vdW  Elec       q    Type
REMARK                         _______ _______ _______ _____ _____    ______ ____
ROOT
ATOM      1  C   UNL     1      -0.019   9.974  18.658  0.00  0.00    +0.000 C 
ATOM      2  C   UNL     1       0.227   9.817  20.134  0.00  0.00    +0.000 A 
ATOM      3  C   UNL     1       1.081   8.865  20.606  0.00  0.00    +0.000 A 
ATOM      4  C   UNL     1       1.259   8.720  22.049  0.00  0.00    +0.000 A 
ATOM      5  C   UNL     1       0.605   9.489  22.926  0.00  0.00    +0.000 A 
ATOM      6  C   UNL     1      -0.289  10.481  22.462  0.00  0.00    +0.000 A 
ATOM      7  N   UNL     1      -1.042  11.282  23.167  0.00  0.00    +0.000 NA
ATOM      8  C   UNL     1      -1.765  12.012  22.264  0.00  0.00    +0.000 A 
ATOM      9  C   UNL     1      -1.383  11.710  20.955  0.00  0.00    +0.000 A 
ATOM     10  N   UNL     1      -0.462  10.650  21.080  0.00  0.00    +0.000 N 
ENDROOT
BRANCH   8  11
ATOM     11  C   UNL     1      -2.783  12.935  22.758  0.00  0.00    +0.000 A 
ATOM     12  C   UNL     1      -3.823  12.429  23.560  0.00  0.00    +0.000 A 
ATOM     13  C   UNL     1      -4.898  13.238  23.947  0.00  0.00    +0.000 A 
ATOM     14  C   UNL     1      -4.941  14.567  23.536  0.00  0.00    +0.000 A 
ATOM     15 CL   UNL     1      -6.282  15.557  23.966  0.00  0.00    +0.000 Cl
ATOM     16  C   UNL     1      -3.917  15.091  22.753  0.00  0.00    +0.000 A 
ATOM     17  C   UNL     1      -2.849  14.276  22.359  0.00  0.00    +0.000 A 
ENDBRANCH   8  11
BRANCH   3  18
ATOM     18  C   UNL     1       1.852   7.977  19.711  0.00  0.00    +0.000 A 
ATOM     19  C   UNL     1       2.008   6.624  20.040  0.00  0.00    +0.000 A 
ATOM     20  C   UNL     1       2.688   5.767  19.175  0.00  0.00    +0.000 A 
ATOM     21  C   UNL     1       3.213   6.255  17.978  0.00  0.00    +0.000 A 
ATOM     22  C   UNL     1       3.061   7.601  17.646  0.00  0.00    +0.000 A 
ATOM     23  C   UNL     1       2.380   8.463  18.508  0.00  0.00    +0.000 A 
ENDBRANCH   3  18
BRANCH   9  24
ATOM     24  C   UNL     1      -1.847  12.304  19.663  0.00  0.00    +0.000 C 
BRANCH  24  25
ATOM     25  N   UNL     1      -3.058  11.690  19.107  0.00  0.00    +0.000 NA
ATOM     26  C   UNL     1      -4.307  12.414  19.436  0.00  0.00    +0.000 C 
ATOM     27  C   UNL     1      -5.512  11.690  18.806  0.00  0.00    +0.000 C 
ATOM     28  O   UNL     1      -5.389  11.620  17.379  0.00  0.00    +0.000 OA
ATOM     29  C   UNL     1      -4.179  10.940  17.021  0.00  0.00    +0.000 C 
ATOM     30  C   UNL     1      -2.958  11.645  17.626  0.00  0.00    +0.000 C 
ENDBRANCH  24  25
ENDBRANCH   9  24
TORSDOF 4
ENDMDL
MODEL 2
REMARK VINA RESULT:      -8.0      2.672      4.053
REMARK  Name = 
REMARK  5 active torsions:
REMARK  status: ('A' for Active; 'I' for Inactive)
REMARK    1  A    between atoms: C_1  and  C_2
REMARK    2  A    between atoms: C_3  and  C_4
REMARK    3  A    between atoms: C_14  and  C_15
REMARK    4  A    between atoms: C_22  and  C_23
REMARK    5  A    between atoms: C_23  and  N_24
REMARK                            x       y       z     vdW  Elec       q    Type
REMARK                         _______ _______ _______ _____ _____    ______ ____
ROOT
ATOM      1  C   UNL     1       2.176   8.839  17.531  0.00  0.00    +0.000 C 
ATOM      2  C   UNL     1       1.837   8.327  18.904  0.00  0.00    +0.000 A 
ATOM      3  C   UNL     1       2.201   7.072  19.296  0.00  0.00    +0.000 A 
ATOM      4  C   UNL     1       1.817   6.601  20.623  0.00  0.00    +0.000 A 
ATOM      5  C   UNL     1       1.110   7.358  21.470  0.00  0.00    +0.000 A 
ATOM      6  C   UNL     1       0.718   8.661  21.086  0.00  0.00    +0.000 A 
ATOM      7  N   UNL     1      -0.009   9.514  21.757  0.00  0.00    +0.000 NA
ATOM      8  C   UNL     1      -0.159  10.603  20.942  0.00  0.00    +0.000 A 
ATOM      9  C   UNL     1       0.571  10.451  19.763  0.00  0.00    +0.000 A 
ATOM     10  N   UNL     1       1.092   9.141  19.822  0.00  0.00    +0.000 N 
ENDROOT
BRANCH   8  11
ATOM     11  C   UNL     1      -1.020  11.699  21.382  0.00  0.00    +0.000 A 
ATOM     12  C   UNL     1      -0.894  12.169  22.702  0.00  0.00    +0.000 A 
ATOM     13  C   UNL     1      -1.782  13.119  23.220  0.00  0.00    +0.000 A 
ATOM     14  C   UNL     1      -2.806  13.612  22.418  0.00  0.00    +0.000 A 
ATOM     15 CL   UNL     1      -3.933  14.744  23.059  0.00  0.00    +0.000 Cl
ATOM     16  C   UNL     1      -2.942  13.170  21.105  0.00  0.00    +0.000 A 
ATOM     17  C   UNL     1      -2.057  12.211  20.594  0.00  0.00    +0.000 A 
ENDBRANCH   8  11
BRANCH   3  18
ATOM     18  C   UNL     1       2.989   6.170  18.430  0.00  0.00    +0.000 A 
ATOM     19  C   UNL     1       4.313   6.496  18.109  0.00  0.00    +0.000 A 
ATOM     20  C   UNL     1       5.082   5.626  17.337  0.00  0.00    +0.000 A 
ATOM     21  C   UNL     1       4.533   4.425  16.884  0.00  0.00    +0.000 A 
ATOM     22  C   UNL     1       3.215   4.095  17.200  0.00  0.00    +0.000 A 
ATOM     23  C   UNL     1       2.443   4.964  17.974  0.00  0.00    +0.000 A 
ENDBRANCH   3  18
BRANCH   9  24
ATOM     24  C   UNL     1       0.758  11.403  18.625  0.00  0.00    +0.000 C 
BRANCH  24  25
ATOM     25  N   UNL     1       1.494  12.626  18.963  0.00  0.00    +0.000 NA
ATOM     26  C   UNL     1       2.738  12.817  18.181  0.00  0.00    +0.000 C 
ATOM     27  C   UNL     1       3.430  14.125  18.612  0.00  0.00    +0.000 C 
ATOM     28  O   UNL     1       2.579  15.259  18.399  0.00  0.00    +0.000 OA
ATOM     29  C   UNL     1       1.355  15.101  19.127  0.00  0.00    +0.000 C 
ATOM     30  C   UNL     1       0.635  13.811  18.711  0.00  0.00    +0.000 C 
ENDBRANCH  24  25
ENDBRANCH   9  24
TORSDOF 4
ENDMDL
MODEL 3
REMARK VINA RESULT:      -7.9      4.761      9.600
REMARK  Name = 
REMARK  5 active torsions:
REMARK  status: ('A' for Active; 'I' for Inactive)
REMARK    1  A    between atoms: C_1  and  C_2
REMARK    2  A    between atoms: C_3  and  C_4
REMARK    3  A    between atoms: C_14  and  C_15
REMARK    4  A    between atoms: C_22  and  C_23
REMARK    5  A    between atoms: C_23  and  N_24
REMARK                            x       y       z     vdW  Elec       q    Type
REMARK                         _______ _______ _______ _____ _____    ______ ____
ROOT
ATOM      1  C   UNL     1       0.049   8.542  21.595  0.00  0.00    +0.000 C 
ATOM      2  C   UNL     1       0.527   9.293  20.382  0.00  0.00    +0.000 A 
ATOM      3  C   UNL     1       0.031  10.527  20.079  0.00  0.00    +0.000 A 
ATOM      4  C   UNL     1       0.494  11.203  18.870  0.00  0.00    +0.000 A 
ATOM      5  C   UNL     1       1.386  10.649  18.043  0.00  0.00    +0.000 A 
ATOM      6  C   UNL     1       1.913   9.369  18.333  0.00  0.00    +0.000 A 
ATOM      7  N   UNL     1       2.747   8.660  17.621  0.00  0.00    +0.000 NA
ATOM      8  C   UNL     1       2.905   7.478  18.291  0.00  0.00    +0.000 A 
ATOM      9  C   UNL     1       2.210   7.492  19.501  0.00  0.00    +0.000 A 
ATOM     10  N   UNL     1       1.496   8.709  19.498  0.00  0.00    +0.000 N 
ENDROOT
BRANCH   8  11
ATOM     11  C   UNL     1       3.713   6.425  17.681  0.00  0.00    +0.000 A 
ATOM     12  C   UNL     1       4.999   6.747  17.210  0.00  0.00    +0.000 A 
ATOM     13  C   UNL     1       5.763   5.816  16.496  0.00  0.00    +0.000 A 
ATOM     14  C   UNL     1       5.245   4.549  16.248  0.00  0.00    +0.000 A 
ATOM     15 CL   UNL     1       6.155   3.412  15.329  0.00  0.00    +0.000 Cl
ATOM     16  C   UNL     1       3.981   4.205  16.715  0.00  0.00    +0.000 A 
ATOM     17  C   UNL     1       3.216   5.142  17.421  0.00  0.00    +0.000 A 
ENDBRANCH   8  11
BRANCH   3  18
ATOM     18  C   UNL     1      -0.951  11.219  20.940  0.00  0.00    +0.000 A 
ATOM     19  C   UNL     1      -0.779  11.218  22.330  0.00  0.00    +0.000 A 
ATOM     20  C   UNL     1      -1.671  11.912  23.147  0.00  0.00    +0.000 A 
ATOM     21  C   UNL     1      -2.737  12.612  22.580  0.00  0.00    +0.000 A 
ATOM     22  C   UNL     1      -2.914  12.616  21.196  0.00  0.00    +0.000 A 
ATOM     23  C   UNL     1      -2.022  11.923  20.375  0.00  0.00    +0.000 A 
ENDBRANCH   3  18
BRANCH   9  24
ATOM     24  C   UNL     1       2.150   6.458  20.581  0.00  0.00    +0.000 C 
BRANCH  24  25
ATOM     25  N   UNL     1       2.158   5.071  20.102  0.00  0.00    +0.000 NA
ATOM     26  C   UNL     1       3.124   4.197  20.806  0.00  0.00    +0.000 C 
ATOM     27  C   UNL     1       3.052   2.769  20.230  0.00  0.00    +0.000 C 
ATOM     28  O   UNL     1       1.740   2.213  20.381  0.00  0.00    +0.000 OA
ATOM     29  C   UNL     1       0.773   3.044  19.727  0.00  0.00    +0.000 C 
ATOM     30  C   UNL     1       0.812   4.472  20.287  0.00  0.00    +0.000 C 
ENDBRANCH  24  25
ENDBRANCH   9  24
TORSDOF 4
ENDMDL
MODEL 4
REMARK VINA RESULT:      -7.9      0.659      1.096
REMARK  Name = 
REMARK  5 active torsions:
REMARK  status: ('A' for Active; 'I' for Inactive)
REMARK    1  A    between atoms: C_1  and  C_2
REMARK    2  A    between atoms: C_3  and  C_4
REMARK    3  A    between atoms: C_14  and  C_15
REMARK    4  A    between atoms: C_22  and  C_23
REMARK    5  A    between atoms: C_23  and  N_24
REMARK                            x       y       z     vdW  Elec       q    Type
REMARK                         _______ _______ _______ _____ _____    ______ ____
ROOT
ATOM      1  C   UNL     1       0.370   9.716  18.324  0.00  0.00    +0.000 C 
ATOM      2  C   UNL     1       0.650   9.517  19.789  0.00  0.00    +0.000 A 
ATOM      3  C   UNL     1       1.472   8.517  20.217  0.00  0.00    +0.000 A 
ATOM      4  C   UNL     1       1.683   8.334  21.651  0.00  0.00    +0.000 A 
ATOM      5  C   UNL     1       1.090   9.112  22.562  0.00  0.00    +0.000 A 
ATOM      6  C   UNL     1       0.230  10.153  22.144  0.00  0.00    +0.000 A 
ATOM      7  N   UNL     1      -0.466  10.972  22.886  0.00  0.00    +0.000 NA
ATOM      8  C   UNL     1      -1.181  11.752  22.019  0.00  0.00    +0.000 A 
ATOM      9  C   UNL     1      -0.849  11.463  20.694  0.00  0.00    +0.000 A 
ATOM     10  N   UNL     1       0.026  10.359  20.771  0.00  0.00    +0.000 N 
ENDROOT
BRANCH   8  11
ATOM     11  C   UNL     1      -2.141  12.710  22.561  0.00  0.00    +0.000 A 
ATOM     12  C   UNL     1      -3.175  12.236  23.389  0.00  0.00    +0.000 A 
ATOM     13  C   UNL     1      -4.201  13.083  23.824  0.00  0.00    +0.000 A 
ATOM     14  C   UNL     1      -4.200  14.419  23.435  0.00  0.00    +0.000 A 
ATOM     15 CL   UNL     1      -5.482  15.458  23.924  0.00  0.00    +0.000 Cl
ATOM     16  C   UNL     1      -3.181  14.912  22.626  0.00  0.00    +0.000 A 
ATOM     17  C   UNL     1      -2.162  14.059  22.185  0.00  0.00    +0.000 A 
ENDBRANCH   8  11
BRANCH   3  18
ATOM     18  C   UNL     1       2.176   7.615  19.282  0.00  0.00    +0.000 A 
ATOM     19  C   UNL     1       2.918   8.154  18.224  0.00  0.00    +0.000 A 
ATOM     20  C   UNL     1       3.629   7.314  17.367  0.00  0.00    +0.000 A 
ATOM     21  C   UNL     1       3.604   5.933  17.564  0.00  0.00    +0.000 A 
ATOM     22  C   UNL     1       2.866   5.390  18.617  0.00  0.00    +0.000 A 
ATOM     23  C   UNL     1       2.154   6.228  19.477  0.00  0.00    +0.000 A 
ENDBRANCH   3  18
BRANCH   9  24
ATOM     24  C   UNL     1      -1.321  12.104  19.428  0.00  0.00    +0.000 C 
BRANCH  24  25
ATOM     25  N   UNL     1      -2.568  11.550  18.889  0.00  0.00    +0.000 NA
ATOM     26  C   UNL     1      -3.779  12.321  19.254  0.00  0.00    +0.000 C 
ATOM     27  C   UNL     1      -5.026  11.658  18.639  0.00  0.00    +0.000 C 
ATOM     28  O   UNL     1      -4.935  11.603  17.209  0.00  0.00    +0.000 OA
ATOM     29  C   UNL     1      -3.762  10.878  16.817  0.00  0.00    +0.000 C 
ATOM     30  C   UNL     1      -2.500  11.522  17.406  0.00  0.00    +0.000 C 
ENDBRANCH  24  25
ENDBRANCH   9  24
TORSDOF 4
ENDMDL
MODEL 5
REMARK VINA RESULT:      -7.7      2.707      3.997
REMARK  Name = 
REMARK  5 active torsions:
REMARK  status: ('A' for Active; 'I' for Inactive)
REMARK    1  A    between atoms: C_1  and  C_2
REMARK    2  A    between atoms: C_3  and  C_4
REMARK    3  A    between atoms: C_14  and  C_15
REMARK    4  A    between atoms: C_22  and  C_23
REMARK    5  A    between atoms: C_23  and  N_24
REMARK                            x       y       z     vdW  Elec       q    Type
REMARK                         _______ _______ _______ _____ _____    ______ ____
ROOT
ATOM      1  C   UNL     1       2.145   8.973  17.562  0.00  0.00    +0.000 C 
ATOM      2  C   UNL     1       1.803   8.463  18.935  0.00  0.00    +0.000 A 
ATOM      3  C   UNL     1       2.165   7.208  19.329  0.00  0.00    +0.000 A 
ATOM      4  C   UNL     1       1.776   6.739  20.656  0.00  0.00    +0.000 A 
ATOM      5  C   UNL     1       1.067   7.497  21.500  0.00  0.00    +0.000 A 
ATOM      6  C   UNL     1       0.676   8.799  21.113  0.00  0.00    +0.000 A 
ATOM      7  N   UNL     1      -0.053   9.654  21.781  0.00  0.00    +0.000 NA
ATOM      8  C   UNL     1      -0.200  10.742  20.964  0.00  0.00    +0.000 A 
ATOM      9  C   UNL     1       0.534  10.588  19.787  0.00  0.00    +0.000 A 
ATOM     10  N   UNL     1       1.054   9.278  19.850  0.00  0.00    +0.000 N 
ENDROOT
BRANCH   8  11
ATOM     11  C   UNL     1      -1.062  11.838  21.400  0.00  0.00    +0.000 A 
ATOM     12  C   UNL     1      -2.135  12.223  20.576  0.00  0.00    +0.000 A 
ATOM     13  C   UNL     1      -2.908  13.352  20.874  0.00  0.00    +0.000 A 
ATOM     14  C   UNL     1      -2.615  14.106  22.006  0.00  0.00    +0.000 A 
ATOM     15 CL   UNL     1      -3.527  15.523  22.357  0.00  0.00    +0.000 Cl
ATOM     16  C   UNL     1      -1.565  13.736  22.842  0.00  0.00    +0.000 A 
ATOM     17  C   UNL     1      -0.788  12.612  22.535  0.00  0.00    +0.000 A 
ENDBRANCH   8  11
BRANCH   3  18
ATOM     18  C   UNL     1       2.955   6.305  18.468  0.00  0.00    +0.000 A 
ATOM     19  C   UNL     1       2.430   5.059  18.101  0.00  0.00    +0.000 A 
ATOM     20  C   UNL     1       3.145   4.221  17.246  0.00  0.00    +0.000 A 
ATOM     21  C   UNL     1       4.386   4.624  16.751  0.00  0.00    +0.000 A 
ATOM     22  C   UNL     1       4.914   5.863  17.112  0.00  0.00    +0.000 A 
ATOM     23  C   UNL     1       4.201   6.705  17.968  0.00  0.00    +0.000 A 
ENDBRANCH   3  18
BRANCH   9  24
ATOM     24  C   UNL     1       0.724  11.539  18.648  0.00  0.00    +0.000 C 
BRANCH  24  25
ATOM     25  N   UNL     1       1.478  12.752  18.982  0.00  0.00    +0.000 NA
ATOM     26  C   UNL     1       2.702  12.945  18.172  0.00  0.00    +0.000 C 
ATOM     27  C   UNL     1       3.414  14.243  18.600  0.00  0.00    +0.000 C 
ATOM     28  O   UNL     1       2.566  15.385  18.424  0.00  0.00    +0.000 OA
ATOM     29  C   UNL     1       1.360  15.226  19.181  0.00  0.00    +0.000 C 
ATOM     30  C   UNL     1       0.620  13.946  18.768  0.00  0.00    +0.000 C 
ENDBRANCH  24  25
ENDBRANCH   9  24
TORSDOF 4
ENDMDL
MODEL 6
REMARK VINA RESULT:      -7.7      2.846      4.291
REMARK  Name = 
REMARK  5 active torsions:
REMARK  status: ('A' for Active; 'I' for Inactive)
REMARK    1  A    between atoms: C_1  and  C_2
REMARK    2  A    between atoms: C_3  and  C_4
REMARK    3  A    between atoms: C_14  and  C_15
REMARK    4  A    between atoms: C_22  and  C_23
REMARK    5  A    between atoms: C_23  and  N_24
REMARK                            x       y       z     vdW  Elec       q    Type
REMARK                         _______ _______ _______ _____ _____    ______ ____
ROOT
ATOM      1  C   UNL     1       2.265   9.170  17.605  0.00  0.00    +0.000 C 
ATOM      2  C   UNL     1       1.883   8.508  18.901  0.00  0.00    +0.000 A 
ATOM      3  C   UNL     1       2.260   7.226  19.173  0.00  0.00    +0.000 A 
ATOM      4  C   UNL     1       1.833   6.609  20.425  0.00  0.00    +0.000 A 
ATOM      5  C   UNL     1       1.076   7.258  21.316  0.00  0.00    +0.000 A 
ATOM      6  C   UNL     1       0.669   8.587  21.056  0.00  0.00    +0.000 A 
ATOM      7  N   UNL     1      -0.104   9.350  21.782  0.00  0.00    +0.000 NA
ATOM      8  C   UNL     1      -0.246  10.516  21.081  0.00  0.00    +0.000 A 
ATOM      9  C   UNL     1       0.535  10.505  19.924  0.00  0.00    +0.000 A 
ATOM     10  N   UNL     1       1.082   9.206  19.867  0.00  0.00    +0.000 N 
ENDROOT
BRANCH   8  11
ATOM     11  C   UNL     1      -1.149  11.543  21.597  0.00  0.00    +0.000 A 
ATOM     12  C   UNL     1      -1.983  12.225  20.694  0.00  0.00    +0.000 A 
ATOM     13  C   UNL     1      -2.767  13.309  21.109  0.00  0.00    +0.000 A 
ATOM     14  C   UNL     1      -2.723  13.719  22.438  0.00  0.00    +0.000 A 
ATOM     15 CL   UNL     1      -3.645  15.080  22.949  0.00  0.00    +0.000 Cl
ATOM     16  C   UNL     1      -1.914  13.050  23.352  0.00  0.00    +0.000 A 
ATOM     17  C   UNL     1      -1.125  11.973  22.930  0.00  0.00    +0.000 A 
ENDBRANCH   8  11
BRANCH   3  18
ATOM     18  C   UNL     1       3.103   6.436  18.251  0.00  0.00    +0.000 A 
ATOM     19  C   UNL     1       4.233   7.023  17.668  0.00  0.00    +0.000 A 
ATOM     20  C   UNL     1       5.064   6.270  16.838  0.00  0.00    +0.000 A 
ATOM     21  C   UNL     1       4.772   4.929  16.589  0.00  0.00    +0.000 A 
ATOM     22  C   UNL     1       3.647   4.339  17.167  0.00  0.00    +0.000 A 
ATOM     23  C   UNL     1       2.813   5.089  17.999  0.00  0.00    +0.000 A 
ENDBRANCH   3  18
BRANCH   9  24
ATOM     24  C   UNL     1       0.745  11.576  18.902  0.00  0.00    +0.000 C 
BRANCH  24  25
ATOM     25  N   UNL     1       1.958  12.378  19.095  0.00  0.00    +0.000 NA
ATOM     26  C   UNL     1       2.225  13.340  18.001  0.00  0.00    +0.000 C 
ATOM     27  C   UNL     1       3.514  14.128  18.302  0.00  0.00    +0.000 C 
ATOM     28  O   UNL     1       3.405  14.855  19.533  0.00  0.00    +0.000 OA
ATOM     29  C   UNL     1       3.128  13.957  20.614  0.00  0.00    +0.000 C 
ATOM     30  C   UNL     1       1.841  13.164  20.349  0.00  0.00    +0.000 C 
ENDBRANCH  24  25
ENDBRANCH   9  24
TORSDOF 4
ENDMDL
MODEL 7
REMARK VINA RESULT:      -7.7      2.833      3.928
REMARK  Name = 
REMARK  5 active torsions:
REMARK  status: ('A' for Active; 'I' for Inactive)
REMARK    1  A    between atoms: C_1  and  C_2
REMARK    2  A    between atoms: C_3  and  C_4
REMARK    3  A    between atoms: C_14  and  C_15
REMARK    4  A    between atoms: C_22  and  C_23
REMARK    5  A    between atoms: C_23  and  N_24
REMARK                            x       y       z     vdW  Elec       q    Type
REMARK                         _______ _______ _______ _____ _____    ______ ____
ROOT
ATOM      1  C   UNL     1       1.838   9.571  17.713  0.00  0.00    +0.000 C 
ATOM      2  C   UNL     1       1.543   9.016  19.080  0.00  0.00    +0.000 A 
ATOM      3  C   UNL     1       1.954   7.765  19.435  0.00  0.00    +0.000 A 
ATOM      4  C   UNL     1       1.611   7.251  20.758  0.00  0.00    +0.000 A 
ATOM      5  C   UNL     1       0.897   7.965  21.635  0.00  0.00    +0.000 A 
ATOM      6  C   UNL     1       0.456   9.263  21.290  0.00  0.00    +0.000 A 
ATOM      7  N   UNL     1      -0.284  10.077  21.995  0.00  0.00    +0.000 NA
ATOM      8  C   UNL     1      -0.485  11.179  21.209  0.00  0.00    +0.000 A 
ATOM      9  C   UNL     1       0.227  11.078  20.013  0.00  0.00    +0.000 A 
ATOM     10  N   UNL     1       0.790   9.785  20.031  0.00  0.00    +0.000 N 
ENDROOT
BRANCH   8  11
ATOM     11  C   UNL     1      -1.371  12.236  21.691  0.00  0.00    +0.000 A 
ATOM     12  C   UNL     1      -1.072  12.863  22.915  0.00  0.00    +0.000 A 
ATOM     13  C   UNL     1      -1.956  13.782  23.492  0.00  0.00    +0.000 A 
ATOM     14  C   UNL     1      -3.150  14.086  22.846  0.00  0.00    +0.000 A 
ATOM     15 CL   UNL     1      -4.266  15.178  23.570  0.00  0.00    +0.000 Cl
ATOM     16  C   UNL     1      -3.460  13.487  21.629  0.00  0.00    +0.000 A 
ATOM     17  C   UNL     1      -2.578  12.560  21.060  0.00  0.00    +0.000 A 
ENDBRANCH   8  11
BRANCH   3  18
ATOM     18  C   UNL     1       2.753   6.909  18.533  0.00  0.00    +0.000 A 
ATOM     19  C   UNL     1       3.882   7.437  17.894  0.00  0.00    +0.000 A 
ATOM     20  C   UNL     1       4.672   6.623  17.083  0.00  0.00    +0.000 A 
ATOM     21  C   UNL     1       4.341   5.279  16.908  0.00  0.00    +0.000 A 
ATOM     22  C   UNL     1       3.218   4.748  17.542  0.00  0.00    +0.000 A 
ATOM     23  C   UNL     1       2.424   5.559  18.356  0.00  0.00    +0.000 A 
ENDBRANCH   3  18
BRANCH   9  24
ATOM     24  C   UNL     1       0.361  12.062  18.894  0.00  0.00    +0.000 C 
BRANCH  24  25
ATOM     25  N   UNL     1       1.271  13.180  19.166  0.00  0.00    +0.000 NA
ATOM     26  C   UNL     1       2.070  13.020  20.403  0.00  0.00    +0.000 C 
ATOM     27  C   UNL     1       2.989  14.242  20.593  0.00  0.00    +0.000 C 
ATOM     28  O   UNL     1       3.887  14.395  19.487  0.00  0.00    +0.000 OA
ATOM     29  C   UNL     1       3.149  14.535  18.267  0.00  0.00    +0.000 C 
ATOM     30  C   UNL     1       2.231  13.325  18.043  0.00  0.00    +0.000 C 
ENDBRANCH  24  25
ENDBRANCH   9  24
TORSDOF 4
ENDMDL
MODEL 8
REMARK VINA RESULT:      -7.7      2.723      3.881
REMARK  Name = 
REMARK  5 active torsions:
REMARK  status: ('A' for Active; 'I' for Inactive)
REMARK    1  A    between atoms: C_1  and  C_2
REMARK    2  A    between atoms: C_3  and  C_4
REMARK    3  A    between atoms: C_14  and  C_15
REMARK    4  A    between atoms: C_22  and  C_23
REMARK    5  A    between atoms: C_23  and  N_24
REMARK                            x       y       z     vdW  Elec       q    Type
REMARK                         _______ _______ _______ _____ _____    ______ ____
ROOT
ATOM      1  C   UNL     1       1.873   9.385  17.626  0.00  0.00    +0.000 C 
ATOM      2  C   UNL     1       1.612   8.898  19.025  0.00  0.00    +0.000 A 
ATOM      3  C   UNL     1       2.000   7.650  19.419  0.00  0.00    +0.000 A 
ATOM      4  C   UNL     1       1.690   7.203  20.773  0.00  0.00    +0.000 A 
ATOM      5  C   UNL     1       1.030   7.974  21.644  0.00  0.00    +0.000 A 
ATOM      6  C   UNL     1       0.613   9.269  21.259  0.00  0.00    +0.000 A 
ATOM      7  N   UNL     1      -0.078  10.133  21.954  0.00  0.00    +0.000 NA
ATOM      8  C   UNL     1      -0.275  11.207  21.129  0.00  0.00    +0.000 A 
ATOM      9  C   UNL     1       0.389  11.035  19.914  0.00  0.00    +0.000 A 
ATOM     10  N   UNL     1       0.916   9.727  19.968  0.00  0.00    +0.000 N 
ENDROOT
BRANCH   8  11
ATOM     11  C   UNL     1      -1.113  12.309  21.596  0.00  0.00    +0.000 A 
ATOM     12  C   UNL     1      -2.396  12.465  21.041  0.00  0.00    +0.000 A 
ATOM     13  C   UNL     1      -3.188  13.578  21.348  0.00  0.00    +0.000 A 
ATOM     14  C   UNL     1      -2.701  14.548  22.220  0.00  0.00    +0.000 A 
ATOM     15 CL   UNL     1      -3.645  15.945  22.567  0.00  0.00    +0.000 Cl
ATOM     16  C   UNL     1      -1.439  14.408  22.790  0.00  0.00    +0.000 A 
ATOM     17  C   UNL     1      -0.647  13.297  22.472  0.00  0.00    +0.000 A 
ENDBRANCH   8  11
BRANCH   3  18
ATOM     18  C   UNL     1       2.741   6.734  18.527  0.00  0.00    +0.000 A 
ATOM     19  C   UNL     1       3.914   7.173  17.900  0.00  0.00    +0.000 A 
ATOM     20  C   UNL     1       4.649   6.299  17.098  0.00  0.00    +0.000 A 
ATOM     21  C   UNL     1       4.218   4.984  16.922  0.00  0.00    +0.000 A 
ATOM     22  C   UNL     1       3.051   4.541  17.544  0.00  0.00    +0.000 A 
ATOM     23  C   UNL     1       2.313   5.413  18.348  0.00  0.00    +0.000 A 
ENDBRANCH   3  18
BRANCH   9  24
ATOM     24  C   UNL     1       0.510  11.966  18.750  0.00  0.00    +0.000 C 
BRANCH  24  25
ATOM     25  N   UNL     1       1.305  13.172  19.010  0.00  0.00    +0.000 NA
ATOM     26  C   UNL     1       2.458  13.343  18.097  0.00  0.00    +0.000 C 
ATOM     27  C   UNL     1       3.221  14.633  18.454  0.00  0.00    +0.000 C 
ATOM     28  O   UNL     1       2.376  15.785  18.341  0.00  0.00    +0.000 OA
ATOM     29  C   UNL     1       1.236  15.648  19.200  0.00  0.00    +0.000 C 
ATOM     30  C   UNL     1       0.448  14.375  18.860  0.00  0.00    +0.000 C 
ENDBRANCH  24  25
ENDBRANCH   9  24
TORSDOF 4
ENDMDL
MODEL 9
REMARK VINA RESULT:      -7.6      5.211     10.034
REMARK  Name = 
REMARK  5 active torsions:
REMARK  status: ('A' for Active; 'I' for Inactive)
REMARK    1  A    between atoms: C_1  and  C_2
REMARK    2  A    between atoms: C_3  and  C_4
REMARK    3  A    between atoms: C_14  and  C_15
REMARK    4  A    between atoms: C_22  and  C_23
REMARK    5  A    between atoms: C_23  and  N_24
REMARK                            x       y       z     vdW  Elec       q    Type
REMARK                         _______ _______ _______ _____ _____    ______ ____
ROOT
ATOM      1  C   UNL     1       1.180   7.719  21.385  0.00  0.00    +0.000 C 
ATOM      2  C   UNL     1       1.423   8.575  20.172  0.00  0.00    +0.000 A 
ATOM      3  C   UNL     1       0.824   9.794  20.041  0.00  0.00    +0.000 A 
ATOM      4  C   UNL     1       1.056  10.575  18.829  0.00  0.00    +0.000 A 
ATOM      5  C   UNL     1       1.834  10.131  17.835  0.00  0.00    +0.000 A 
ATOM      6  C   UNL     1       2.462   8.869  17.945  0.00  0.00    +0.000 A 
ATOM      7  N   UNL     1       3.208   8.260  17.063  0.00  0.00    +0.000 NA
ATOM      8  C   UNL     1       3.528   7.049  17.611  0.00  0.00    +0.000 A 
ATOM      9  C   UNL     1       3.033   6.941  18.912  0.00  0.00    +0.000 A 
ATOM     10  N   UNL     1       2.268   8.110  19.109  0.00  0.00    +0.000 N 
ENDROOT
BRANCH   8  11
ATOM     11  C   UNL     1       4.281   6.089  16.808  0.00  0.00    +0.000 A 
ATOM     12  C   UNL     1       5.185   6.574  15.846  0.00  0.00    +0.000 A 
ATOM     13  C   UNL     1       5.830   5.707  14.955  0.00  0.00    +0.000 A 
ATOM     14  C   UNL     1       5.578   4.341  15.023  0.00  0.00    +0.000 A 
ATOM     15 CL   UNL     1       6.329   3.271  13.903  0.00  0.00    +0.000 Cl
ATOM     16  C   UNL     1       4.697   3.837  15.976  0.00  0.00    +0.000 A 
ATOM     17  C   UNL     1       4.046   4.709  16.858  0.00  0.00    +0.000 A 
ENDBRANCH   8  11
BRANCH   3  18
ATOM     18  C   UNL     1      -0.043  10.367  21.091  0.00  0.00    +0.000 A 
ATOM     19  C   UNL     1      -0.850  11.474  20.798  0.00  0.00    +0.000 A 
ATOM     20  C   UNL     1      -1.711  11.990  21.766  0.00  0.00    +0.000 A 
ATOM     21  C   UNL     1      -1.772  11.402  23.030  0.00  0.00    +0.000 A 
ATOM     22  C   UNL     1      -0.970  10.300  23.329  0.00  0.00    +0.000 A 
ATOM     23  C   UNL     1      -0.108   9.780  22.361  0.00  0.00    +0.000 A 
ENDBRANCH   3  18
BRANCH   9  24
ATOM     24  C   UNL     1       3.195   5.837  19.908  0.00  0.00    +0.000 C 
BRANCH  24  25
ATOM     25  N   UNL     1       2.750   4.520  19.440  0.00  0.00    +0.000 NA
ATOM     26  C   UNL     1       3.597   3.397  19.906  0.00  0.00    +0.000 C 
ATOM     27  C   UNL     1       3.044   2.065  19.362  0.00  0.00    +0.000 C 
ATOM     28  O   UNL     1       1.701   1.838  19.807  0.00  0.00    +0.000 OA
ATOM     29  C   UNL     1       0.853   2.916  19.390  0.00  0.00    +0.000 C 
ATOM     30  C   UNL     1       1.372   4.257  19.926  0.00  0.00    +0.000 C 
ENDBRANCH  24  25
ENDBRANCH   9  24
TORSDOF 4
ENDMDL
