MODEL 1
REMARK VINA RESULT:      -8.7      0.000      0.000
REMARK  Name = 
REMARK  7 active torsions:
REMARK  status: ('A' for Active; 'I' for Inactive)
REMARK    1  A    between atoms: C_2  and  C_5
REMARK    2  A    between atoms: N_3  and  O_4
REMARK    3  A    between atoms: N_8  and  C_9
REMARK    4  A    between atoms: C_13  and  N_14
REMARK    5  A    between atoms: N_14  and  S_15
REMARK    6  A    between atoms: S_15  and  C_18
REMARK    7  A    between atoms: C_25  and  C_26
REMARK                            x       y       z     vdW  Elec       q    Type
REMARK                         _______ _______ _______ _____ _____    ______ ____
ROOT
ATOM      1  C   UNL     1       2.648   7.333  18.932  0.00  0.00    +0.000 A 
ATOM      2  C   UNL     1       2.589   8.168  17.808  0.00  0.00    +0.000 A 
ATOM      3  C   UNL     1       1.701   9.245  17.797  0.00  0.00    +0.000 A 
ATOM      4  C   UNL     1       0.878   9.488  18.900  0.00  0.00    +0.000 A 
ATOM      5  C   UNL     1       0.989   8.689  20.038  0.00  0.00    +0.000 A 
ATOM      6  C   UNL     1       1.905   7.645  20.073  0.00  0.00    +0.000 A 
ENDROOT
BRANCH   1  10
ATOM      7  C   UNL     1       4.190   4.076  19.167  0.00  0.00    +0.000 A 
ATOM      8  C   UNL     1       5.218   5.008  18.894  0.00  0.00    +0.000 A 
ATOM      9  N   UNL     1       4.764   6.239  18.664  0.00  0.00    +0.000 NA
ATOM     10  N   UNL     1       3.431   6.153  18.895  0.00  0.00    +0.000 N 
ATOM     11  C   UNL     1       3.031   4.835  19.102  0.00  0.00    +0.000 A 
BRANCH   7  13
ATOM     12  O   UNL     1       4.743   2.130  20.372  0.00  0.00    +0.000 OA
ATOM     13  C   UNL     1       4.387   2.644  19.312  0.00  0.00    +0.000 C 
ATOM     14  N   UNL     1       4.108   1.879  18.207  0.00  0.00    +0.000 N 
ATOM     15  H   UNL     1       3.459   2.196  17.497  0.00  0.00    +0.000 HD
BRANCH  14  16
ATOM     16  O   UNL     1       4.193   0.474  18.384  0.00  0.00    +0.000 OA
ATOM     17  H   UNL     1       3.977   0.135  17.487  0.00  0.00    +0.000 HD
ENDBRANCH  14  16
ENDBRANCH   7  13
BRANCH  11  18
ATOM     18  C   UNL     1       1.607   4.274  19.124  0.00  0.00    +0.000 C 
ATOM     19  C   UNL     1       1.226   2.979  19.787  0.00  0.00    +0.000 C 
ATOM     20  C   UNL     1       0.837   4.285  20.418  0.00  0.00    +0.000 C 
ENDBRANCH  11  18
ENDBRANCH   1  10
BRANCH   5  21
ATOM     21  N   UNL     1       0.172   8.900  21.179  0.00  0.00    +0.000 N 
ATOM     22  H   UNL     1      -0.822   8.695  21.100  0.00  0.00    +0.000 HD
BRANCH  21  23
ATOM     23  S   UNL     1       0.494  10.222  22.181  0.00  0.00    +0.000 S 
ATOM     24  O   UNL     1       0.546   9.710  23.534  0.00  0.00    +0.000 OA
ATOM     25  O   UNL     1       1.585  10.987  21.617  0.00  0.00    +0.000 OA
BRANCH  23  26
ATOM     26  C   UNL     1      -1.005  11.165  22.036  0.00  0.00    +0.000 A 
ATOM     27  C   UNL     1      -1.343  11.696  20.785  0.00  0.00    +0.000 A 
ATOM     28  C   UNL     1      -2.431  12.558  20.681  0.00  0.00    +0.000 A 
ATOM     29  C   UNL     1      -3.189  12.859  21.814  0.00  0.00    +0.000 A 
ATOM     30  C   UNL     1      -2.874  12.285  23.049  0.00  0.00    +0.000 A 
ATOM     31  C   UNL     1      -1.778  11.431  23.165  0.00  0.00    +0.000 A 
ENDBRANCH  23  26
ENDBRANCH  21  23
ENDBRANCH   5  21
TORSDOF 7
ENDMDL
MODEL 2
REMARK VINA RESULT:      -8.2      1.090      2.253
REMARK  Name = 
REMARK  7 active torsions:
REMARK  status: ('A' for Active; 'I' for Inactive)
REMARK    1  A    between atoms: C_2  and  C_5
REMARK    2  A    between atoms: N_3  and  O_4
REMARK    3  A    between atoms: N_8  and  C_9
REMARK    4  A    between atoms: C_13  and  N_14
REMARK    5  A    between atoms: N_14  and  S_15
REMARK    6  A    between atoms: S_15  and  C_18
REMARK    7  A    between atoms: C_25  and  C_26
REMARK                            x       y       z     vdW  Elec       q    Type
REMARK                         _______ _______ _______ _____ _____    ______ ____
ROOT
ATOM      1  C   UNL     1       2.175   7.161  19.528  0.00  0.00    +0.000 A 
ATOM      2  C   UNL     1       2.043   7.569  18.195  0.00  0.00    +0.000 A 
ATOM      3  C   UNL     1       1.579   8.854  17.911  0.00  0.00    +0.000 A 
ATOM      4  C   UNL     1       1.248   9.726  18.951  0.00  0.00    +0.000 A 
ATOM      5  C   UNL     1       1.441   9.333  20.275  0.00  0.00    +0.000 A 
ATOM      6  C   UNL     1       1.949   8.072  20.562  0.00  0.00    +0.000 A 
ENDROOT
BRANCH   1  10
ATOM      7  C   UNL     1       3.298   3.736  19.753  0.00  0.00    +0.000 A 
ATOM      8  C   UNL     1       2.177   3.866  20.606  0.00  0.00    +0.000 A 
ATOM      9  N   UNL     1       1.737   5.119  20.707  0.00  0.00    +0.000 NA
ATOM     10  N   UNL     1       2.500   5.815  19.827  0.00  0.00    +0.000 N 
ATOM     11  C   UNL     1       3.525   5.029  19.306  0.00  0.00    +0.000 A 
BRANCH   7  13
ATOM     12  O   UNL     1       4.957   2.174  20.349  0.00  0.00    +0.000 OA
ATOM     13  C   UNL     1       4.065   2.515  19.573  0.00  0.00    +0.000 C 
ATOM     14  N   UNL     1       3.707   1.727  18.507  0.00  0.00    +0.000 N 
ATOM     15  H   UNL     1       2.774   1.758  18.119  0.00  0.00    +0.000 HD
BRANCH  14  16
ATOM     16  O   UNL     1       4.381   0.483  18.399  0.00  0.00    +0.000 OA
ATOM     17  H   UNL     1       4.651   0.472  17.453  0.00  0.00    +0.000 HD
ENDBRANCH  14  16
ENDBRANCH   7  13
BRANCH  11  18
ATOM     18  C   UNL     1       4.750   5.485  18.509  0.00  0.00    +0.000 C 
ATOM     19  C   UNL     1       5.633   4.555  17.724  0.00  0.00    +0.000 C 
ATOM     20  C   UNL     1       4.688   5.473  17.004  0.00  0.00    +0.000 C 
ENDBRANCH  11  18
ENDBRANCH   1  10
BRANCH   5  21
ATOM     21  N   UNL     1       1.117  10.187  21.362  0.00  0.00    +0.000 N 
ATOM     22  H   UNL     1       1.880  10.655  21.846  0.00  0.00    +0.000 HD
BRANCH  21  23
ATOM     23  S   UNL     1      -0.150   9.753  22.392  0.00  0.00    +0.000 S 
ATOM     24  O   UNL     1      -0.836   8.648  21.756  0.00  0.00    +0.000 OA
ATOM     25  O   UNL     1       0.354   9.655  23.744  0.00  0.00    +0.000 OA
BRANCH  23  26
ATOM     26  C   UNL     1      -1.217  11.169  22.275  0.00  0.00    +0.000 A 
ATOM     27  C   UNL     1      -2.058  11.464  23.356  0.00  0.00    +0.000 A 
ATOM     28  C   UNL     1      -3.004  12.477  23.227  0.00  0.00    +0.000 A 
ATOM     29  C   UNL     1      -3.084  13.204  22.039  0.00  0.00    +0.000 A 
ATOM     30  C   UNL     1      -2.209  12.935  20.983  0.00  0.00    +0.000 A 
ATOM     31  C   UNL     1      -1.267  11.914  21.098  0.00  0.00    +0.000 A 
ENDBRANCH  23  26
ENDBRANCH  21  23
ENDBRANCH   5  21
TORSDOF 7
ENDMDL
MODEL 3
REMARK VINA RESULT:      -8.0      1.017      1.938
REMARK  Name = 
REMARK  7 active torsions:
REMARK  status: ('A' for Active; 'I' for Inactive)
REMARK    1  A    between atoms: C_2  and  C_5
REMARK    2  A    between atoms: N_3  and  O_4
REMARK    3  A    between atoms: N_8  and  C_9
REMARK    4  A    between atoms: C_13  and  N_14
REMARK    5  A    between atoms: N_14  and  S_15
REMARK    6  A    between atoms: S_15  and  C_18
REMARK    7  A    between atoms: C_25  and  C_26
REMARK                            x       y       z     vdW  Elec       q    Type
REMARK                         _______ _______ _______ _____ _____    ______ ____
ROOT
ATOM      1  C   UNL     1       2.237   7.235  19.427  0.00  0.00    +0.000 A 
ATOM      2  C   UNL     1       2.755   7.821  18.265  0.00  0.00    +0.000 A 
ATOM      3  C   UNL     1       2.268   9.059  17.842  0.00  0.00    +0.000 A 
ATOM      4  C   UNL     1       1.272   9.709  18.575  0.00  0.00    +0.000 A 
ATOM      5  C   UNL     1       0.807   9.148  19.764  0.00  0.00    +0.000 A 
ATOM      6  C   UNL     1       1.323   7.939  20.215  0.00  0.00    +0.000 A 
ENDROOT
BRANCH   1  10
ATOM      7  C   UNL     1       3.420   3.840  19.763  0.00  0.00    +0.000 A 
ATOM      8  C   UNL     1       2.412   4.031  20.737  0.00  0.00    +0.000 A 
ATOM      9  N   UNL     1       1.972   5.287  20.799  0.00  0.00    +0.000 NA
ATOM     10  N   UNL     1       2.612   5.916  19.782  0.00  0.00    +0.000 N 
ATOM     11  C   UNL     1       3.574   5.097  19.197  0.00  0.00    +0.000 A 
BRANCH   7  13
ATOM     12  O   UNL     1       5.116   2.299  20.306  0.00  0.00    +0.000 OA
ATOM     13  C   UNL     1       4.173   2.611  19.580  0.00  0.00    +0.000 C 
ATOM     14  N   UNL     1       3.744   1.782  18.573  0.00  0.00    +0.000 N 
ATOM     15  H   UNL     1       2.786   1.801  18.248  0.00  0.00    +0.000 HD
BRANCH  14  16
ATOM     16  O   UNL     1       4.409   0.533  18.468  0.00  0.00    +0.000 OA
ATOM     17  H   UNL     1       4.288   0.309  17.518  0.00  0.00    +0.000 HD
ENDBRANCH  14  16
ENDBRANCH   7  13
BRANCH  11  18
ATOM     18  C   UNL     1       4.685   5.494  18.222  0.00  0.00    +0.000 C 
ATOM     19  C   UNL     1       5.710   4.536  17.682  0.00  0.00    +0.000 C 
ATOM     20  C   UNL     1       4.605   5.028  16.792  0.00  0.00    +0.000 C 
ENDBRANCH  11  18
ENDBRANCH   1  10
BRANCH   5  21
ATOM     21  N   UNL     1      -0.205   9.774  20.539  0.00  0.00    +0.000 N 
ATOM     22  H   UNL     1      -1.066  10.045  20.070  0.00  0.00    +0.000 HD
BRANCH  21  23
ATOM     23  S   UNL     1       0.250  10.852  21.758  0.00  0.00    +0.000 S 
ATOM     24  O   UNL     1       0.490  10.056  22.942  0.00  0.00    +0.000 OA
ATOM     25  O   UNL     1       1.251  11.758  21.237  0.00  0.00    +0.000 OA
BRANCH  23  26
ATOM     26  C   UNL     1      -1.257  11.753  22.029  0.00  0.00    +0.000 A 
ATOM     27  C   UNL     1      -1.675  12.668  21.055  0.00  0.00    +0.000 A 
ATOM     28  C   UNL     1      -2.769  13.488  21.314  0.00  0.00    +0.000 A 
ATOM     29  C   UNL     1      -3.454  13.370  22.524  0.00  0.00    +0.000 A 
ATOM     30  C   UNL     1      -3.060  12.421  23.471  0.00  0.00    +0.000 A 
ATOM     31  C   UNL     1      -1.957  11.604  23.226  0.00  0.00    +0.000 A 
ENDBRANCH  23  26
ENDBRANCH  21  23
ENDBRANCH   5  21
TORSDOF 7
ENDMDL
MODEL 4
REMARK VINA RESULT:      -8.0      0.986      1.311
REMARK  Name = 
REMARK  7 active torsions:
REMARK  status: ('A' for Active; 'I' for Inactive)
REMARK    1  A    between atoms: C_2  and  C_5
REMARK    2  A    between atoms: N_3  and  O_4
REMARK    3  A    between atoms: N_8  and  C_9
REMARK    4  A    between atoms: C_13  and  N_14
REMARK    5  A    between atoms: N_14  and  S_15
REMARK    6  A    between atoms: S_15  and  C_18
REMARK    7  A    between atoms: C_25  and  C_26
REMARK                            x       y       z     vdW  Elec       q    Type
REMARK                         _______ _______ _______ _____ _____    ______ ____
ROOT
ATOM      1  C   UNL     1       2.716   7.255  18.926  0.00  0.00    +0.000 A 
ATOM      2  C   UNL     1       2.779   8.143  17.843  0.00  0.00    +0.000 A 
ATOM      3  C   UNL     1       1.908   9.232  17.794  0.00  0.00    +0.000 A 
ATOM      4  C   UNL     1       0.980   9.435  18.819  0.00  0.00    +0.000 A 
ATOM      5  C   UNL     1       0.966   8.583  19.922  0.00  0.00    +0.000 A 
ATOM      6  C   UNL     1       1.864   7.525  20.000  0.00  0.00    +0.000 A 
ENDROOT
BRANCH   1  10
ATOM      7  C   UNL     1       4.221   3.986  19.216  0.00  0.00    +0.000 A 
ATOM      8  C   UNL     1       5.262   4.904  18.949  0.00  0.00    +0.000 A 
ATOM      9  N   UNL     1       4.824   6.137  18.700  0.00  0.00    +0.000 NA
ATOM     10  N   UNL     1       3.487   6.067  18.913  0.00  0.00    +0.000 N 
ATOM     11  C   UNL     1       3.070   4.756  19.126  0.00  0.00    +0.000 A 
BRANCH   7  13
ATOM     12  O   UNL     1       4.722   2.045  20.452  0.00  0.00    +0.000 OA
ATOM     13  C   UNL     1       4.400   2.553  19.378  0.00  0.00    +0.000 C 
ATOM     14  N   UNL     1       4.145   1.781  18.272  0.00  0.00    +0.000 N 
ATOM     15  H   UNL     1       3.520   2.098  17.542  0.00  0.00    +0.000 HD
BRANCH  14  16
ATOM     16  O   UNL     1       4.212   0.377  18.463  0.00  0.00    +0.000 OA
ATOM     17  H   UNL     1       4.799   0.092  17.728  0.00  0.00    +0.000 HD
ENDBRANCH  14  16
ENDBRANCH   7  13
BRANCH  11  18
ATOM     18  C   UNL     1       1.640   4.209  19.134  0.00  0.00    +0.000 C 
ATOM     19  C   UNL     1       1.255   2.874  19.707  0.00  0.00    +0.000 C 
ATOM     20  C   UNL     1       0.893   4.133  20.439  0.00  0.00    +0.000 C 
ENDBRANCH  11  18
ENDBRANCH   1  10
BRANCH   5  21
ATOM     21  N   UNL     1       0.039   8.753  20.984  0.00  0.00    +0.000 N 
ATOM     22  H   UNL     1      -0.953   8.675  20.769  0.00  0.00    +0.000 HD
BRANCH  21  23
ATOM     23  S   UNL     1       0.368   9.901  22.179  0.00  0.00    +0.000 S 
ATOM     24  O   UNL     1      -0.650   9.739  23.196  0.00  0.00    +0.000 OA
ATOM     25  O   UNL     1       1.777   9.855  22.503  0.00  0.00    +0.000 OA
BRANCH  23  26
ATOM     26  C   UNL     1       0.021  11.422  21.329  0.00  0.00    +0.000 A 
ATOM     27  C   UNL     1       1.089  12.273  21.018  0.00  0.00    +0.000 A 
ATOM     28  C   UNL     1       0.825  13.532  20.487  0.00  0.00    +0.000 A 
ATOM     29  C   UNL     1      -0.493  13.921  20.244  0.00  0.00    +0.000 A 
ATOM     30  C   UNL     1      -1.549  13.046  20.512  0.00  0.00    +0.000 A 
ATOM     31  C   UNL     1      -1.296  11.788  21.056  0.00  0.00    +0.000 A 
ENDBRANCH  23  26
ENDBRANCH  21  23
ENDBRANCH   5  21
TORSDOF 7
ENDMDL
MODEL 5
REMARK VINA RESULT:      -7.9      1.141      1.604
REMARK  Name = 
REMARK  7 active torsions:
REMARK  status: ('A' for Active; 'I' for Inactive)
REMARK    1  A    between atoms: C_2  and  C_5
REMARK    2  A    between atoms: N_3  and  O_4
REMARK    3  A    between atoms: N_8  and  C_9
REMARK    4  A    between atoms: C_13  and  N_14
REMARK    5  A    between atoms: N_14  and  S_15
REMARK    6  A    between atoms: S_15  and  C_18
REMARK    7  A    between atoms: C_25  and  C_26
REMARK                            x       y       z     vdW  Elec       q    Type
REMARK                         _______ _______ _______ _____ _____    ______ ____
ROOT
ATOM      1  C   UNL     1       2.653   7.242  18.809  0.00  0.00    +0.000 A 
ATOM      2  C   UNL     1       2.677   8.169  17.760  0.00  0.00    +0.000 A 
ATOM      3  C   UNL     1       1.822   9.272  17.795  0.00  0.00    +0.000 A 
ATOM      4  C   UNL     1       0.949   9.448  18.872  0.00  0.00    +0.000 A 
ATOM      5  C   UNL     1       0.976   8.554  19.942  0.00  0.00    +0.000 A 
ATOM      6  C   UNL     1       1.859   7.481  19.934  0.00  0.00    +0.000 A 
ENDROOT
BRANCH   1  10
ATOM      7  C   UNL     1       4.136   3.951  18.928  0.00  0.00    +0.000 A 
ATOM      8  C   UNL     1       5.158   4.859  18.565  0.00  0.00    +0.000 A 
ATOM      9  N   UNL     1       4.714   6.099  18.369  0.00  0.00    +0.000 NA
ATOM     10  N   UNL     1       3.403   6.044  18.712  0.00  0.00    +0.000 N 
ATOM     11  C   UNL     1       2.992   4.736  18.958  0.00  0.00    +0.000 A 
BRANCH   7  13
ATOM     12  O   UNL     1       3.833   1.713  18.263  0.00  0.00    +0.000 OA
ATOM     13  C   UNL     1       4.312   2.515  19.063  0.00  0.00    +0.000 C 
ATOM     14  N   UNL     1       5.089   2.097  20.115  0.00  0.00    +0.000 N 
ATOM     15  H   UNL     1       5.794   2.698  20.520  0.00  0.00    +0.000 HD
BRANCH  14  16
ATOM     16  O   UNL     1       5.352   0.704  20.179  0.00  0.00    +0.000 OA
ATOM     17  H   UNL     1       4.822   0.355  19.428  0.00  0.00    +0.000 HD
ENDBRANCH  14  16
ENDBRANCH   7  13
BRANCH  11  18
ATOM     18  C   UNL     1       1.563   4.208  19.103  0.00  0.00    +0.000 C 
ATOM     19  C   UNL     1       1.214   2.906  19.769  0.00  0.00    +0.000 C 
ATOM     20  C   UNL     1       0.920   4.203  20.465  0.00  0.00    +0.000 C 
ENDBRANCH  11  18
ENDBRANCH   1  10
BRANCH   5  21
ATOM     21  N   UNL     1       0.106   8.696  21.054  0.00  0.00    +0.000 N 
ATOM     22  H   UNL     1      -0.894   8.592  20.895  0.00  0.00    +0.000 HD
BRANCH  21  23
ATOM     23  S   UNL     1       0.469   9.849  22.234  0.00  0.00    +0.000 S 
ATOM     24  O   UNL     1      -0.537   9.712  23.267  0.00  0.00    +0.000 OA
ATOM     25  O   UNL     1       1.882   9.783  22.539  0.00  0.00    +0.000 OA
BRANCH  23  26
ATOM     26  C   UNL     1       0.135  11.368  21.376  0.00  0.00    +0.000 A 
ATOM     27  C   UNL     1      -1.188  11.657  21.017  0.00  0.00    +0.000 A 
ATOM     28  C   UNL     1      -1.451  12.766  20.218  0.00  0.00    +0.000 A 
ATOM     29  C   UNL     1      -0.403  13.590  19.808  0.00  0.00    +0.000 A 
ATOM     30  C   UNL     1       0.908  13.322  20.211  0.00  0.00    +0.000 A 
ATOM     31  C   UNL     1       1.183  12.207  21.001  0.00  0.00    +0.000 A 
ENDBRANCH  23  26
ENDBRANCH  21  23
ENDBRANCH   5  21
TORSDOF 7
ENDMDL
MODEL 6
REMARK VINA RESULT:      -7.8      2.822      8.912
REMARK  Name = 
REMARK  7 active torsions:
REMARK  status: ('A' for Active; 'I' for Inactive)
REMARK    1  A    between atoms: C_2  and  C_5
REMARK    2  A    between atoms: N_3  and  O_4
REMARK    3  A    between atoms: N_8  and  C_9
REMARK    4  A    between atoms: C_13  and  N_14
REMARK    5  A    between atoms: N_14  and  S_15
REMARK    6  A    between atoms: S_15  and  C_18
REMARK    7  A    between atoms: C_25  and  C_26
REMARK                            x       y       z     vdW  Elec       q    Type
REMARK                         _______ _______ _______ _____ _____    ______ ____
ROOT
ATOM      1  C   UNL     1       1.187   9.243  19.480  0.00  0.00    +0.000 A 
ATOM      2  C   UNL     1       1.585   9.432  18.150  0.00  0.00    +0.000 A 
ATOM      3  C   UNL     1       2.440   8.507  17.549  0.00  0.00    +0.000 A 
ATOM      4  C   UNL     1       2.895   7.400  18.270  0.00  0.00    +0.000 A 
ATOM      5  C   UNL     1       2.443   7.187  19.572  0.00  0.00    +0.000 A 
ATOM      6  C   UNL     1       1.554   8.078  20.158  0.00  0.00    +0.000 A 
ENDROOT
BRANCH   1  10
ATOM      7  C   UNL     1      -1.013  11.856  20.651  0.00  0.00    +0.000 A 
ATOM      8  C   UNL     1       0.136  11.875  21.474  0.00  0.00    +0.000 A 
ATOM      9  N   UNL     1       0.980  10.876  21.222  0.00  0.00    +0.000 NA
ATOM     10  N   UNL     1       0.445  10.249  20.146  0.00  0.00    +0.000 N 
ATOM     11  C   UNL     1      -0.816  10.751  19.835  0.00  0.00    +0.000 A 
BRANCH   7  13
ATOM     12  O   UNL     1      -3.091  12.483  21.564  0.00  0.00    +0.000 OA
ATOM     13  C   UNL     1      -2.158  12.738  20.804  0.00  0.00    +0.000 C 
ATOM     14  N   UNL     1      -2.122  13.907  20.085  0.00  0.00    +0.000 N 
ATOM     15  H   UNL     1      -1.246  14.319  19.793  0.00  0.00    +0.000 HD
BRANCH  14  16
ATOM     16  O   UNL     1      -3.186  14.816  20.322  0.00  0.00    +0.000 OA
ATOM     17  H   UNL     1      -3.450  15.072  19.410  0.00  0.00    +0.000 HD
ENDBRANCH  14  16
ENDBRANCH   7  13
BRANCH  11  18
ATOM     18  C   UNL     1      -1.861  10.157  18.888  0.00  0.00    +0.000 C 
ATOM     19  C   UNL     1      -2.873  10.975  18.134  0.00  0.00    +0.000 C 
ATOM     20  C   UNL     1      -1.709  10.369  17.405  0.00  0.00    +0.000 C 
ENDBRANCH  11  18
ENDBRANCH   1  10
BRANCH   5  21
ATOM     21  N   UNL     1       2.881   6.076  20.340  0.00  0.00    +0.000 N 
ATOM     22  H   UNL     1       3.740   6.174  20.876  0.00  0.00    +0.000 HD
BRANCH  21  23
ATOM     23  S   UNL     1       2.666   4.519  19.720  0.00  0.00    +0.000 S 
ATOM     24  O   UNL     1       2.916   3.603  20.814  0.00  0.00    +0.000 OA
ATOM     25  O   UNL     1       1.434   4.478  18.964  0.00  0.00    +0.000 OA
BRANCH  23  26
ATOM     26  C   UNL     1       4.036   4.380  18.598  0.00  0.00    +0.000 A 
ATOM     27  C   UNL     1       5.311   4.744  19.050  0.00  0.00    +0.000 A 
ATOM     28  C   UNL     1       6.369   4.783  18.146  0.00  0.00    +0.000 A 
ATOM     29  C   UNL     1       6.156   4.432  16.812  0.00  0.00    +0.000 A 
ATOM     30  C   UNL     1       4.892   4.022  16.381  0.00  0.00    +0.000 A 
ATOM     31  C   UNL     1       3.823   3.992  17.275  0.00  0.00    +0.000 A 
ENDBRANCH  23  26
ENDBRANCH  21  23
ENDBRANCH   5  21
TORSDOF 7
ENDMDL
MODEL 7
REMARK VINA RESULT:      -7.8      1.233      2.335
REMARK  Name = 
REMARK  7 active torsions:
REMARK  status: ('A' for Active; 'I' for Inactive)
REMARK    1  A    between atoms: C_2  and  C_5
REMARK    2  A    between atoms: N_3  and  O_4
REMARK    3  A    between atoms: N_8  and  C_9
REMARK    4  A    between atoms: C_13  and  N_14
REMARK    5  A    between atoms: N_14  and  S_15
REMARK    6  A    between atoms: S_15  and  C_18
REMARK    7  A    between atoms: C_25  and  C_26
REMARK                            x       y       z     vdW  Elec       q    Type
REMARK                         _______ _______ _______ _____ _____    ______ ____
ROOT
ATOM      1  C   UNL     1       2.290   7.212  19.374  0.00  0.00    +0.000 A 
ATOM      2  C   UNL     1       2.652   7.690  18.108  0.00  0.00    +0.000 A 
ATOM      3  C   UNL     1       2.201   8.943  17.690  0.00  0.00    +0.000 A 
ATOM      4  C   UNL     1       1.393   9.714  18.530  0.00  0.00    +0.000 A 
ATOM      5  C   UNL     1       1.089   9.257  19.812  0.00  0.00    +0.000 A 
ATOM      6  C   UNL     1       1.576   8.032  20.251  0.00  0.00    +0.000 A 
ENDROOT
BRANCH   1  10
ATOM      7  C   UNL     1       3.402   3.801  19.786  0.00  0.00    +0.000 A 
ATOM      8  C   UNL     1       2.298   3.989  20.650  0.00  0.00    +0.000 A 
ATOM      9  N   UNL     1       1.865   5.248  20.682  0.00  0.00    +0.000 NA
ATOM     10  N   UNL     1       2.614   5.885  19.748  0.00  0.00    +0.000 N 
ATOM     11  C   UNL     1       3.627   5.064  19.258  0.00  0.00    +0.000 A 
BRANCH   7  13
ATOM     12  O   UNL     1       5.060   2.267  20.451  0.00  0.00    +0.000 OA
ATOM     13  C   UNL     1       4.161   2.568  19.667  0.00  0.00    +0.000 C 
ATOM     14  N   UNL     1       3.787   1.723  18.651  0.00  0.00    +0.000 N 
ATOM     15  H   UNL     1       2.849   1.738  18.272  0.00  0.00    +0.000 HD
BRANCH  14  16
ATOM     16  O   UNL     1       4.453   0.471  18.606  0.00  0.00    +0.000 OA
ATOM     17  H   UNL     1       4.615   0.284  19.558  0.00  0.00    +0.000 HD
ENDBRANCH  14  16
ENDBRANCH   7  13
BRANCH  11  18
ATOM     18  C   UNL     1       4.838   5.464  18.412  0.00  0.00    +0.000 C 
ATOM     19  C   UNL     1       5.740   4.479  17.720  0.00  0.00    +0.000 C 
ATOM     20  C   UNL     1       4.772   5.299  16.916  0.00  0.00    +0.000 C 
ENDBRANCH  11  18
ENDBRANCH   1  10
BRANCH   5  21
ATOM     21  N   UNL     1       0.270  10.007  20.696  0.00  0.00    +0.000 N 
ATOM     22  H   UNL     1      -0.639   9.626  20.946  0.00  0.00    +0.000 HD
BRANCH  21  23
ATOM     23  S   UNL     1       0.267  11.693  20.574  0.00  0.00    +0.000 S 
ATOM     24  O   UNL     1       1.394  12.163  21.351  0.00  0.00    +0.000 OA
ATOM     25  O   UNL     1       0.095  12.064  19.186  0.00  0.00    +0.000 OA
BRANCH  23  26
ATOM     26  C   UNL     1      -1.204  12.122  21.472  0.00  0.00    +0.000 A 
ATOM     27  C   UNL     1      -1.315  11.714  22.807  0.00  0.00    +0.000 A 
ATOM     28  C   UNL     1      -2.517  11.910  23.482  0.00  0.00    +0.000 A 
ATOM     29  C   UNL     1      -3.583  12.535  22.834  0.00  0.00    +0.000 A 
ATOM     30  C   UNL     1      -3.447  12.983  21.517  0.00  0.00    +0.000 A 
ATOM     31  C   UNL     1      -2.252  12.779  20.829  0.00  0.00    +0.000 A 
ENDBRANCH  23  26
ENDBRANCH  21  23
ENDBRANCH   5  21
TORSDOF 7
ENDMDL
MODEL 8
REMARK VINA RESULT:      -7.7      2.541      3.284
REMARK  Name = 
REMARK  7 active torsions:
REMARK  status: ('A' for Active; 'I' for Inactive)
REMARK    1  A    between atoms: C_2  and  C_5
REMARK    2  A    between atoms: N_3  and  O_4
REMARK    3  A    between atoms: N_8  and  C_9
REMARK    4  A    between atoms: C_13  and  N_14
REMARK    5  A    between atoms: N_14  and  S_15
REMARK    6  A    between atoms: S_15  and  C_18
REMARK    7  A    between atoms: C_25  and  C_26
REMARK                            x       y       z     vdW  Elec       q    Type
REMARK                         _______ _______ _______ _____ _____    ______ ____
ROOT
ATOM      1  C   UNL     1       1.951   7.571  19.660  0.00  0.00    +0.000 A 
ATOM      2  C   UNL     1       1.736   7.707  21.037  0.00  0.00    +0.000 A 
ATOM      3  C   UNL     1       1.140   8.869  21.529  0.00  0.00    +0.000 A 
ATOM      4  C   UNL     1       0.760   9.889  20.652  0.00  0.00    +0.000 A 
ATOM      5  C   UNL     1       0.922   9.718  19.277  0.00  0.00    +0.000 A 
ATOM      6  C   UNL     1       1.470   8.543  18.779  0.00  0.00    +0.000 A 
ENDROOT
BRANCH   1  10
ATOM      7  C   UNL     1       3.642   4.470  18.904  0.00  0.00    +0.000 A 
ATOM      8  C   UNL     1       4.295   5.492  18.177  0.00  0.00    +0.000 A 
ATOM      9  N   UNL     1       3.692   6.675  18.275  0.00  0.00    +0.000 NA
ATOM     10  N   UNL     1       2.690   6.468  19.165  0.00  0.00    +0.000 N 
ATOM     11  C   UNL     1       2.564   5.120  19.490  0.00  0.00    +0.000 A 
BRANCH   7  13
ATOM     12  O   UNL     1       3.704   2.336  17.912  0.00  0.00    +0.000 OA
ATOM     13  C   UNL     1       3.999   3.063  18.860  0.00  0.00    +0.000 C 
ATOM     14  N   UNL     1       4.732   2.590  19.920  0.00  0.00    +0.000 N 
ATOM     15  H   UNL     1       5.311   3.206  20.476  0.00  0.00    +0.000 HD
BRANCH  14  16
ATOM     16  O   UNL     1       5.175   1.246  19.821  0.00  0.00    +0.000 OA
ATOM     17  H   UNL     1       5.828   1.293  19.088  0.00  0.00    +0.000 HD
ENDBRANCH  14  16
ENDBRANCH   7  13
BRANCH  11  18
ATOM     18  C   UNL     1       1.414   4.430  20.228  0.00  0.00    +0.000 C 
ATOM     19  C   UNL     1       1.184   2.944  20.222  0.00  0.00    +0.000 C 
ATOM     20  C   UNL     1       1.719   3.612  21.456  0.00  0.00    +0.000 C 
ENDBRANCH  11  18
ENDBRANCH   1  10
BRANCH   5  21
ATOM     21  N   UNL     1       0.551  10.728  18.351  0.00  0.00    +0.000 N 
ATOM     22  H   UNL     1       1.289  11.178  17.814  0.00  0.00    +0.000 HD
BRANCH  21  23
ATOM     23  S   UNL     1      -0.708  11.781  18.753  0.00  0.00    +0.000 S 
ATOM     24  O   UNL     1      -1.052  11.504  20.132  0.00  0.00    +0.000 OA
ATOM     25  O   UNL     1      -0.365  13.116  18.312  0.00  0.00    +0.000 OA
BRANCH  23  26
ATOM     26  C   UNL     1      -2.036  11.164  17.747  0.00  0.00    +0.000 A 
ATOM     27  C   UNL     1      -1.754  10.168  16.805  0.00  0.00    +0.000 A 
ATOM     28  C   UNL     1      -2.745   9.777  15.909  0.00  0.00    +0.000 A 
ATOM     29  C   UNL     1      -4.012  10.359  15.978  0.00  0.00    +0.000 A 
ATOM     30  C   UNL     1      -4.298  11.317  16.953  0.00  0.00    +0.000 A 
ATOM     31  C   UNL     1      -3.309  11.724  17.846  0.00  0.00    +0.000 A 
ENDBRANCH  23  26
ENDBRANCH  21  23
ENDBRANCH   5  21
TORSDOF 7
ENDMDL
MODEL 9
REMARK VINA RESULT:      -7.7      1.202      2.251
REMARK  Name = 
REMARK  7 active torsions:
REMARK  status: ('A' for Active; 'I' for Inactive)
REMARK    1  A    between atoms: C_2  and  C_5
REMARK    2  A    between atoms: N_3  and  O_4
REMARK    3  A    between atoms: N_8  and  C_9
REMARK    4  A    between atoms: C_13  and  N_14
REMARK    5  A    between atoms: N_14  and  S_15
REMARK    6  A    between atoms: S_15  and  C_18
REMARK    7  A    between atoms: C_25  and  C_26
REMARK                            x       y       z     vdW  Elec       q    Type
REMARK                         _______ _______ _______ _____ _____    ______ ____
ROOT
ATOM      1  C   UNL     1       2.155   7.211  19.438  0.00  0.00    +0.000 A 
ATOM      2  C   UNL     1       2.733   7.760  18.286  0.00  0.00    +0.000 A 
ATOM      3  C   UNL     1       2.337   9.025  17.852  0.00  0.00    +0.000 A 
ATOM      4  C   UNL     1       1.369   9.739  18.563  0.00  0.00    +0.000 A 
ATOM      5  C   UNL     1       0.844   9.212  19.743  0.00  0.00    +0.000 A 
ATOM      6  C   UNL     1       1.271   7.974  20.206  0.00  0.00    +0.000 A 
ENDROOT
BRANCH   1  10
ATOM      7  C   UNL     1       3.116   3.750  19.804  0.00  0.00    +0.000 A 
ATOM      8  C   UNL     1       2.090   4.001  20.744  0.00  0.00    +0.000 A 
ATOM      9  N   UNL     1       1.726   5.281  20.795  0.00  0.00    +0.000 NA
ATOM     10  N   UNL     1       2.437   5.871  19.802  0.00  0.00    +0.000 N 
ATOM     11  C   UNL     1       3.366   4.995  19.247  0.00  0.00    +0.000 A 
BRANCH   7  13
ATOM     12  O   UNL     1       3.557   1.711  18.711  0.00  0.00    +0.000 OA
ATOM     13  C   UNL     1       3.799   2.477  19.643  0.00  0.00    +0.000 C 
ATOM     14  N   UNL     1       4.771   2.190  20.569  0.00  0.00    +0.000 N 
ATOM     15  H   UNL     1       5.256   2.924  21.069  0.00  0.00    +0.000 HD
BRANCH  14  16
ATOM     16  O   UNL     1       5.512   1.000  20.345  0.00  0.00    +0.000 OA
ATOM     17  H   UNL     1       5.677   0.680  21.260  0.00  0.00    +0.000 HD
ENDBRANCH  14  16
ENDBRANCH   7  13
BRANCH  11  18
ATOM     18  C   UNL     1       4.531   5.324  18.310  0.00  0.00    +0.000 C 
ATOM     19  C   UNL     1       5.438   4.290  17.703  0.00  0.00    +0.000 C 
ATOM     20  C   UNL     1       4.414   4.980  16.849  0.00  0.00    +0.000 C 
ENDBRANCH  11  18
ENDBRANCH   1  10
BRANCH   5  21
ATOM     21  N   UNL     1      -0.141   9.904  20.496  0.00  0.00    +0.000 N 
ATOM     22  H   UNL     1      -0.971  10.233  20.007  0.00  0.00    +0.000 HD
BRANCH  21  23
ATOM     23  S   UNL     1       0.356  10.947  21.729  0.00  0.00    +0.000 S 
ATOM     24  O   UNL     1       0.603  10.120  22.891  0.00  0.00    +0.000 OA
ATOM     25  O   UNL     1       1.364  11.845  21.209  0.00  0.00    +0.000 OA
BRANCH  23  26
ATOM     26  C   UNL     1      -1.129  11.868  22.048  0.00  0.00    +0.000 A 
ATOM     27  C   UNL     1      -1.845  11.598  23.221  0.00  0.00    +0.000 A 
ATOM     28  C   UNL     1      -3.084  12.201  23.418  0.00  0.00    +0.000 A 
ATOM     29  C   UNL     1      -3.584  13.088  22.463  0.00  0.00    +0.000 A 
ATOM     30  C   UNL     1      -2.840  13.389  21.319  0.00  0.00    +0.000 A 
ATOM     31  C   UNL     1      -1.605  12.780  21.107  0.00  0.00    +0.000 A 
ENDBRANCH  23  26
ENDBRANCH  21  23
ENDBRANCH   5  21
TORSDOF 7
ENDMDL
