MODEL 1
REMARK VINA RESULT:      -6.9      0.000      0.000
REMARK  Name = 
REMARK  4 active torsions:
REMARK  status: ('A' for Active; 'I' for Inactive)
REMARK    1  A    between atoms: C_7  and  C_8
REMARK    2  A    between atoms: C_8  and  O_9
REMARK    3  A    between atoms: N_11  and  C_12
REMARK    4  A    between atoms: C_12  and  C_13
REMARK                            x       y       z     vdW  Elec       q    Type
REMARK                         _______ _______ _______ _____ _____    ______ ____
ROOT
ATOM      1  O   UNL     1       2.288   3.841  17.267  0.00  0.00    +0.000 OA
ATOM      2  S   UNL     1       3.675   3.781  17.684  0.00  0.00    +0.000 S 
ATOM      3  O   UNL     1       4.186   2.597  18.349  0.00  0.00    +0.000 OA
ATOM      4  C   UNL     1       4.671   4.119  16.258  0.00  0.00    +0.000 C 
ATOM      5  C   UNL     1       6.127   4.301  16.602  0.00  0.00    +0.000 C 
ATOM      6  O   UNL     1       6.356   5.643  17.011  0.00  0.00    +0.000 OA
ATOM      7  C   UNL     1       6.382   5.893  18.425  0.00  0.00    +0.000 C 
ATOM      8  C   UNL     1       5.352   5.150  19.298  0.00  0.00    +0.000 C 
ATOM      9  N   UNL     1       3.966   5.120  18.716  0.00  0.00    +0.000 NA
ENDROOT
BRANCH   7  10
ATOM     10  C   UNL     1       7.799   5.588  18.953  0.00  0.00    +0.000 C 
BRANCH  10  11
ATOM     11  O   UNL     1       7.813   5.535  20.376  0.00  0.00    +0.000 OA
ATOM     12  H   UNL     1       8.532   4.922  20.621  0.00  0.00    +0.000 HD
ENDBRANCH  10  11
ENDBRANCH   7  10
BRANCH   9  13
ATOM     13  C   UNL     1       2.900   5.206  19.774  0.00  0.00    +0.000 C 
BRANCH  13  14
ATOM     14  C   UNL     1       2.286   6.584  19.908  0.00  0.00    +0.000 A 
ATOM     15  C   UNL     1       1.563   6.931  21.057  0.00  0.00    +0.000 A 
ATOM     16  C   UNL     1       0.930   8.173  21.145  0.00  0.00    +0.000 A 
ATOM     17  C   UNL     1       1.020   9.087  20.092  0.00  0.00    +0.000 A 
ATOM     18 CL   UNL     1       0.157  10.576  20.241  0.00  0.00    +0.000 Cl
ATOM     19  C   UNL     1       1.775   8.768  18.959  0.00  0.00    +0.000 A 
ATOM     20 CL   UNL     1       1.950   9.851  17.624  0.00  0.00    +0.000 Cl
ATOM     21  C   UNL     1       2.410   7.525  18.872  0.00  0.00    +0.000 A 
ENDBRANCH  13  14
ENDBRANCH   9  13
TORSDOF 4
ENDMDL
MODEL 2
REMARK VINA RESULT:      -6.7      0.874      1.647
REMARK  Name = 
REMARK  4 active torsions:
REMARK  status: ('A' for Active; 'I' for Inactive)
REMARK    1  A    between atoms: C_7  and  C_8
REMARK    2  A    between atoms: C_8  and  O_9
REMARK    3  A    between atoms: N_11  and  C_12
REMARK    4  A    between atoms: C_12  and  C_13
REMARK                            x       y       z     vdW  Elec       q    Type
REMARK                         _______ _______ _______ _____ _____    ______ ____
ROOT
ATOM      1  O   UNL     1       2.234   3.987  17.616  0.00  0.00    +0.000 OA
ATOM      2  S   UNL     1       3.634   4.016  17.991  0.00  0.00    +0.000 S 
ATOM      3  O   UNL     1       4.164   3.025  18.909  0.00  0.00    +0.000 OA
ATOM      4  C   UNL     1       4.582   3.985  16.495  0.00  0.00    +0.000 C 
ATOM      5  C   UNL     1       6.050   4.231  16.737  0.00  0.00    +0.000 C 
ATOM      6  O   UNL     1       6.295   5.629  16.799  0.00  0.00    +0.000 OA
ATOM      7  C   UNL     1       6.368   6.218  18.106  0.00  0.00    +0.000 C 
ATOM      8  C   UNL     1       5.366   5.720  19.167  0.00  0.00    +0.000 C 
ATOM      9  N   UNL     1       3.962   5.563  18.655  0.00  0.00    +0.000 NA
ENDROOT
BRANCH   7  10
ATOM     10  C   UNL     1       7.801   6.035  18.648  0.00  0.00    +0.000 C 
BRANCH  10  11
ATOM     11  O   UNL     1       7.801   5.264  19.845  0.00  0.00    +0.000 OA
ATOM     12  H   UNL     1       8.737   5.102  20.068  0.00  0.00    +0.000 HD
ENDBRANCH  10  11
ENDBRANCH   7  10
BRANCH   9  13
ATOM     13  C   UNL     1       2.932   5.916  19.693  0.00  0.00    +0.000 C 
BRANCH  13  14
ATOM     14  C   UNL     1       2.252   7.247  19.447  0.00  0.00    +0.000 A 
ATOM     15  C   UNL     1       2.277   7.833  18.175  0.00  0.00    +0.000 A 
ATOM     16  C   UNL     1       1.719   9.097  17.968  0.00  0.00    +0.000 A 
ATOM     17  C   UNL     1       1.120   9.786  19.026  0.00  0.00    +0.000 A 
ATOM     18 CL   UNL     1       0.510  11.371  18.713  0.00  0.00    +0.000 Cl
ATOM     19  C   UNL     1       1.050   9.190  20.289  0.00  0.00    +0.000 A 
ATOM     20 CL   UNL     1       0.308   9.968  21.643  0.00  0.00    +0.000 Cl
ATOM     21  C   UNL     1       1.607   7.925  20.495  0.00  0.00    +0.000 A 
ENDBRANCH  13  14
ENDBRANCH   9  13
TORSDOF 4
ENDMDL
MODEL 3
REMARK VINA RESULT:      -6.6      2.081      3.831
REMARK  Name = 
REMARK  4 active torsions:
REMARK  status: ('A' for Active; 'I' for Inactive)
REMARK    1  A    between atoms: C_7  and  C_8
REMARK    2  A    between atoms: C_8  and  O_9
REMARK    3  A    between atoms: N_11  and  C_12
REMARK    4  A    between atoms: C_12  and  C_13
REMARK                            x       y       z     vdW  Elec       q    Type
REMARK                         _______ _______ _______ _____ _____    ______ ____
ROOT
ATOM      1  O   UNL     1       5.938   6.601  17.772  0.00  0.00    +0.000 OA
ATOM      2  S   UNL     1       4.932   5.559  17.722  0.00  0.00    +0.000 S 
ATOM      3  O   UNL     1       4.618   4.907  16.464  0.00  0.00    +0.000 OA
ATOM      4  C   UNL     1       5.387   4.328  18.913  0.00  0.00    +0.000 C 
ATOM      5  C   UNL     1       4.309   3.294  19.115  0.00  0.00    +0.000 C 
ATOM      6  O   UNL     1       3.359   3.775  20.057  0.00  0.00    +0.000 OA
ATOM      7  C   UNL     1       2.164   4.368  19.526  0.00  0.00    +0.000 C 
ATOM      8  C   UNL     1       2.307   5.267  18.282  0.00  0.00    +0.000 C 
ATOM      9  N   UNL     1       3.474   6.213  18.343  0.00  0.00    +0.000 NA
ENDROOT
BRANCH   7  10
ATOM     10  C   UNL     1       1.153   3.244  19.218  0.00  0.00    +0.000 C 
BRANCH  10  11
ATOM     11  O   UNL     1       0.380   2.921  20.370  0.00  0.00    +0.000 OA
ATOM     12  H   UNL     1       0.972   3.034  21.138  0.00  0.00    +0.000 HD
ENDBRANCH  10  11
ENDBRANCH   7  10
BRANCH   9  13
ATOM     13  C   UNL     1       3.173   7.533  17.689  0.00  0.00    +0.000 C 
BRANCH  13  14
ATOM     14  C   UNL     1       2.110   8.340  18.407  0.00  0.00    +0.000 A 
ATOM     15  C   UNL     1       1.289   9.225  17.697  0.00  0.00    +0.000 A 
ATOM     16  C   UNL     1       0.364  10.026  18.371  0.00  0.00    +0.000 A 
ATOM     17  C   UNL     1       0.239   9.944  19.760  0.00  0.00    +0.000 A 
ATOM     18 CL   UNL     1      -0.877  11.011  20.533  0.00  0.00    +0.000 Cl
ATOM     19  C   UNL     1       1.023   9.032  20.474  0.00  0.00    +0.000 A 
ATOM     20 CL   UNL     1       0.914   8.857  22.190  0.00  0.00    +0.000 Cl
ATOM     21  C   UNL     1       1.947   8.229  19.798  0.00  0.00    +0.000 A 
ENDBRANCH  13  14
ENDBRANCH   9  13
TORSDOF 4
ENDMDL
MODEL 4
REMARK VINA RESULT:      -6.6      1.451      2.056
REMARK  Name = 
REMARK  4 active torsions:
REMARK  status: ('A' for Active; 'I' for Inactive)
REMARK    1  A    between atoms: C_7  and  C_8
REMARK    2  A    between atoms: C_8  and  O_9
REMARK    3  A    between atoms: N_11  and  C_12
REMARK    4  A    between atoms: C_12  and  C_13
REMARK                            x       y       z     vdW  Elec       q    Type
REMARK                         _______ _______ _______ _____ _____    ______ ____
ROOT
ATOM      1  O   UNL     1       1.314   4.066  18.600  0.00  0.00    +0.000 OA
ATOM      2  S   UNL     1       2.741   3.818  18.644  0.00  0.00    +0.000 S 
ATOM      3  O   UNL     1       3.284   2.844  19.573  0.00  0.00    +0.000 OA
ATOM      4  C   UNL     1       3.256   3.399  17.001  0.00  0.00    +0.000 C 
ATOM      5  C   UNL     1       4.756   3.329  16.867  0.00  0.00    +0.000 C 
ATOM      6  O   UNL     1       5.275   4.632  16.638  0.00  0.00    +0.000 OA
ATOM      7  C   UNL     1       5.790   5.334  17.780  0.00  0.00    +0.000 C 
ATOM      8  C   UNL     1       5.012   5.204  19.104  0.00  0.00    +0.000 C 
ATOM      9  N   UNL     1       3.521   5.315  18.951  0.00  0.00    +0.000 NA
ENDROOT
BRANCH   7  10
ATOM     10  C   UNL     1       7.249   4.893  18.011  0.00  0.00    +0.000 C 
BRANCH  10  11
ATOM     11  O   UNL     1       7.869   4.514  16.786  0.00  0.00    +0.000 OA
ATOM     12  H   UNL     1       8.377   5.291  16.484  0.00  0.00    +0.000 HD
ENDBRANCH  10  11
ENDBRANCH   7  10
BRANCH   9  13
ATOM     13  C   UNL     1       2.876   6.010  20.118  0.00  0.00    +0.000 C 
BRANCH  13  14
ATOM     14  C   UNL     1       2.199   7.315  19.750  0.00  0.00    +0.000 A 
ATOM     15  C   UNL     1       2.337   7.848  18.462  0.00  0.00    +0.000 A 
ATOM     16  C   UNL     1       1.778   9.090  18.148  0.00  0.00    +0.000 A 
ATOM     17  C   UNL     1       1.066   9.807  19.112  0.00  0.00    +0.000 A 
ATOM     18 CL   UNL     1       0.460  11.364  18.674  0.00  0.00    +0.000 Cl
ATOM     19  C   UNL     1       0.884   9.263  20.388  0.00  0.00    +0.000 A 
ATOM     20 CL   UNL     1      -0.000  10.079  21.629  0.00  0.00    +0.000 Cl
ATOM     21  C   UNL     1       1.442   8.020  20.701  0.00  0.00    +0.000 A 
ENDBRANCH  13  14
ENDBRANCH   9  13
TORSDOF 4
ENDMDL
MODEL 5
REMARK VINA RESULT:      -6.6      1.791      2.722
REMARK  Name = 
REMARK  4 active torsions:
REMARK  status: ('A' for Active; 'I' for Inactive)
REMARK    1  A    between atoms: C_7  and  C_8
REMARK    2  A    between atoms: C_8  and  O_9
REMARK    3  A    between atoms: N_11  and  C_12
REMARK    4  A    between atoms: C_12  and  C_13
REMARK                            x       y       z     vdW  Elec       q    Type
REMARK                         _______ _______ _______ _____ _____    ______ ____
ROOT
ATOM      1  O   UNL     1       0.714   3.894  20.373  0.00  0.00    +0.000 OA
ATOM      2  S   UNL     1       2.049   3.626  19.877  0.00  0.00    +0.000 S 
ATOM      3  O   UNL     1       3.017   2.947  20.717  0.00  0.00    +0.000 OA
ATOM      4  C   UNL     1       1.877   2.735  18.355  0.00  0.00    +0.000 C 
ATOM      5  C   UNL     1       3.187   2.583  17.624  0.00  0.00    +0.000 C 
ATOM      6  O   UNL     1       3.438   3.748  16.850  0.00  0.00    +0.000 OA
ATOM      7  C   UNL     1       4.308   4.734  17.426  0.00  0.00    +0.000 C 
ATOM      8  C   UNL     1       4.162   5.017  18.934  0.00  0.00    +0.000 C 
ATOM      9  N   UNL     1       2.738   5.123  19.401  0.00  0.00    +0.000 NA
ENDROOT
BRANCH   7  10
ATOM     10  C   UNL     1       5.769   4.335  17.131  0.00  0.00    +0.000 C 
BRANCH  10  11
ATOM     11  O   UNL     1       6.449   3.968  18.326  0.00  0.00    +0.000 OA
ATOM     12  H   UNL     1       7.395   3.903  18.095  0.00  0.00    +0.000 HD
ENDBRANCH  10  11
ENDBRANCH   7  10
BRANCH   9  13
ATOM     13  C   UNL     1       2.568   6.146  20.491  0.00  0.00    +0.000 C 
BRANCH  13  14
ATOM     14  C   UNL     1       1.962   7.449  20.013  0.00  0.00    +0.000 A 
ATOM     15  C   UNL     1       2.189   7.901  18.707  0.00  0.00    +0.000 A 
ATOM     16  C   UNL     1       1.696   9.141  18.292  0.00  0.00    +0.000 A 
ATOM     17  C   UNL     1       0.960   9.938  19.173  0.00  0.00    +0.000 A 
ATOM     18 CL   UNL     1       0.439  11.487  18.614  0.00  0.00    +0.000 Cl
ATOM     19  C   UNL     1       0.690   9.477  20.465  0.00  0.00    +0.000 A 
ATOM     20 CL   UNL     1      -0.227  10.394  21.607  0.00  0.00    +0.000 Cl
ATOM     21  C   UNL     1       1.183   8.235  20.879  0.00  0.00    +0.000 A 
ENDBRANCH  13  14
ENDBRANCH   9  13
TORSDOF 4
ENDMDL
MODEL 6
REMARK VINA RESULT:      -6.5      3.452      5.478
REMARK  Name = 
REMARK  4 active torsions:
REMARK  status: ('A' for Active; 'I' for Inactive)
REMARK    1  A    between atoms: C_7  and  C_8
REMARK    2  A    between atoms: C_8  and  O_9
REMARK    3  A    between atoms: N_11  and  C_12
REMARK    4  A    between atoms: C_12  and  C_13
REMARK                            x       y       z     vdW  Elec       q    Type
REMARK                         _______ _______ _______ _____ _____    ______ ____
ROOT
ATOM      1  O   UNL     1       3.121   1.313  18.290  0.00  0.00    +0.000 OA
ATOM      2  S   UNL     1       2.255   2.391  18.725  0.00  0.00    +0.000 S 
ATOM      3  O   UNL     1       1.044   2.697  17.988  0.00  0.00    +0.000 OA
ATOM      4  C   UNL     1       1.839   2.082  20.419  0.00  0.00    +0.000 C 
ATOM      5  C   UNL     1       1.119   3.243  21.057  0.00  0.00    +0.000 C 
ATOM      6  O   UNL     1       2.067   4.195  21.521  0.00  0.00    +0.000 OA
ATOM      7  C   UNL     1       2.330   5.318  20.666  0.00  0.00    +0.000 C 
ATOM      8  C   UNL     1       2.414   5.052  19.149  0.00  0.00    +0.000 C 
ATOM      9  N   UNL     1       3.198   3.822  18.787  0.00  0.00    +0.000 NA
ENDROOT
BRANCH   7  10
ATOM     10  C   UNL     1       1.257   6.396  20.926  0.00  0.00    +0.000 C 
BRANCH  10  11
ATOM     11  O   UNL     1       1.851   7.608  21.379  0.00  0.00    +0.000 OA
ATOM     12  H   UNL     1       2.530   7.355  22.031  0.00  0.00    +0.000 HD
ENDBRANCH  10  11
ENDBRANCH   7  10
BRANCH   9  13
ATOM     13  C   UNL     1       3.972   3.994  17.509  0.00  0.00    +0.000 C 
BRANCH  13  14
ATOM     14  C   UNL     1       5.004   5.102  17.567  0.00  0.00    +0.000 A 
ATOM     15  C   UNL     1       4.943   6.177  16.671  0.00  0.00    +0.000 A 
ATOM     16  C   UNL     1       5.939   7.157  16.673  0.00  0.00    +0.000 A 
ATOM     17  C   UNL     1       7.002   7.080  17.577  0.00  0.00    +0.000 A 
ATOM     18 CL   UNL     1       8.232   8.288  17.480  0.00  0.00    +0.000 Cl
ATOM     19  C   UNL     1       7.048   6.035  18.506  0.00  0.00    +0.000 A 
ATOM     20 CL   UNL     1       8.318   5.881  19.668  0.00  0.00    +0.000 Cl
ATOM     21  C   UNL     1       6.050   5.056  18.504  0.00  0.00    +0.000 A 
ENDBRANCH  13  14
ENDBRANCH   9  13
TORSDOF 4
ENDMDL
MODEL 7
REMARK VINA RESULT:      -6.5      2.138      3.946
REMARK  Name = 
REMARK  4 active torsions:
REMARK  status: ('A' for Active; 'I' for Inactive)
REMARK    1  A    between atoms: C_7  and  C_8
REMARK    2  A    between atoms: C_8  and  O_9
REMARK    3  A    between atoms: N_11  and  C_12
REMARK    4  A    between atoms: C_12  and  C_13
REMARK                            x       y       z     vdW  Elec       q    Type
REMARK                         _______ _______ _______ _____ _____    ______ ____
ROOT
ATOM      1  O   UNL     1       5.906   5.372  18.303  0.00  0.00    +0.000 OA
ATOM      2  S   UNL     1       4.769   4.474  18.272  0.00  0.00    +0.000 S 
ATOM      3  O   UNL     1       4.457   3.733  17.064  0.00  0.00    +0.000 OA
ATOM      4  C   UNL     1       4.958   3.335  19.616  0.00  0.00    +0.000 C 
ATOM      5  C   UNL     1       3.732   2.483  19.827  0.00  0.00    +0.000 C 
ATOM      6  O   UNL     1       2.795   3.188  20.630  0.00  0.00    +0.000 OA
ATOM      7  C   UNL     1       1.737   3.872  19.941  0.00  0.00    +0.000 C 
ATOM      8  C   UNL     1       2.096   4.599  18.630  0.00  0.00    +0.000 C 
ATOM      9  N   UNL     1       3.377   5.382  18.696  0.00  0.00    +0.000 NA
ENDROOT
BRANCH   7  10
ATOM     10  C   UNL     1       0.602   2.866  19.661  0.00  0.00    +0.000 C 
BRANCH  10  11
ATOM     11  O   UNL     1       0.626   2.432  18.305  0.00  0.00    +0.000 OA
ATOM     12  H   UNL     1       0.368   1.492  18.312  0.00  0.00    +0.000 HD
ENDBRANCH  10  11
ENDBRANCH   7  10
BRANCH   9  13
ATOM     13  C   UNL     1       3.314   6.649  17.888  0.00  0.00    +0.000 C 
BRANCH  13  14
ATOM     14  C   UNL     1       2.395   7.700  18.476  0.00  0.00    +0.000 A 
ATOM     15  C   UNL     1       1.857   8.707  17.664  0.00  0.00    +0.000 A 
ATOM     16  C   UNL     1       1.074   9.721  18.222  0.00  0.00    +0.000 A 
ATOM     17  C   UNL     1       0.810   9.735  19.594  0.00  0.00    +0.000 A 
ATOM     18 CL   UNL     1      -0.109  11.055  20.224  0.00  0.00    +0.000 Cl
ATOM     19  C   UNL     1       1.305   8.710  20.406  0.00  0.00    +0.000 A 
ATOM     20 CL   UNL     1       1.007   8.646  22.107  0.00  0.00    +0.000 Cl
ATOM     21  C   UNL     1       2.088   7.695  19.846  0.00  0.00    +0.000 A 
ENDBRANCH  13  14
ENDBRANCH   9  13
TORSDOF 4
ENDMDL
MODEL 8
REMARK VINA RESULT:      -6.4      1.941      3.647
REMARK  Name = 
REMARK  4 active torsions:
REMARK  status: ('A' for Active; 'I' for Inactive)
REMARK    1  A    between atoms: C_7  and  C_8
REMARK    2  A    between atoms: C_8  and  O_9
REMARK    3  A    between atoms: N_11  and  C_12
REMARK    4  A    between atoms: C_12  and  C_13
REMARK                            x       y       z     vdW  Elec       q    Type
REMARK                         _______ _______ _______ _____ _____    ______ ____
ROOT
ATOM      1  O   UNL     1       5.671   6.581  17.932  0.00  0.00    +0.000 OA
ATOM      2  S   UNL     1       4.762   5.475  17.708  0.00  0.00    +0.000 S 
ATOM      3  O   UNL     1       4.575   4.943  16.372  0.00  0.00    +0.000 OA
ATOM      4  C   UNL     1       5.254   4.159  18.789  0.00  0.00    +0.000 C 
ATOM      5  C   UNL     1       4.258   3.028  18.812  0.00  0.00    +0.000 C 
ATOM      6  O   UNL     1       3.221   3.325  19.736  0.00  0.00    +0.000 OA
ATOM      7  C   UNL     1       2.010   3.877  19.196  0.00  0.00    +0.000 C 
ATOM      8  C   UNL     1       2.145   4.916  18.066  0.00  0.00    +0.000 C 
ATOM      9  N   UNL     1       3.221   5.939  18.301  0.00  0.00    +0.000 NA
ENDROOT
BRANCH   7  10
ATOM     10  C   UNL     1       1.117   2.718  18.707  0.00  0.00    +0.000 C 
BRANCH  10  11
ATOM     11  O   UNL     1       0.017   2.514  19.587  0.00  0.00    +0.000 OA
ATOM     12  H   UNL     1      -0.117   1.550  19.642  0.00  0.00    +0.000 HD
ENDBRANCH  10  11
ENDBRANCH   7  10
BRANCH   9  13
ATOM     13  C   UNL     1       2.845   7.296  17.773  0.00  0.00    +0.000 C 
BRANCH  13  14
ATOM     14  C   UNL     1       2.060   8.137  18.758  0.00  0.00    +0.000 A 
ATOM     15  C   UNL     1       1.972   7.756  20.104  0.00  0.00    +0.000 A 
ATOM     16  C   UNL     1       1.183   8.488  20.995  0.00  0.00    +0.000 A 
ATOM     17  C   UNL     1       0.482   9.614  20.555  0.00  0.00    +0.000 A 
ATOM     18 CL   UNL     1      -0.526  10.431  21.695  0.00  0.00    +0.000 Cl
ATOM     19  C   UNL     1       0.598  10.028  19.225  0.00  0.00    +0.000 A 
ATOM     20 CL   UNL     1      -0.220  11.420  18.610  0.00  0.00    +0.000 Cl
ATOM     21  C   UNL     1       1.390   9.296  18.334  0.00  0.00    +0.000 A 
ENDBRANCH  13  14
ENDBRANCH   9  13
TORSDOF 4
ENDMDL
MODEL 9
REMARK VINA RESULT:      -6.3      1.764      2.126
REMARK  Name = 
REMARK  4 active torsions:
REMARK  status: ('A' for Active; 'I' for Inactive)
REMARK    1  A    between atoms: C_7  and  C_8
REMARK    2  A    between atoms: C_8  and  O_9
REMARK    3  A    between atoms: N_11  and  C_12
REMARK    4  A    between atoms: C_12  and  C_13
REMARK                            x       y       z     vdW  Elec       q    Type
REMARK                         _______ _______ _______ _____ _____    ______ ____
ROOT
ATOM      1  O   UNL     1       0.504   3.666  20.138  0.00  0.00    +0.000 OA
ATOM      2  S   UNL     1       1.892   3.500  19.755  0.00  0.00    +0.000 S 
ATOM      3  O   UNL     1       2.777   2.679  20.558  0.00  0.00    +0.000 OA
ATOM      4  C   UNL     1       1.911   2.908  18.085  0.00  0.00    +0.000 C 
ATOM      5  C   UNL     1       3.297   2.900  17.491  0.00  0.00    +0.000 C 
ATOM      6  O   UNL     1       3.603   4.190  16.980  0.00  0.00    +0.000 OA
ATOM      7  C   UNL     1       4.380   5.054  17.823  0.00  0.00    +0.000 C 
ATOM      8  C   UNL     1       4.061   5.050  19.332  0.00  0.00    +0.000 C 
ATOM      9  N   UNL     1       2.592   5.062  19.646  0.00  0.00    +0.000 NA
ENDROOT
BRANCH   7  10
ATOM     10  C   UNL     1       5.873   4.722  17.626  0.00  0.00    +0.000 C 
BRANCH  10  11
ATOM     11  O   UNL     1       6.379   3.972  18.726  0.00  0.00    +0.000 OA
ATOM     12  H   UNL     1       6.593   4.619  19.424  0.00  0.00    +0.000 HD
ENDBRANCH  10  11
ENDBRANCH   7  10
BRANCH   9  13
ATOM     13  C   UNL     1       2.278   5.862  20.880  0.00  0.00    +0.000 C 
BRANCH  13  14
ATOM     14  C   UNL     1       1.688   7.226  20.587  0.00  0.00    +0.000 A 
ATOM     15  C   UNL     1       0.758   7.801  21.463  0.00  0.00    +0.000 A 
ATOM     16  C   UNL     1       0.154   9.022  21.152  0.00  0.00    +0.000 A 
ATOM     17  C   UNL     1       0.481   9.689  19.968  0.00  0.00    +0.000 A 
ATOM     18 CL   UNL     1      -0.352  11.160  19.616  0.00  0.00    +0.000 Cl
ATOM     19  C   UNL     1       1.441   9.145  19.108  0.00  0.00    +0.000 A 
ATOM     20 CL   UNL     1       1.913   9.918  17.636  0.00  0.00    +0.000 Cl
ATOM     21  C   UNL     1       2.045   7.924  19.421  0.00  0.00    +0.000 A 
ENDBRANCH  13  14
ENDBRANCH   9  13
TORSDOF 4
ENDMDL
