MODEL 1
REMARK VINA RESULT:      -8.4      0.000      0.000
REMARK  Name = 
REMARK  1 active torsions:
REMARK  status: ('A' for Active; 'I' for Inactive)
REMARK    1  A    between atoms: C_4  and  N_5
REMARK                            x       y       z     vdW  Elec       q    Type
REMARK                         _______ _______ _______ _____ _____    ______ ____
ROOT
ATOM      1  N   UNL     1       2.997   5.933  19.365  0.00  0.00    +0.000 N 
ATOM      2  C   UNL     1       4.012   5.840  18.417  0.00  0.00    +0.000 A 
ATOM      3  C   UNL     1       4.972   4.836  18.194  0.00  0.00    +0.000 A 
ATOM      4  C   UNL     1       5.785   4.948  17.065  0.00  0.00    +0.000 A 
ATOM      5  C   UNL     1       5.642   6.019  16.190  0.00  0.00    +0.000 A 
ATOM      6  C   UNL     1       4.679   7.010  16.420  0.00  0.00    +0.000 A 
ATOM      7  C   UNL     1       3.852   6.928  17.561  0.00  0.00    +0.000 A 
ATOM      8  C   UNL     1       2.803   7.733  18.099  0.00  0.00    +0.000 A 
ATOM      9  C   UNL     1       2.074   8.849  17.636  0.00  0.00    +0.000 A 
ATOM     10  C   UNL     1       1.175   9.489  18.495  0.00  0.00    +0.000 A 
ATOM     11  C   UNL     1       1.071   9.098  19.826  0.00  0.00    +0.000 A 
ATOM     12  C   UNL     1       1.752   7.975  20.299  0.00  0.00    +0.000 A 
ATOM     13  C   UNL     1       2.533   7.249  19.386  0.00  0.00    +0.000 A 
ENDROOT
BRANCH   1  17
ATOM     14  C   UNL     1       1.086   2.483  20.857  0.00  0.00    +0.000 A 
ATOM     15  C   UNL     1       1.909   3.242  21.680  0.00  0.00    +0.000 A 
ATOM     16  C   UNL     1       2.492   4.406  21.183  0.00  0.00    +0.000 A 
ATOM     17  C   UNL     1       2.261   4.809  19.855  0.00  0.00    +0.000 A 
ATOM     18  C   UNL     1       1.454   4.031  19.025  0.00  0.00    +0.000 A 
ATOM     19  C   UNL     1       0.861   2.873  19.536  0.00  0.00    +0.000 A 
ENDBRANCH   1  17
TORSDOF 1
ENDMDL
MODEL 2
REMARK VINA RESULT:      -8.3      1.067      4.925
REMARK  Name = 
REMARK  1 active torsions:
REMARK  status: ('A' for Active; 'I' for Inactive)
REMARK    1  A    between atoms: C_4  and  N_5
REMARK                            x       y       z     vdW  Elec       q    Type
REMARK                         _______ _______ _______ _____ _____    ______ ____
ROOT
ATOM      1  N   UNL     1       3.080   5.973  18.789  0.00  0.00    +0.000 N 
ATOM      2  C   UNL     1       2.426   4.765  19.008  0.00  0.00    +0.000 A 
ATOM      3  C   UNL     1       1.415   4.420  19.924  0.00  0.00    +0.000 A 
ATOM      4  C   UNL     1       0.841   3.152  19.818  0.00  0.00    +0.000 A 
ATOM      5  C   UNL     1       1.259   2.263  18.834  0.00  0.00    +0.000 A 
ATOM      6  C   UNL     1       2.264   2.620  17.925  0.00  0.00    +0.000 A 
ATOM      7  C   UNL     1       2.869   3.891  18.016  0.00  0.00    +0.000 A 
ATOM      8  C   UNL     1       3.893   4.570  17.289  0.00  0.00    +0.000 A 
ATOM      9  C   UNL     1       4.607   4.302  16.102  0.00  0.00    +0.000 A 
ATOM     10  C   UNL     1       5.662   5.141  15.729  0.00  0.00    +0.000 A 
ATOM     11  C   UNL     1       6.076   6.171  16.568  0.00  0.00    +0.000 A 
ATOM     12  C   UNL     1       5.363   6.479  17.729  0.00  0.00    +0.000 A 
ATOM     13  C   UNL     1       4.213   5.726  18.012  0.00  0.00    +0.000 A 
ENDROOT
BRANCH   1  17
ATOM     14  C   UNL     1       0.988   9.604  19.259  0.00  0.00    +0.000 A 
ATOM     15  C   UNL     1       1.234   8.787  20.357  0.00  0.00    +0.000 A 
ATOM     16  C   UNL     1       1.970   7.616  20.189  0.00  0.00    +0.000 A 
ATOM     17  C   UNL     1       2.455   7.253  18.920  0.00  0.00    +0.000 A 
ATOM     18  C   UNL     1       2.184   8.063  17.817  0.00  0.00    +0.000 A 
ATOM     19  C   UNL     1       1.457   9.243  17.996  0.00  0.00    +0.000 A 
ENDBRANCH   1  17
TORSDOF 1
ENDMDL
MODEL 3
REMARK VINA RESULT:      -8.3      1.465      4.403
REMARK  Name = 
REMARK  1 active torsions:
REMARK  status: ('A' for Active; 'I' for Inactive)
REMARK    1  A    between atoms: C_4  and  N_5
REMARK                            x       y       z     vdW  Elec       q    Type
REMARK                         _______ _______ _______ _____ _____    ______ ____
ROOT
ATOM      1  N   UNL     1       3.281   6.051  17.912  0.00  0.00    +0.000 N 
ATOM      2  C   UNL     1       4.647   6.005  17.650  0.00  0.00    +0.000 A 
ATOM      3  C   UNL     1       5.541   7.017  17.255  0.00  0.00    +0.000 A 
ATOM      4  C   UNL     1       6.901   6.705  17.204  0.00  0.00    +0.000 A 
ATOM      5  C   UNL     1       7.351   5.432  17.538  0.00  0.00    +0.000 A 
ATOM      6  C   UNL     1       6.450   4.434  17.935  0.00  0.00    +0.000 A 
ATOM      7  C   UNL     1       5.069   4.719  17.984  0.00  0.00    +0.000 A 
ATOM      8  C   UNL     1       3.902   3.971  18.324  0.00  0.00    +0.000 A 
ATOM      9  C   UNL     1       3.671   2.698  18.887  0.00  0.00    +0.000 A 
ATOM     10  C   UNL     1       2.364   2.209  18.971  0.00  0.00    +0.000 A 
ATOM     11  C   UNL     1       1.306   2.921  18.414  0.00  0.00    +0.000 A 
ATOM     12  C   UNL     1       1.502   4.199  17.886  0.00  0.00    +0.000 A 
ATOM     13  C   UNL     1       2.795   4.743  17.947  0.00  0.00    +0.000 A 
ENDROOT
BRANCH   1  17
ATOM     14  C   UNL     1       1.106   9.180  19.718  0.00  0.00    +0.000 A 
ATOM     15  C   UNL     1       1.522   8.086  20.470  0.00  0.00    +0.000 A 
ATOM     16  C   UNL     1       2.282   7.087  19.867  0.00  0.00    +0.000 A 
ATOM     17  C   UNL     1       2.621   7.173  18.504  0.00  0.00    +0.000 A 
ATOM     18  C   UNL     1       2.181   8.259  17.748  0.00  0.00    +0.000 A 
ATOM     19  C   UNL     1       1.431   9.265  18.365  0.00  0.00    +0.000 A 
ENDBRANCH   1  17
TORSDOF 1
ENDMDL
MODEL 4
REMARK VINA RESULT:      -8.2      1.041      5.029
REMARK  Name = 
REMARK  1 active torsions:
REMARK  status: ('A' for Active; 'I' for Inactive)
REMARK    1  A    between atoms: C_4  and  N_5
REMARK                            x       y       z     vdW  Elec       q    Type
REMARK                         _______ _______ _______ _____ _____    ______ ____
ROOT
ATOM      1  N   UNL     1       2.977   5.937  18.814  0.00  0.00    +0.000 N 
ATOM      2  C   UNL     1       2.385   4.697  19.033  0.00  0.00    +0.000 A 
ATOM      3  C   UNL     1       1.390   4.301  19.945  0.00  0.00    +0.000 A 
ATOM      4  C   UNL     1       0.884   3.005  19.839  0.00  0.00    +0.000 A 
ATOM      5  C   UNL     1       1.351   2.137  18.857  0.00  0.00    +0.000 A 
ATOM      6  C   UNL     1       2.339   2.545  17.951  0.00  0.00    +0.000 A 
ATOM      7  C   UNL     1       2.877   3.846  18.043  0.00  0.00    +0.000 A 
ATOM      8  C   UNL     1       3.866   4.576  17.318  0.00  0.00    +0.000 A 
ATOM      9  C   UNL     1       4.597   4.345  16.134  0.00  0.00    +0.000 A 
ATOM     10  C   UNL     1       5.609   5.236  15.764  0.00  0.00    +0.000 A 
ATOM     11  C   UNL     1       5.966   6.287  16.603  0.00  0.00    +0.000 A 
ATOM     12  C   UNL     1       5.235   6.560  17.761  0.00  0.00    +0.000 A 
ATOM     13  C   UNL     1       4.124   5.749  18.041  0.00  0.00    +0.000 A 
ENDROOT
BRANCH   1  17
ATOM     14  C   UNL     1       1.189   9.745  19.106  0.00  0.00    +0.000 A 
ATOM     15  C   UNL     1       1.635   9.270  17.878  0.00  0.00    +0.000 A 
ATOM     16  C   UNL     1       2.177   7.989  17.794  0.00  0.00    +0.000 A 
ATOM     17  C   UNL     1       2.285   7.182  18.941  0.00  0.00    +0.000 A 
ATOM     18  C   UNL     1       1.860   7.673  20.175  0.00  0.00    +0.000 A 
ATOM     19  C   UNL     1       1.304   8.953  20.249  0.00  0.00    +0.000 A 
ENDBRANCH   1  17
TORSDOF 1
ENDMDL
MODEL 5
REMARK VINA RESULT:      -8.2      0.271      1.140
REMARK  Name = 
REMARK  1 active torsions:
REMARK  status: ('A' for Active; 'I' for Inactive)
REMARK    1  A    between atoms: C_4  and  N_5
REMARK                            x       y       z     vdW  Elec       q    Type
REMARK                         _______ _______ _______ _____ _____    ______ ____
ROOT
ATOM      1  N   UNL     1       3.191   5.750  19.242  0.00  0.00    +0.000 N 
ATOM      2  C   UNL     1       4.187   5.697  18.271  0.00  0.00    +0.000 A 
ATOM      3  C   UNL     1       5.156   4.714  18.001  0.00  0.00    +0.000 A 
ATOM      4  C   UNL     1       5.942   4.867  16.857  0.00  0.00    +0.000 A 
ATOM      5  C   UNL     1       5.765   5.959  16.014  0.00  0.00    +0.000 A 
ATOM      6  C   UNL     1       4.792   6.929  16.292  0.00  0.00    +0.000 A 
ATOM      7  C   UNL     1       3.992   6.805  17.447  0.00  0.00    +0.000 A 
ATOM      8  C   UNL     1       2.943   7.579  18.029  0.00  0.00    +0.000 A 
ATOM      9  C   UNL     1       2.188   8.695  17.611  0.00  0.00    +0.000 A 
ATOM     10  C   UNL     1       1.299   9.299  18.506  0.00  0.00    +0.000 A 
ATOM     11  C   UNL     1       1.230   8.872  19.829  0.00  0.00    +0.000 A 
ATOM     12  C   UNL     1       1.938   7.748  20.257  0.00  0.00    +0.000 A 
ATOM     13  C   UNL     1       2.708   7.057  19.308  0.00  0.00    +0.000 A 
ENDROOT
BRANCH   1  17
ATOM     14  C   UNL     1       0.848   2.510  20.581  0.00  0.00    +0.000 A 
ATOM     15  C   UNL     1       0.822   2.892  19.244  0.00  0.00    +0.000 A 
ATOM     16  C   UNL     1       1.641   3.932  18.812  0.00  0.00    +0.000 A 
ATOM     17  C   UNL     1       2.482   4.603  19.718  0.00  0.00    +0.000 A 
ATOM     18  C   UNL     1       2.487   4.233  21.063  0.00  0.00    +0.000 A 
ATOM     19  C   UNL     1       1.673   3.178  21.486  0.00  0.00    +0.000 A 
ENDBRANCH   1  17
TORSDOF 1
ENDMDL
MODEL 6
REMARK VINA RESULT:      -8.2      1.514      4.581
REMARK  Name = 
REMARK  1 active torsions:
REMARK  status: ('A' for Active; 'I' for Inactive)
REMARK    1  A    between atoms: C_4  and  N_5
REMARK                            x       y       z     vdW  Elec       q    Type
REMARK                         _______ _______ _______ _____ _____    ______ ____
ROOT
ATOM      1  N   UNL     1       3.247   5.933  17.921  0.00  0.00    +0.000 N 
ATOM      2  C   UNL     1       4.618   5.986  17.689  0.00  0.00    +0.000 A 
ATOM      3  C   UNL     1       5.447   7.060  17.316  0.00  0.00    +0.000 A 
ATOM      4  C   UNL     1       6.826   6.845  17.295  0.00  0.00    +0.000 A 
ATOM      5  C   UNL     1       7.358   5.605  17.635  0.00  0.00    +0.000 A 
ATOM      6  C   UNL     1       6.522   4.545  18.010  0.00  0.00    +0.000 A 
ATOM      7  C   UNL     1       5.123   4.731  18.029  0.00  0.00    +0.000 A 
ATOM      8  C   UNL     1       4.005   3.901  18.342  0.00  0.00    +0.000 A 
ATOM      9  C   UNL     1       3.852   2.613  18.896  0.00  0.00    +0.000 A 
ATOM     10  C   UNL     1       2.581   2.032  18.950  0.00  0.00    +0.000 A 
ATOM     11  C   UNL     1       1.488   2.670  18.372  0.00  0.00    +0.000 A 
ATOM     12  C   UNL     1       1.605   3.961  17.851  0.00  0.00    +0.000 A 
ATOM     13  C   UNL     1       2.854   4.595  17.942  0.00  0.00    +0.000 A 
ENDROOT
BRANCH   1  17
ATOM     14  C   UNL     1       1.262   9.271  19.566  0.00  0.00    +0.000 A 
ATOM     15  C   UNL     1       1.558   9.227  18.208  0.00  0.00    +0.000 A 
ATOM     16  C   UNL     1       2.170   8.095  17.675  0.00  0.00    +0.000 A 
ATOM     17  C   UNL     1       2.497   7.004  18.501  0.00  0.00    +0.000 A 
ATOM     18  C   UNL     1       2.220   7.062  19.867  0.00  0.00    +0.000 A 
ATOM     19  C   UNL     1       1.593   8.196  20.391  0.00  0.00    +0.000 A 
ENDBRANCH   1  17
TORSDOF 1
ENDMDL
MODEL 7
REMARK VINA RESULT:      -8.1      1.192      4.571
REMARK  Name = 
REMARK  1 active torsions:
REMARK  status: ('A' for Active; 'I' for Inactive)
REMARK    1  A    between atoms: C_4  and  N_5
REMARK                            x       y       z     vdW  Elec       q    Type
REMARK                         _______ _______ _______ _____ _____    ______ ____
ROOT
ATOM      1  N   UNL     1       3.340   5.171  18.150  0.00  0.00    +0.000 N 
ATOM      2  C   UNL     1       2.688   4.177  18.873  0.00  0.00    +0.000 A 
ATOM      3  C   UNL     1       2.797   2.775  18.814  0.00  0.00    +0.000 A 
ATOM      4  C   UNL     1       2.114   2.025  19.772  0.00  0.00    +0.000 A 
ATOM      5  C   UNL     1       1.353   2.650  20.754  0.00  0.00    +0.000 A 
ATOM      6  C   UNL     1       1.255   4.047  20.805  0.00  0.00    +0.000 A 
ATOM      7  C   UNL     1       1.926   4.829  19.842  0.00  0.00    +0.000 A 
ATOM      8  C   UNL     1       2.043   6.230  19.592  0.00  0.00    +0.000 A 
ATOM      9  C   UNL     1       1.658   7.395  20.287  0.00  0.00    +0.000 A 
ATOM     10  C   UNL     1       1.818   8.644  19.679  0.00  0.00    +0.000 A 
ATOM     11  C   UNL     1       2.256   8.738  18.362  0.00  0.00    +0.000 A 
ATOM     12  C   UNL     1       2.679   7.604  17.666  0.00  0.00    +0.000 A 
ATOM     13  C   UNL     1       2.658   6.374  18.341  0.00  0.00    +0.000 A 
ENDROOT
BRANCH   1  17
ATOM     14  C   UNL     1       7.294   4.593  16.803  0.00  0.00    +0.000 A 
ATOM     15  C   UNL     1       6.220   4.378  15.946  0.00  0.00    +0.000 A 
ATOM     16  C   UNL     1       4.924   4.623  16.395  0.00  0.00    +0.000 A 
ATOM     17  C   UNL     1       4.696   5.074  17.708  0.00  0.00    +0.000 A 
ATOM     18  C   UNL     1       5.774   5.263  18.572  0.00  0.00    +0.000 A 
ATOM     19  C   UNL     1       7.073   5.030  18.109  0.00  0.00    +0.000 A 
ENDBRANCH   1  17
TORSDOF 1
ENDMDL
MODEL 8
REMARK VINA RESULT:      -8.0      1.709      4.514
REMARK  Name = 
REMARK  1 active torsions:
REMARK  status: ('A' for Active; 'I' for Inactive)
REMARK    1  A    between atoms: C_4  and  N_5
REMARK                            x       y       z     vdW  Elec       q    Type
REMARK                         _______ _______ _______ _____ _____    ______ ____
ROOT
ATOM      1  N   UNL     1       3.781   5.487  18.296  0.00  0.00    +0.000 N 
ATOM      2  C   UNL     1       3.314   4.176  18.335  0.00  0.00    +0.000 A 
ATOM      3  C   UNL     1       3.773   3.017  17.683  0.00  0.00    +0.000 A 
ATOM      4  C   UNL     1       3.187   1.798  18.028  0.00  0.00    +0.000 A 
ATOM      5  C   UNL     1       2.183   1.738  18.988  0.00  0.00    +0.000 A 
ATOM      6  C   UNL     1       1.738   2.899  19.634  0.00  0.00    +0.000 A 
ATOM      7  C   UNL     1       2.304   4.146  19.296  0.00  0.00    +0.000 A 
ATOM      8  C   UNL     1       2.099   5.491  19.729  0.00  0.00    +0.000 A 
ATOM      9  C   UNL     1       1.357   6.095  20.766  0.00  0.00    +0.000 A 
ATOM     10  C   UNL     1       1.274   7.490  20.831  0.00  0.00    +0.000 A 
ATOM     11  C   UNL     1       1.830   8.278  19.828  0.00  0.00    +0.000 A 
ATOM     12  C   UNL     1       2.600   7.708  18.813  0.00  0.00    +0.000 A 
ATOM     13  C   UNL     1       2.805   6.319  18.846  0.00  0.00    +0.000 A 
ENDROOT
BRANCH   1  17
ATOM     14  C   UNL     1       7.832   6.651  18.192  0.00  0.00    +0.000 A 
ATOM     15  C   UNL     1       7.379   5.768  19.166  0.00  0.00    +0.000 A 
ATOM     16  C   UNL     1       6.048   5.357  19.153  0.00  0.00    +0.000 A 
ATOM     17  C   UNL     1       5.162   5.836  18.171  0.00  0.00    +0.000 A 
ATOM     18  C   UNL     1       5.615   6.740  17.211  0.00  0.00    +0.000 A 
ATOM     19  C   UNL     1       6.955   7.137  17.222  0.00  0.00    +0.000 A 
ENDBRANCH   1  17
TORSDOF 1
ENDMDL
MODEL 9
REMARK VINA RESULT:      -7.9      1.220      4.498
REMARK  Name = 
REMARK  1 active torsions:
REMARK  status: ('A' for Active; 'I' for Inactive)
REMARK    1  A    between atoms: C_4  and  N_5
REMARK                            x       y       z     vdW  Elec       q    Type
REMARK                         _______ _______ _______ _____ _____    ______ ____
ROOT
ATOM      1  N   UNL     1       3.416   4.963  18.075  0.00  0.00    +0.000 N 
ATOM      2  C   UNL     1       2.697   4.054  18.843  0.00  0.00    +0.000 A 
ATOM      3  C   UNL     1       2.733   2.648  18.877  0.00  0.00    +0.000 A 
ATOM      4  C   UNL     1       1.990   1.998  19.865  0.00  0.00    +0.000 A 
ATOM      5  C   UNL     1       1.242   2.724  20.785  0.00  0.00    +0.000 A 
ATOM      6  C   UNL     1       1.218   4.125  20.744  0.00  0.00    +0.000 A 
ATOM      7  C   UNL     1       1.950   4.807  19.749  0.00  0.00    +0.000 A 
ATOM      8  C   UNL     1       2.147   6.180  19.412  0.00  0.00    +0.000 A 
ATOM      9  C   UNL     1       1.809   7.407  20.022  0.00  0.00    +0.000 A 
ATOM     10  C   UNL     1       2.048   8.603  19.339  0.00  0.00    +0.000 A 
ATOM     11  C   UNL     1       2.519   8.588  18.030  0.00  0.00    +0.000 A 
ATOM     12  C   UNL     1       2.896   7.390  17.418  0.00  0.00    +0.000 A 
ATOM     13  C   UNL     1       2.796   6.210  18.170  0.00  0.00    +0.000 A 
ENDROOT
BRANCH   1  17
ATOM     14  C   UNL     1       7.462   4.678  16.922  0.00  0.00    +0.000 A 
ATOM     15  C   UNL     1       7.124   5.092  18.206  0.00  0.00    +0.000 A 
ATOM     16  C   UNL     1       5.784   5.131  18.583  0.00  0.00    +0.000 A 
ATOM     17  C   UNL     1       4.775   4.767  17.673  0.00  0.00    +0.000 A 
ATOM     18  C   UNL     1       5.117   4.377  16.379  0.00  0.00    +0.000 A 
ATOM     19  C   UNL     1       6.465   4.325  16.013  0.00  0.00    +0.000 A 
ENDBRANCH   1  17
TORSDOF 1
ENDMDL
