MODEL 1
REMARK VINA RESULT:      -6.7      0.000      0.000
REMARK  Name = 
REMARK  20 active torsions:
REMARK  status: ('A' for Active; 'I' for Inactive)
REMARK    1  A    between atoms: C_1  and  C_2
REMARK    2  A    between atoms: C_2  and  C_3
REMARK    3  A    between atoms: C_3  and  C_4
REMARK    4  A    between atoms: C_4  and  C_5
REMARK    5  A    between atoms: C_5  and  C_6
REMARK    6  A    between atoms: C_6  and  C_7
REMARK    7  A    between atoms: C_7  and  C_8
REMARK    8  A    between atoms: C_8  and  C_9
REMARK    9  A    between atoms: C_9  and  C_10
REMARK   10  A    between atoms: C_10  and  N_11
REMARK   11  A    between atoms: N_11  and  C_12
REMARK   12  A    between atoms: C_12  and  C_13
REMARK   13  A    between atoms: C_13  and  O_14
REMARK   14  A    between atoms: O_14  and  C_15
REMARK   15  A    between atoms: C_18  and  C_19
REMARK   16  A    between atoms: C_19  and  C_29
REMARK   17  A    between atoms: C_20  and  C_21
REMARK   18  A    between atoms: C_20  and  C_23
REMARK   19  A    between atoms: C_21  and  C_22
REMARK   20  A    between atoms: C_32  and  O_33
REMARK                            x       y       z     vdW  Elec       q    Type
REMARK                         _______ _______ _______ _____ _____    ______ ____
ROOT
ATOM      1  C   UNL     1       1.760   8.298  19.740  0.00  0.00    +0.000 A 
ATOM      2  C   UNL     1       1.793   8.862  18.472  0.00  0.00    +0.000 A 
ATOM      3  C   UNL     1       1.087  10.047  18.206  0.00  0.00    +0.000 A 
ATOM      4  C   UNL     1       0.243  10.617  19.174  0.00  0.00    +0.000 A 
ATOM      5  C   UNL     1       0.255  10.060  20.459  0.00  0.00    +0.000 A 
ATOM      6  C   UNL     1       1.025   8.915  20.747  0.00  0.00    +0.000 A 
ENDROOT
BRANCH   4   7
ATOM      7  C   UNL     1      -0.587  11.825  18.860  0.00  0.00    +0.000 C 
ATOM      8  C   UNL     1      -0.067  13.104  18.972  0.00  0.00    +0.000 C 
BRANCH   7   9
ATOM      9  C   UNL     1      -1.988  11.666  18.405  0.00  0.00    +0.000 A 
ATOM     10  C   UNL     1      -2.274  11.280  17.080  0.00  0.00    +0.000 A 
ATOM     11  C   UNL     1      -3.589  11.291  16.604  0.00  0.00    +0.000 A 
ATOM     12  C   UNL     1      -4.624  11.659  17.460  0.00  0.00    +0.000 A 
ATOM     13  C   UNL     1      -4.367  11.958  18.795  0.00  0.00    +0.000 A 
ATOM     14  C   UNL     1      -3.050  11.965  19.265  0.00  0.00    +0.000 A 
BRANCH  12  15
ATOM     15  O   UNL     1      -5.909  11.766  17.021  0.00  0.00    +0.000 OA
ATOM     16  H   UNL     1      -6.493  11.308  17.649  0.00  0.00    +0.000 HD
ENDBRANCH  12  15
ENDBRANCH   7   9
BRANCH   8  17
ATOM     17  C   UNL     1       1.388  13.388  19.275  0.00  0.00    +0.000 A 
ATOM     18  C   UNL     1       2.274  13.794  18.259  0.00  0.00    +0.000 A 
ATOM     19  C   UNL     1       3.569  14.248  18.557  0.00  0.00    +0.000 A 
ATOM     20  C   UNL     1       3.987  14.322  19.887  0.00  0.00    +0.000 A 
ATOM     21  C   UNL     1       3.130  13.916  20.904  0.00  0.00    +0.000 A 
ATOM     22  C   UNL     1       1.847  13.441  20.603  0.00  0.00    +0.000 A 
ENDBRANCH   8  17
BRANCH   8  23
ATOM     23  C   UNL     1      -0.767  14.495  18.836  0.00  0.00    +0.000 C 
ATOM     24  C   UNL     1      -1.224  15.370  20.006  0.00  0.00    +0.000 C 
ENDBRANCH   8  23
ENDBRANCH   4   7
BRANCH   1  25
ATOM     25  O   UNL     1       2.447   7.128  19.835  0.00  0.00    +0.000 OA
BRANCH  25  26
ATOM     26  C   UNL     1       1.895   6.126  20.685  0.00  0.00    +0.000 C 
BRANCH  26  27
ATOM     27  C   UNL     1       1.987   4.820  19.908  0.00  0.00    +0.000 C 
BRANCH  27  28
ATOM     28  N   UNL     1       1.037   3.854  20.446  0.00  0.00    +0.000 NA
ATOM     29  H   UNL     1       1.488   3.333  21.196  0.00  0.00    +0.000 HD
BRANCH  28  30
ATOM     30  C   UNL     1       0.609   2.946  19.392  0.00  0.00    +0.000 C 
BRANCH  30  31
ATOM     31  C   UNL     1       1.612   3.034  18.253  0.00  0.00    +0.000 C 
BRANCH  31  32
ATOM     32  C   UNL     1       2.530   1.826  18.281  0.00  0.00    +0.000 C 
BRANCH  32  33
ATOM     33  C   UNL     1       3.864   2.157  17.631  0.00  0.00    +0.000 C 
BRANCH  33  34
ATOM     34  C   UNL     1       3.870   3.602  17.159  0.00  0.00    +0.000 C 
BRANCH  34  35
ATOM     35  C   UNL     1       5.266   4.193  17.285  0.00  0.00    +0.000 C 
BRANCH  35  36
ATOM     36  C   UNL     1       5.416   5.415  16.387  0.00  0.00    +0.000 C 
BRANCH  36  37
ATOM     37  C   UNL     1       6.857   5.910  16.397  0.00  0.00    +0.000 C 
BRANCH  37  39
ATOM     38  C   UNL     1       7.892   6.480  18.607  0.00  0.00    +0.000 C 
ATOM     39  C   UNL     1       7.058   6.995  17.449  0.00  0.00    +0.000 C 
ENDBRANCH  37  39
ENDBRANCH  36  37
ENDBRANCH  35  36
ENDBRANCH  34  35
ENDBRANCH  33  34
ENDBRANCH  32  33
ENDBRANCH  31  32
ENDBRANCH  30  31
ENDBRANCH  28  30
ENDBRANCH  27  28
ENDBRANCH  26  27
ENDBRANCH  25  26
ENDBRANCH   1  25
TORSDOF 18
ENDMDL
MODEL 2
REMARK VINA RESULT:      -6.7      2.804      3.795
REMARK  Name = 
REMARK  20 active torsions:
REMARK  status: ('A' for Active; 'I' for Inactive)
REMARK    1  A    between atoms: C_1  and  C_2
REMARK    2  A    between atoms: C_2  and  C_3
REMARK    3  A    between atoms: C_3  and  C_4
REMARK    4  A    between atoms: C_4  and  C_5
REMARK    5  A    between atoms: C_5  and  C_6
REMARK    6  A    between atoms: C_6  and  C_7
REMARK    7  A    between atoms: C_7  and  C_8
REMARK    8  A    between atoms: C_8  and  C_9
REMARK    9  A    between atoms: C_9  and  C_10
REMARK   10  A    between atoms: C_10  and  N_11
REMARK   11  A    between atoms: N_11  and  C_12
REMARK   12  A    between atoms: C_12  and  C_13
REMARK   13  A    between atoms: C_13  and  O_14
REMARK   14  A    between atoms: O_14  and  C_15
REMARK   15  A    between atoms: C_18  and  C_19
REMARK   16  A    between atoms: C_19  and  C_29
REMARK   17  A    between atoms: C_20  and  C_21
REMARK   18  A    between atoms: C_20  and  C_23
REMARK   19  A    between atoms: C_21  and  C_22
REMARK   20  A    between atoms: C_32  and  O_33
REMARK                            x       y       z     vdW  Elec       q    Type
REMARK                         _______ _______ _______ _____ _____    ______ ____
ROOT
ATOM      1  C   UNL     1       0.055   9.965  20.494  0.00  0.00    +0.000 A 
ATOM      2  C   UNL     1       0.054  10.235  21.856  0.00  0.00    +0.000 A 
ATOM      3  C   UNL     1      -0.787  11.231  22.380  0.00  0.00    +0.000 A 
ATOM      4  C   UNL     1      -1.551  12.050  21.531  0.00  0.00    +0.000 A 
ATOM      5  C   UNL     1      -1.571  11.737  20.167  0.00  0.00    +0.000 A 
ATOM      6  C   UNL     1      -0.785  10.686  19.651  0.00  0.00    +0.000 A 
ENDROOT
BRANCH   4   7
ATOM      7  C   UNL     1      -2.373  13.176  22.081  0.00  0.00    +0.000 C 
ATOM      8  C   UNL     1      -1.901  14.479  22.081  0.00  0.00    +0.000 C 
BRANCH   7   9
ATOM      9  C   UNL     1      -3.724  12.912  22.627  0.00  0.00    +0.000 A 
ATOM     10  C   UNL     1      -4.863  13.000  21.800  0.00  0.00    +0.000 A 
ATOM     11  C   UNL     1      -6.147  12.916  22.346  0.00  0.00    +0.000 A 
ATOM     12  C   UNL     1      -6.297  12.714  23.716  0.00  0.00    +0.000 A 
ATOM     13  C   UNL     1      -5.183  12.538  24.532  0.00  0.00    +0.000 A 
ATOM     14  C   UNL     1      -3.899  12.642  23.988  0.00  0.00    +0.000 A 
BRANCH  12  15
ATOM     15  O   UNL     1      -7.524  12.708  24.306  0.00  0.00    +0.000 OA
ATOM     16  H   UNL     1      -8.174  12.358  23.674  0.00  0.00    +0.000 HD
ENDBRANCH  12  15
ENDBRANCH   7   9
BRANCH   8  17
ATOM     17  C   UNL     1      -0.608  14.895  21.415  0.00  0.00    +0.000 A 
ATOM     18  C   UNL     1      -0.604  15.441  20.116  0.00  0.00    +0.000 A 
ATOM     19  C   UNL     1       0.556  16.010  19.565  0.00  0.00    +0.000 A 
ATOM     20  C   UNL     1       1.727  16.060  20.322  0.00  0.00    +0.000 A 
ATOM     21  C   UNL     1       1.748  15.517  21.602  0.00  0.00    +0.000 A 
ATOM     22  C   UNL     1       0.596  14.929  22.140  0.00  0.00    +0.000 A 
ENDBRANCH   8  17
BRANCH   8  23
ATOM     23  C   UNL     1      -2.506  15.773  22.714  0.00  0.00    +0.000 C 
ATOM     24  C   UNL     1      -3.606  16.631  22.085  0.00  0.00    +0.000 C 
ENDBRANCH   8  23
ENDBRANCH   4   7
BRANCH   1  25
ATOM     25  O   UNL     1       0.955   9.015  20.125  0.00  0.00    +0.000 OA
BRANCH  25  26
ATOM     26  C   UNL     1       1.534   8.237  21.169  0.00  0.00    +0.000 C 
BRANCH  26  27
ATOM     27  C   UNL     1       1.289   6.782  20.795  0.00  0.00    +0.000 C 
BRANCH  27  28
ATOM     28  N   UNL     1       2.553   6.133  20.471  0.00  0.00    +0.000 NA
ATOM     29  H   UNL     1       2.762   6.295  19.487  0.00  0.00    +0.000 HD
BRANCH  28  30
ATOM     30  C   UNL     1       2.453   4.705  20.734  0.00  0.00    +0.000 C 
BRANCH  30  31
ATOM     31  C   UNL     1       1.058   4.246  20.343  0.00  0.00    +0.000 C 
BRANCH  31  32
ATOM     32  C   UNL     1       1.145   3.244  19.207  0.00  0.00    +0.000 C 
BRANCH  32  33
ATOM     33  C   UNL     1       1.559   3.937  17.918  0.00  0.00    +0.000 C 
BRANCH  33  34
ATOM     34  C   UNL     1       2.640   3.131  17.216  0.00  0.00    +0.000 C 
BRANCH  34  35
ATOM     35  C   UNL     1       4.015   3.689  17.551  0.00  0.00    +0.000 C 
BRANCH  35  36
ATOM     36  C   UNL     1       4.084   5.178  17.234  0.00  0.00    +0.000 C 
BRANCH  36  37
ATOM     37  C   UNL     1       5.469   5.548  16.719  0.00  0.00    +0.000 C 
BRANCH  37  39
ATOM     38  C   UNL     1       6.534   4.446  14.736  0.00  0.00    +0.000 C 
ATOM     39  C   UNL     1       5.525   5.482  15.197  0.00  0.00    +0.000 C 
ENDBRANCH  37  39
ENDBRANCH  36  37
ENDBRANCH  35  36
ENDBRANCH  34  35
ENDBRANCH  33  34
ENDBRANCH  32  33
ENDBRANCH  31  32
ENDBRANCH  30  31
ENDBRANCH  28  30
ENDBRANCH  27  28
ENDBRANCH  26  27
ENDBRANCH  25  26
ENDBRANCH   1  25
TORSDOF 18
ENDMDL
MODEL 3
REMARK VINA RESULT:      -6.7      2.351      3.193
REMARK  Name = 
REMARK  20 active torsions:
REMARK  status: ('A' for Active; 'I' for Inactive)
REMARK    1  A    between atoms: C_1  and  C_2
REMARK    2  A    between atoms: C_2  and  C_3
REMARK    3  A    between atoms: C_3  and  C_4
REMARK    4  A    between atoms: C_4  and  C_5
REMARK    5  A    between atoms: C_5  and  C_6
REMARK    6  A    between atoms: C_6  and  C_7
REMARK    7  A    between atoms: C_7  and  C_8
REMARK    8  A    between atoms: C_8  and  C_9
REMARK    9  A    between atoms: C_9  and  C_10
REMARK   10  A    between atoms: C_10  and  N_11
REMARK   11  A    between atoms: N_11  and  C_12
REMARK   12  A    between atoms: C_12  and  C_13
REMARK   13  A    between atoms: C_13  and  O_14
REMARK   14  A    between atoms: O_14  and  C_15
REMARK   15  A    between atoms: C_18  and  C_19
REMARK   16  A    between atoms: C_19  and  C_29
REMARK   17  A    between atoms: C_20  and  C_21
REMARK   18  A    between atoms: C_20  and  C_23
REMARK   19  A    between atoms: C_21  and  C_22
REMARK   20  A    between atoms: C_32  and  O_33
REMARK                            x       y       z     vdW  Elec       q    Type
REMARK                         _______ _______ _______ _____ _____    ______ ____
ROOT
ATOM      1  C   UNL     1       2.011   8.062  19.616  0.00  0.00    +0.000 A 
ATOM      2  C   UNL     1       1.961   8.638  18.353  0.00  0.00    +0.000 A 
ATOM      3  C   UNL     1       1.202   9.799  18.135  0.00  0.00    +0.000 A 
ATOM      4  C   UNL     1       0.389  10.331  19.150  0.00  0.00    +0.000 A 
ATOM      5  C   UNL     1       0.484   9.765  20.427  0.00  0.00    +0.000 A 
ATOM      6  C   UNL     1       1.307   8.645  20.664  0.00  0.00    +0.000 A 
ENDROOT
BRANCH   4   7
ATOM      7  C   UNL     1      -0.497  11.512  18.889  0.00  0.00    +0.000 C 
ATOM      8  C   UNL     1      -0.037  12.808  19.059  0.00  0.00    +0.000 C 
BRANCH   7   9
ATOM      9  C   UNL     1      -1.890  11.309  18.427  0.00  0.00    +0.000 A 
ATOM     10  C   UNL     1      -2.154  10.644  17.212  0.00  0.00    +0.000 A 
ATOM     11  C   UNL     1      -3.451  10.598  16.694  0.00  0.00    +0.000 A 
ATOM     12  C   UNL     1      -4.494  11.190  17.403  0.00  0.00    +0.000 A 
ATOM     13  C   UNL     1      -4.263  11.774  18.645  0.00  0.00    +0.000 A 
ATOM     14  C   UNL     1      -2.962  11.837  19.153  0.00  0.00    +0.000 A 
BRANCH  12  15
ATOM     15  O   UNL     1      -5.758  11.244  16.900  0.00  0.00    +0.000 OA
ATOM     16  H   UNL     1      -5.807  10.673  16.115  0.00  0.00    +0.000 HD
ENDBRANCH  12  15
ENDBRANCH   7   9
BRANCH   8  17
ATOM     17  C   UNL     1       1.403  13.145  19.377  0.00  0.00    +0.000 A 
ATOM     18  C   UNL     1       2.332  13.397  18.348  0.00  0.00    +0.000 A 
ATOM     19  C   UNL     1       3.613  13.900  18.628  0.00  0.00    +0.000 A 
ATOM     20  C   UNL     1       3.973  14.181  19.947  0.00  0.00    +0.000 A 
ATOM     21  C   UNL     1       3.074  13.929  20.977  0.00  0.00    +0.000 A 
ATOM     22  C   UNL     1       1.806  13.404  20.699  0.00  0.00    +0.000 A 
ENDBRANCH   8  17
BRANCH   8  23
ATOM     23  C   UNL     1      -0.802  14.169  18.986  0.00  0.00    +0.000 C 
ATOM     24  C   UNL     1      -0.163  15.523  18.668  0.00  0.00    +0.000 C 
ENDBRANCH   8  23
ENDBRANCH   4   7
BRANCH   1  25
ATOM     25  O   UNL     1       2.741   6.916  19.666  0.00  0.00    +0.000 OA
BRANCH  25  26
ATOM     26  C   UNL     1       2.228   5.795  18.951  0.00  0.00    +0.000 C 
BRANCH  26  27
ATOM     27  C   UNL     1       3.127   4.620  19.310  0.00  0.00    +0.000 C 
BRANCH  27  28
ATOM     28  N   UNL     1       4.420   4.764  18.654  0.00  0.00    +0.000 NA
ATOM     29  H   UNL     1       4.968   5.460  19.158  0.00  0.00    +0.000 HD
BRANCH  28  30
ATOM     30  C   UNL     1       4.227   5.181  17.273  0.00  0.00    +0.000 C 
BRANCH  30  31
ATOM     31  C   UNL     1       5.333   6.159  16.912  0.00  0.00    +0.000 C 
BRANCH  31  32
ATOM     32  C   UNL     1       6.377   5.464  16.058  0.00  0.00    +0.000 C 
BRANCH  32  33
ATOM     33  C   UNL     1       5.810   4.184  15.463  0.00  0.00    +0.000 C 
BRANCH  33  34
ATOM     34  C   UNL     1       6.219   4.060  14.005  0.00  0.00    +0.000 C 
BRANCH  34  35
ATOM     35  C   UNL     1       4.991   3.887  13.124  0.00  0.00    +0.000 C 
BRANCH  35  36
ATOM     36  C   UNL     1       5.334   3.084  11.875  0.00  0.00    +0.000 C 
BRANCH  36  37
ATOM     37  C   UNL     1       6.815   2.725  11.864  0.00  0.00    +0.000 C 
BRANCH  37  39
ATOM     38  C   UNL     1       6.173   0.404  11.170  0.00  0.00    +0.000 C 
ATOM     39  C   UNL     1       7.095   1.578  10.899  0.00  0.00    +0.000 C 
ENDBRANCH  37  39
ENDBRANCH  36  37
ENDBRANCH  35  36
ENDBRANCH  34  35
ENDBRANCH  33  34
ENDBRANCH  32  33
ENDBRANCH  31  32
ENDBRANCH  30  31
ENDBRANCH  28  30
ENDBRANCH  27  28
ENDBRANCH  26  27
ENDBRANCH  25  26
ENDBRANCH   1  25
TORSDOF 18
ENDMDL
MODEL 4
REMARK VINA RESULT:      -6.6      2.639      3.540
REMARK  Name = 
REMARK  20 active torsions:
REMARK  status: ('A' for Active; 'I' for Inactive)
REMARK    1  A    between atoms: C_1  and  C_2
REMARK    2  A    between atoms: C_2  and  C_3
REMARK    3  A    between atoms: C_3  and  C_4
REMARK    4  A    between atoms: C_4  and  C_5
REMARK    5  A    between atoms: C_5  and  C_6
REMARK    6  A    between atoms: C_6  and  C_7
REMARK    7  A    between atoms: C_7  and  C_8
REMARK    8  A    between atoms: C_8  and  C_9
REMARK    9  A    between atoms: C_9  and  C_10
REMARK   10  A    between atoms: C_10  and  N_11
REMARK   11  A    between atoms: N_11  and  C_12
REMARK   12  A    between atoms: C_12  and  C_13
REMARK   13  A    between atoms: C_13  and  O_14
REMARK   14  A    between atoms: O_14  and  C_15
REMARK   15  A    between atoms: C_18  and  C_19
REMARK   16  A    between atoms: C_19  and  C_29
REMARK   17  A    between atoms: C_20  and  C_21
REMARK   18  A    between atoms: C_20  and  C_23
REMARK   19  A    between atoms: C_21  and  C_22
REMARK   20  A    between atoms: C_32  and  O_33
REMARK                            x       y       z     vdW  Elec       q    Type
REMARK                         _______ _______ _______ _____ _____    ______ ____
ROOT
ATOM      1  C   UNL     1       0.506   9.334  21.628  0.00  0.00    +0.000 A 
ATOM      2  C   UNL     1       0.094   9.755  22.885  0.00  0.00    +0.000 A 
ATOM      3  C   UNL     1      -0.797  10.833  23.014  0.00  0.00    +0.000 A 
ATOM      4  C   UNL     1      -1.194  11.579  21.891  0.00  0.00    +0.000 A 
ATOM      5  C   UNL     1      -0.804  11.115  20.629  0.00  0.00    +0.000 A 
ATOM      6  C   UNL     1       0.029   9.985  20.496  0.00  0.00    +0.000 A 
ENDROOT
BRANCH   4   7
ATOM      7  C   UNL     1      -2.066  12.789  22.038  0.00  0.00    +0.000 C 
ATOM      8  C   UNL     1      -1.616  14.049  21.676  0.00  0.00    +0.000 C 
BRANCH   7   9
ATOM      9  C   UNL     1      -3.444  12.653  22.564  0.00  0.00    +0.000 A 
ATOM     10  C   UNL     1      -4.554  12.715  21.697  0.00  0.00    +0.000 A 
ATOM     11  C   UNL     1      -5.855  12.754  22.209  0.00  0.00    +0.000 A 
ATOM     12  C   UNL     1      -6.051  12.700  23.587  0.00  0.00    +0.000 A 
ATOM     13  C   UNL     1      -4.969  12.550  24.451  0.00  0.00    +0.000 A 
ATOM     14  C   UNL     1      -3.668  12.531  23.939  0.00  0.00    +0.000 A 
BRANCH  12  15
ATOM     15  O   UNL     1      -7.291  12.818  24.136  0.00  0.00    +0.000 OA
ATOM     16  H   UNL     1      -7.905  13.144  23.456  0.00  0.00    +0.000 HD
ENDBRANCH  12  15
ENDBRANCH   7   9
BRANCH   8  17
ATOM     17  C   UNL     1      -0.292  14.292  20.986  0.00  0.00    +0.000 A 
ATOM     18  C   UNL     1       0.919  14.248  21.705  0.00  0.00    +0.000 A 
ATOM     19  C   UNL     1       2.160  14.276  21.048  0.00  0.00    +0.000 A 
ATOM     20  C   UNL     1       2.204  14.326  19.654  0.00  0.00    +0.000 A 
ATOM     21  C   UNL     1       1.020  14.381  18.927  0.00  0.00    +0.000 A 
ATOM     22  C   UNL     1      -0.217  14.377  19.585  0.00  0.00    +0.000 A 
ENDBRANCH   8  17
BRANCH   8  23
ATOM     23  C   UNL     1      -2.279  15.451  21.863  0.00  0.00    +0.000 C 
ATOM     24  C   UNL     1      -2.449  16.174  23.201  0.00  0.00    +0.000 C 
ENDBRANCH   8  23
ENDBRANCH   4   7
BRANCH   1  25
ATOM     25  O   UNL     1       1.407   8.316  21.661  0.00  0.00    +0.000 OA
BRANCH  25  26
ATOM     26  C   UNL     1       1.588   7.578  20.455  0.00  0.00    +0.000 C 
BRANCH  26  27
ATOM     27  C   UNL     1       1.653   6.113  20.865  0.00  0.00    +0.000 C 
BRANCH  27  28
ATOM     28  N   UNL     1       2.786   5.465  20.216  0.00  0.00    +0.000 NA
ATOM     29  H   UNL     1       3.643   5.760  20.682  0.00  0.00    +0.000 HD
BRANCH  28  30
ATOM     30  C   UNL     1       2.826   5.837  18.810  0.00  0.00    +0.000 C 
BRANCH  30  31
ATOM     31  C   UNL     1       2.084   4.774  18.016  0.00  0.00    +0.000 C 
BRANCH  31  32
ATOM     32  C   UNL     1       3.069   3.758  17.469  0.00  0.00    +0.000 C 
BRANCH  32  33
ATOM     33  C   UNL     1       4.476   4.337  17.453  0.00  0.00    +0.000 C 
BRANCH  33  34
ATOM     34  C   UNL     1       4.987   4.428  16.025  0.00  0.00    +0.000 C 
BRANCH  34  35
ATOM     35  C   UNL     1       5.698   5.754  15.802  0.00  0.00    +0.000 C 
BRANCH  35  36
ATOM     36  C   UNL     1       7.046   5.768  16.513  0.00  0.00    +0.000 C 
BRANCH  36  37
ATOM     37  C   UNL     1       7.231   7.073  17.276  0.00  0.00    +0.000 C 
BRANCH  37  39
ATOM     38  C   UNL     1       7.539   5.606  19.284  0.00  0.00    +0.000 C 
ATOM     39  C   UNL     1       8.020   6.851  18.562  0.00  0.00    +0.000 C 
ENDBRANCH  37  39
ENDBRANCH  36  37
ENDBRANCH  35  36
ENDBRANCH  34  35
ENDBRANCH  33  34
ENDBRANCH  32  33
ENDBRANCH  31  32
ENDBRANCH  30  31
ENDBRANCH  28  30
ENDBRANCH  27  28
ENDBRANCH  26  27
ENDBRANCH  25  26
ENDBRANCH   1  25
TORSDOF 18
ENDMDL
MODEL 5
REMARK VINA RESULT:      -6.6      1.410      2.247
REMARK  Name = 
REMARK  20 active torsions:
REMARK  status: ('A' for Active; 'I' for Inactive)
REMARK    1  A    between atoms: C_1  and  C_2
REMARK    2  A    between atoms: C_2  and  C_3
REMARK    3  A    between atoms: C_3  and  C_4
REMARK    4  A    between atoms: C_4  and  C_5
REMARK    5  A    between atoms: C_5  and  C_6
REMARK    6  A    between atoms: C_6  and  C_7
REMARK    7  A    between atoms: C_7  and  C_8
REMARK    8  A    between atoms: C_8  and  C_9
REMARK    9  A    between atoms: C_9  and  C_10
REMARK   10  A    between atoms: C_10  and  N_11
REMARK   11  A    between atoms: N_11  and  C_12
REMARK   12  A    between atoms: C_12  and  C_13
REMARK   13  A    between atoms: C_13  and  O_14
REMARK   14  A    between atoms: O_14  and  C_15
REMARK   15  A    between atoms: C_18  and  C_19
REMARK   16  A    between atoms: C_19  and  C_29
REMARK   17  A    between atoms: C_20  and  C_21
REMARK   18  A    between atoms: C_20  and  C_23
REMARK   19  A    between atoms: C_21  and  C_22
REMARK   20  A    between atoms: C_32  and  O_33
REMARK                            x       y       z     vdW  Elec       q    Type
REMARK                         _______ _______ _______ _____ _____    ______ ____
ROOT
ATOM      1  C   UNL     1       1.473   8.494  19.988  0.00  0.00    +0.000 A 
ATOM      2  C   UNL     1       0.606   9.011  20.943  0.00  0.00    +0.000 A 
ATOM      3  C   UNL     1      -0.188  10.131  20.645  0.00  0.00    +0.000 A 
ATOM      4  C   UNL     1      -0.037  10.819  19.430  0.00  0.00    +0.000 A 
ATOM      5  C   UNL     1       0.808  10.261  18.463  0.00  0.00    +0.000 A 
ATOM      6  C   UNL     1       1.548   9.091  18.735  0.00  0.00    +0.000 A 
ENDROOT
BRANCH   4   7
ATOM      7  C   UNL     1      -0.813  12.071  19.151  0.00  0.00    +0.000 C 
ATOM      8  C   UNL     1      -0.245  13.324  19.325  0.00  0.00    +0.000 C 
BRANCH   7   9
ATOM      9  C   UNL     1      -2.210  11.988  18.667  0.00  0.00    +0.000 A 
ATOM     10  C   UNL     1      -3.289  12.264  19.531  0.00  0.00    +0.000 A 
ATOM     11  C   UNL     1      -4.605  12.025  19.125  0.00  0.00    +0.000 A 
ATOM     12  C   UNL     1      -4.849  11.538  17.844  0.00  0.00    +0.000 A 
ATOM     13  C   UNL     1      -3.801  11.343  16.948  0.00  0.00    +0.000 A 
ATOM     14  C   UNL     1      -2.483  11.564  17.362  0.00  0.00    +0.000 A 
BRANCH  12  15
ATOM     15  O   UNL     1      -6.105  11.211  17.432  0.00  0.00    +0.000 OA
ATOM     16  H   UNL     1      -6.040  10.544  16.727  0.00  0.00    +0.000 HD
ENDBRANCH  12  15
ENDBRANCH   7   9
BRANCH   8  17
ATOM     17  C   UNL     1       1.214  13.536  19.665  0.00  0.00    +0.000 A 
ATOM     18  C   UNL     1       2.187  13.640  18.652  0.00  0.00    +0.000 A 
ATOM     19  C   UNL     1       3.504  14.031  18.941  0.00  0.00    +0.000 A 
ATOM     20  C   UNL     1       3.860  14.346  20.253  0.00  0.00    +0.000 A 
ATOM     21  C   UNL     1       2.917  14.239  21.270  0.00  0.00    +0.000 A 
ATOM     22  C   UNL     1       1.609  13.826  20.983  0.00  0.00    +0.000 A 
ENDBRANCH   8  17
BRANCH   8  23
ATOM     23  C   UNL     1      -0.887  14.745  19.235  0.00  0.00    +0.000 C 
ATOM     24  C   UNL     1      -0.240  15.964  18.573  0.00  0.00    +0.000 C 
ENDBRANCH   8  23
ENDBRANCH   4   7
BRANCH   1  25
ATOM     25  O   UNL     1       2.213   7.444  20.434  0.00  0.00    +0.000 OA
BRANCH  25  26
ATOM     26  C   UNL     1       1.506   6.252  20.766  0.00  0.00    +0.000 C 
BRANCH  26  27
ATOM     27  C   UNL     1       2.383   5.099  20.298  0.00  0.00    +0.000 C 
BRANCH  27  28
ATOM     28  N   UNL     1       3.691   5.600  19.897  0.00  0.00    +0.000 NA
ATOM     29  H   UNL     1       3.741   6.595  20.113  0.00  0.00    +0.000 HD
BRANCH  28  30
ATOM     30  C   UNL     1       3.884   5.386  18.471  0.00  0.00    +0.000 C 
BRANCH  30  31
ATOM     31  C   UNL     1       4.343   6.696  17.851  0.00  0.00    +0.000 C 
BRANCH  31  32
ATOM     32  C   UNL     1       4.133   6.656  16.349  0.00  0.00    +0.000 C 
BRANCH  32  33
ATOM     33  C   UNL     1       5.463   6.488  15.631  0.00  0.00    +0.000 C 
BRANCH  33  34
ATOM     34  C   UNL     1       5.562   5.094  15.033  0.00  0.00    +0.000 C 
BRANCH  34  35
ATOM     35  C   UNL     1       6.351   4.178  15.956  0.00  0.00    +0.000 C 
BRANCH  35  36
ATOM     36  C   UNL     1       7.441   4.956  16.684  0.00  0.00    +0.000 C 
BRANCH  36  37
ATOM     37  C   UNL     1       7.412   4.644  18.174  0.00  0.00    +0.000 C 
BRANCH  37  39
ATOM     38  C   UNL     1       7.902   7.102  18.185  0.00  0.00    +0.000 C 
ATOM     39  C   UNL     1       7.942   5.816  18.992  0.00  0.00    +0.000 C 
ENDBRANCH  37  39
ENDBRANCH  36  37
ENDBRANCH  35  36
ENDBRANCH  34  35
ENDBRANCH  33  34
ENDBRANCH  32  33
ENDBRANCH  31  32
ENDBRANCH  30  31
ENDBRANCH  28  30
ENDBRANCH  27  28
ENDBRANCH  26  27
ENDBRANCH  25  26
ENDBRANCH   1  25
TORSDOF 18
ENDMDL
MODEL 6
REMARK VINA RESULT:      -6.6      0.952      1.872
REMARK  Name = 
REMARK  20 active torsions:
REMARK  status: ('A' for Active; 'I' for Inactive)
REMARK    1  A    between atoms: C_1  and  C_2
REMARK    2  A    between atoms: C_2  and  C_3
REMARK    3  A    between atoms: C_3  and  C_4
REMARK    4  A    between atoms: C_4  and  C_5
REMARK    5  A    between atoms: C_5  and  C_6
REMARK    6  A    between atoms: C_6  and  C_7
REMARK    7  A    between atoms: C_7  and  C_8
REMARK    8  A    between atoms: C_8  and  C_9
REMARK    9  A    between atoms: C_9  and  C_10
REMARK   10  A    between atoms: C_10  and  N_11
REMARK   11  A    between atoms: N_11  and  C_12
REMARK   12  A    between atoms: C_12  and  C_13
REMARK   13  A    between atoms: C_13  and  O_14
REMARK   14  A    between atoms: O_14  and  C_15
REMARK   15  A    between atoms: C_18  and  C_19
REMARK   16  A    between atoms: C_19  and  C_29
REMARK   17  A    between atoms: C_20  and  C_21
REMARK   18  A    between atoms: C_20  and  C_23
REMARK   19  A    between atoms: C_21  and  C_22
REMARK   20  A    between atoms: C_32  and  O_33
REMARK                            x       y       z     vdW  Elec       q    Type
REMARK                         _______ _______ _______ _____ _____    ______ ____
ROOT
ATOM      1  C   UNL     1       1.662   8.472  19.524  0.00  0.00    +0.000 A 
ATOM      2  C   UNL     1       0.906   8.971  20.576  0.00  0.00    +0.000 A 
ATOM      3  C   UNL     1       0.078  10.089  20.384  0.00  0.00    +0.000 A 
ATOM      4  C   UNL     1       0.088  10.794  19.169  0.00  0.00    +0.000 A 
ATOM      5  C   UNL     1       0.822  10.253  18.107  0.00  0.00    +0.000 A 
ATOM      6  C   UNL     1       1.593   9.085  18.278  0.00  0.00    +0.000 A 
ENDROOT
BRANCH   4   7
ATOM      7  C   UNL     1      -0.720  12.045  18.996  0.00  0.00    +0.000 C 
ATOM      8  C   UNL     1      -0.169  13.295  19.227  0.00  0.00    +0.000 C 
BRANCH   7   9
ATOM      9  C   UNL     1      -2.132  11.963  18.557  0.00  0.00    +0.000 A 
ATOM     10  C   UNL     1      -3.182  12.225  19.461  0.00  0.00    +0.000 A 
ATOM     11  C   UNL     1      -4.511  11.986  19.096  0.00  0.00    +0.000 A 
ATOM     12  C   UNL     1      -4.796  11.514  17.817  0.00  0.00    +0.000 A 
ATOM     13  C   UNL     1      -3.777  11.333  16.885  0.00  0.00    +0.000 A 
ATOM     14  C   UNL     1      -2.447  11.554  17.257  0.00  0.00    +0.000 A 
BRANCH  12  15
ATOM     15  O   UNL     1      -6.064  11.188  17.443  0.00  0.00    +0.000 OA
ATOM     16  H   UNL     1      -6.023  10.458  16.802  0.00  0.00    +0.000 HD
ENDBRANCH  12  15
ENDBRANCH   7   9
BRANCH   8  17
ATOM     17  C   UNL     1       1.297  13.516  19.527  0.00  0.00    +0.000 A 
ATOM     18  C   UNL     1       2.229  13.713  18.489  0.00  0.00    +0.000 A 
ATOM     19  C   UNL     1       3.548  14.112  18.756  0.00  0.00    +0.000 A 
ATOM     20  C   UNL     1       3.947  14.343  20.074  0.00  0.00    +0.000 A 
ATOM     21  C   UNL     1       3.046  14.144  21.114  0.00  0.00    +0.000 A 
ATOM     22  C   UNL     1       1.737  13.723  20.847  0.00  0.00    +0.000 A 
ENDBRANCH   8  17
BRANCH   8  23
ATOM     23  C   UNL     1      -0.839  14.707  19.248  0.00  0.00    +0.000 C 
ATOM     24  C   UNL     1      -0.259  15.968  18.604  0.00  0.00    +0.000 C 
ENDBRANCH   8  23
ENDBRANCH   4   7
BRANCH   1  25
ATOM     25  O   UNL     1       2.453   7.420  19.869  0.00  0.00    +0.000 OA
BRANCH  25  26
ATOM     26  C   UNL     1       2.260   6.206  19.149  0.00  0.00    +0.000 C 
BRANCH  26  27
ATOM     27  C   UNL     1       1.802   5.178  20.175  0.00  0.00    +0.000 C 
BRANCH  27  28
ATOM     28  N   UNL     1       1.334   3.975  19.498  0.00  0.00    +0.000 NA
ATOM     29  H   UNL     1       1.184   3.246  20.194  0.00  0.00    +0.000 HD
BRANCH  28  30
ATOM     30  C   UNL     1       2.323   3.543  18.522  0.00  0.00    +0.000 C 
BRANCH  30  31
ATOM     31  C   UNL     1       3.151   2.431  19.145  0.00  0.00    +0.000 C 
BRANCH  31  32
ATOM     32  C   UNL     1       4.490   2.979  19.601  0.00  0.00    +0.000 C 
BRANCH  32  33
ATOM     33  C   UNL     1       5.092   3.873  18.528  0.00  0.00    +0.000 C 
BRANCH  33  34
ATOM     34  C   UNL     1       5.795   5.058  19.169  0.00  0.00    +0.000 C 
BRANCH  34  35
ATOM     35  C   UNL     1       7.213   5.184  18.633  0.00  0.00    +0.000 C 
BRANCH  35  36
ATOM     36  C   UNL     1       7.284   4.719  17.184  0.00  0.00    +0.000 C 
BRANCH  36  37
ATOM     37  C   UNL     1       6.906   5.855  16.242  0.00  0.00    +0.000 C 
BRANCH  37  39
ATOM     38  C   UNL     1       6.076   3.904  14.905  0.00  0.00    +0.000 C 
ATOM     39  C   UNL     1       5.910   5.386  15.188  0.00  0.00    +0.000 C 
ENDBRANCH  37  39
ENDBRANCH  36  37
ENDBRANCH  35  36
ENDBRANCH  34  35
ENDBRANCH  33  34
ENDBRANCH  32  33
ENDBRANCH  31  32
ENDBRANCH  30  31
ENDBRANCH  28  30
ENDBRANCH  27  28
ENDBRANCH  26  27
ENDBRANCH  25  26
ENDBRANCH   1  25
TORSDOF 18
ENDMDL
MODEL 7
REMARK VINA RESULT:      -6.6      2.388      3.887
REMARK  Name = 
REMARK  20 active torsions:
REMARK  status: ('A' for Active; 'I' for Inactive)
REMARK    1  A    between atoms: C_1  and  C_2
REMARK    2  A    between atoms: C_2  and  C_3
REMARK    3  A    between atoms: C_3  and  C_4
REMARK    4  A    between atoms: C_4  and  C_5
REMARK    5  A    between atoms: C_5  and  C_6
REMARK    6  A    between atoms: C_6  and  C_7
REMARK    7  A    between atoms: C_7  and  C_8
REMARK    8  A    between atoms: C_8  and  C_9
REMARK    9  A    between atoms: C_9  and  C_10
REMARK   10  A    between atoms: C_10  and  N_11
REMARK   11  A    between atoms: N_11  and  C_12
REMARK   12  A    between atoms: C_12  and  C_13
REMARK   13  A    between atoms: C_13  and  O_14
REMARK   14  A    between atoms: O_14  and  C_15
REMARK   15  A    between atoms: C_18  and  C_19
REMARK   16  A    between atoms: C_19  and  C_29
REMARK   17  A    between atoms: C_20  and  C_21
REMARK   18  A    between atoms: C_20  and  C_23
REMARK   19  A    between atoms: C_21  and  C_22
REMARK   20  A    between atoms: C_32  and  O_33
REMARK                            x       y       z     vdW  Elec       q    Type
REMARK                         _______ _______ _______ _____ _____    ______ ____
ROOT
ATOM      1  C   UNL     1       1.137   9.269  19.197  0.00  0.00    +0.000 A 
ATOM      2  C   UNL     1       0.606  10.284  18.412  0.00  0.00    +0.000 A 
ATOM      3  C   UNL     1       0.070  11.435  19.013  0.00  0.00    +0.000 A 
ATOM      4  C   UNL     1      -0.048  11.532  20.409  0.00  0.00    +0.000 A 
ATOM      5  C   UNL     1       0.530  10.520  21.185  0.00  0.00    +0.000 A 
ATOM      6  C   UNL     1       1.137   9.400  20.581  0.00  0.00    +0.000 A 
ENDROOT
BRANCH   4   7
ATOM      7  C   UNL     1      -0.709  12.716  21.048  0.00  0.00    +0.000 C 
ATOM      8  C   UNL     1      -0.104  13.963  21.051  0.00  0.00    +0.000 C 
BRANCH   7   9
ATOM      9  C   UNL     1      -2.041  12.573  21.679  0.00  0.00    +0.000 A 
ATOM     10  C   UNL     1      -3.218  12.782  20.931  0.00  0.00    +0.000 A 
ATOM     11  C   UNL     1      -4.466  12.811  21.561  0.00  0.00    +0.000 A 
ATOM     12  C   UNL     1      -4.544  12.602  22.936  0.00  0.00    +0.000 A 
ATOM     13  C   UNL     1      -3.401  12.308  23.674  0.00  0.00    +0.000 A 
ATOM     14  C   UNL     1      -2.151  12.298  23.046  0.00  0.00    +0.000 A 
BRANCH  12  15
ATOM     15  O   UNL     1      -5.725  12.703  23.607  0.00  0.00    +0.000 OA
ATOM     16  H   UNL     1      -5.984  11.819  23.919  0.00  0.00    +0.000 HD
ENDBRANCH  12  15
ENDBRANCH   7   9
BRANCH   8  17
ATOM     17  C   UNL     1       1.177  14.268  20.307  0.00  0.00    +0.000 A 
ATOM     18  C   UNL     1       1.166  15.040  19.129  0.00  0.00    +0.000 A 
ATOM     19  C   UNL     1       2.357  15.494  18.540  0.00  0.00    +0.000 A 
ATOM     20  C   UNL     1       3.582  15.198  19.141  0.00  0.00    +0.000 A 
ATOM     21  C   UNL     1       3.616  14.428  20.299  0.00  0.00    +0.000 A 
ATOM     22  C   UNL     1       2.427  13.956  20.871  0.00  0.00    +0.000 A 
ENDBRANCH   8  17
BRANCH   8  23
ATOM     23  C   UNL     1      -0.526  15.289  21.761  0.00  0.00    +0.000 C 
ATOM     24  C   UNL     1       0.215  15.937  22.933  0.00  0.00    +0.000 C 
ENDBRANCH   8  23
ENDBRANCH   4   7
BRANCH   1  25
ATOM     25  O   UNL     1       1.571   8.196  18.482  0.00  0.00    +0.000 OA
BRANCH  25  26
ATOM     26  C   UNL     1       2.734   8.384  17.681  0.00  0.00    +0.000 C 
BRANCH  26  27
ATOM     27  C   UNL     1       3.631   7.184  17.954  0.00  0.00    +0.000 C 
BRANCH  27  28
ATOM     28  N   UNL     1       4.543   6.980  16.836  0.00  0.00    +0.000 NA
ATOM     29  H   UNL     1       4.080   7.274  15.978  0.00  0.00    +0.000 HD
BRANCH  28  30
ATOM     30  C   UNL     1       4.912   5.575  16.752  0.00  0.00    +0.000 C 
BRANCH  30  31
ATOM     31  C   UNL     1       4.948   5.008  18.162  0.00  0.00    +0.000 C 
BRANCH  31  32
ATOM     32  C   UNL     1       4.376   3.602  18.167  0.00  0.00    +0.000 C 
BRANCH  32  33
ATOM     33  C   UNL     1       3.048   3.566  17.428  0.00  0.00    +0.000 C 
BRANCH  33  34
ATOM     34  C   UNL     1       2.380   2.215  17.620  0.00  0.00    +0.000 C 
BRANCH  34  35
ATOM     35  C   UNL     1       2.181   1.929  19.101  0.00  0.00    +0.000 C 
BRANCH  35  36
ATOM     36  C   UNL     1       0.996   2.718  19.646  0.00  0.00    +0.000 C 
BRANCH  36  37
ATOM     37  C   UNL     1       1.219   3.065  21.113  0.00  0.00    +0.000 C 
BRANCH  37  39
ATOM     38  C   UNL     1       1.793   5.450  20.598  0.00  0.00    +0.000 C 
ATOM     39  C   UNL     1       2.260   4.169  21.265  0.00  0.00    +0.000 C 
ENDBRANCH  37  39
ENDBRANCH  36  37
ENDBRANCH  35  36
ENDBRANCH  34  35
ENDBRANCH  33  34
ENDBRANCH  32  33
ENDBRANCH  31  32
ENDBRANCH  30  31
ENDBRANCH  28  30
ENDBRANCH  27  28
ENDBRANCH  26  27
ENDBRANCH  25  26
ENDBRANCH   1  25
TORSDOF 18
ENDMDL
MODEL 8
REMARK VINA RESULT:      -6.6      0.658      1.361
REMARK  Name = 
REMARK  20 active torsions:
REMARK  status: ('A' for Active; 'I' for Inactive)
REMARK    1  A    between atoms: C_1  and  C_2
REMARK    2  A    between atoms: C_2  and  C_3
REMARK    3  A    between atoms: C_3  and  C_4
REMARK    4  A    between atoms: C_4  and  C_5
REMARK    5  A    between atoms: C_5  and  C_6
REMARK    6  A    between atoms: C_6  and  C_7
REMARK    7  A    between atoms: C_7  and  C_8
REMARK    8  A    between atoms: C_8  and  C_9
REMARK    9  A    between atoms: C_9  and  C_10
REMARK   10  A    between atoms: C_10  and  N_11
REMARK   11  A    between atoms: N_11  and  C_12
REMARK   12  A    between atoms: C_12  and  C_13
REMARK   13  A    between atoms: C_13  and  O_14
REMARK   14  A    between atoms: O_14  and  C_15
REMARK   15  A    between atoms: C_18  and  C_19
REMARK   16  A    between atoms: C_19  and  C_29
REMARK   17  A    between atoms: C_20  and  C_21
REMARK   18  A    between atoms: C_20  and  C_23
REMARK   19  A    between atoms: C_21  and  C_22
REMARK   20  A    between atoms: C_32  and  O_33
REMARK                            x       y       z     vdW  Elec       q    Type
REMARK                         _______ _______ _______ _____ _____    ______ ____
ROOT
ATOM      1  C   UNL     1       1.692   8.384  19.420  0.00  0.00    +0.000 A 
ATOM      2  C   UNL     1       0.932   8.897  20.462  0.00  0.00    +0.000 A 
ATOM      3  C   UNL     1       0.119  10.025  20.257  0.00  0.00    +0.000 A 
ATOM      4  C   UNL     1       0.148  10.722  19.038  0.00  0.00    +0.000 A 
ATOM      5  C   UNL     1       0.886  10.167  17.985  0.00  0.00    +0.000 A 
ATOM      6  C   UNL     1       1.642   8.991  18.170  0.00  0.00    +0.000 A 
ENDROOT
BRANCH   4   7
ATOM      7  C   UNL     1      -0.643  11.981  18.850  0.00  0.00    +0.000 C 
ATOM      8  C   UNL     1      -0.067  13.228  19.031  0.00  0.00    +0.000 C 
BRANCH   7   9
ATOM      9  C   UNL     1      -2.068  11.910  18.450  0.00  0.00    +0.000 A 
ATOM     10  C   UNL     1      -3.090  12.200  19.376  0.00  0.00    +0.000 A 
ATOM     11  C   UNL     1      -4.431  11.974  19.051  0.00  0.00    +0.000 A 
ATOM     12  C   UNL     1      -4.756  11.485  17.787  0.00  0.00    +0.000 A 
ATOM     13  C   UNL     1      -3.764  11.277  16.832  0.00  0.00    +0.000 A 
ATOM     14  C   UNL     1      -2.423  11.485  17.165  0.00  0.00    +0.000 A 
BRANCH  12  15
ATOM     15  O   UNL     1      -6.037  11.170  17.452  0.00  0.00    +0.000 OA
ATOM     16  H   UNL     1      -6.633  11.507  18.143  0.00  0.00    +0.000 HD
ENDBRANCH  12  15
ENDBRANCH   7   9
BRANCH   8  17
ATOM     17  C   UNL     1       1.410  13.432  19.288  0.00  0.00    +0.000 A 
ATOM     18  C   UNL     1       2.290  13.759  18.237  0.00  0.00    +0.000 A 
ATOM     19  C   UNL     1       3.618  14.142  18.488  0.00  0.00    +0.000 A 
ATOM     20  C   UNL     1       4.076  14.226  19.803  0.00  0.00    +0.000 A 
ATOM     21  C   UNL     1       3.226  13.898  20.854  0.00  0.00    +0.000 A 
ATOM     22  C   UNL     1       1.910  13.493  20.600  0.00  0.00    +0.000 A 
ENDBRANCH   8  17
BRANCH   8  23
ATOM     23  C   UNL     1      -0.714  14.651  19.029  0.00  0.00    +0.000 C 
ATOM     24  C   UNL     1      -1.186  15.406  20.273  0.00  0.00    +0.000 C 
ENDBRANCH   8  23
ENDBRANCH   4   7
BRANCH   1  25
ATOM     25  O   UNL     1       2.468   7.326  19.779  0.00  0.00    +0.000 OA
BRANCH  25  26
ATOM     26  C   UNL     1       2.055   6.584  20.924  0.00  0.00    +0.000 C 
BRANCH  26  27
ATOM     27  C   UNL     1       1.517   5.262  20.396  0.00  0.00    +0.000 C 
BRANCH  27  28
ATOM     28  N   UNL     1       2.032   4.160  21.199  0.00  0.00    +0.000 NA
ATOM     29  H   UNL     1       2.784   4.510  21.791  0.00  0.00    +0.000 HD
BRANCH  28  30
ATOM     30  C   UNL     1       2.528   3.106  20.327  0.00  0.00    +0.000 C 
BRANCH  30  31
ATOM     31  C   UNL     1       1.927   3.310  18.946  0.00  0.00    +0.000 C 
BRANCH  31  32
ATOM     32  C   UNL     1       2.551   2.336  17.963  0.00  0.00    +0.000 C 
BRANCH  32  33
ATOM     33  C   UNL     1       3.913   2.838  17.509  0.00  0.00    +0.000 C 
BRANCH  33  34
ATOM     34  C   UNL     1       3.851   4.330  17.225  0.00  0.00    +0.000 C 
BRANCH  34  35
ATOM     35  C   UNL     1       5.003   4.744  16.322  0.00  0.00    +0.000 C 
BRANCH  35  36
ATOM     36  C   UNL     1       6.326   4.677  17.074  0.00  0.00    +0.000 C 
BRANCH  36  37
ATOM     37  C   UNL     1       6.311   5.628  18.264  0.00  0.00    +0.000 C 
BRANCH  37  39
ATOM     38  C   UNL     1       7.680   7.635  17.650  0.00  0.00    +0.000 C 
ATOM     39  C   UNL     1       7.655   6.330  18.424  0.00  0.00    +0.000 C 
ENDBRANCH  37  39
ENDBRANCH  36  37
ENDBRANCH  35  36
ENDBRANCH  34  35
ENDBRANCH  33  34
ENDBRANCH  32  33
ENDBRANCH  31  32
ENDBRANCH  30  31
ENDBRANCH  28  30
ENDBRANCH  27  28
ENDBRANCH  26  27
ENDBRANCH  25  26
ENDBRANCH   1  25
TORSDOF 18
ENDMDL
MODEL 9
REMARK VINA RESULT:      -6.6      0.898      1.427
REMARK  Name = 
REMARK  20 active torsions:
REMARK  status: ('A' for Active; 'I' for Inactive)
REMARK    1  A    between atoms: C_1  and  C_2
REMARK    2  A    between atoms: C_2  and  C_3
REMARK    3  A    between atoms: C_3  and  C_4
REMARK    4  A    between atoms: C_4  and  C_5
REMARK    5  A    between atoms: C_5  and  C_6
REMARK    6  A    between atoms: C_6  and  C_7
REMARK    7  A    between atoms: C_7  and  C_8
REMARK    8  A    between atoms: C_8  and  C_9
REMARK    9  A    between atoms: C_9  and  C_10
REMARK   10  A    between atoms: C_10  and  N_11
REMARK   11  A    between atoms: N_11  and  C_12
REMARK   12  A    between atoms: C_12  and  C_13
REMARK   13  A    between atoms: C_13  and  O_14
REMARK   14  A    between atoms: O_14  and  C_15
REMARK   15  A    between atoms: C_18  and  C_19
REMARK   16  A    between atoms: C_19  and  C_29
REMARK   17  A    between atoms: C_20  and  C_21
REMARK   18  A    between atoms: C_20  and  C_23
REMARK   19  A    between atoms: C_21  and  C_22
REMARK   20  A    between atoms: C_32  and  O_33
REMARK                            x       y       z     vdW  Elec       q    Type
REMARK                         _______ _______ _______ _____ _____    ______ ____
ROOT
ATOM      1  C   UNL     1       1.444   8.517  20.345  0.00  0.00    +0.000 A 
ATOM      2  C   UNL     1       1.515   8.922  19.019  0.00  0.00    +0.000 A 
ATOM      3  C   UNL     1       0.906  10.121  18.612  0.00  0.00    +0.000 A 
ATOM      4  C   UNL     1       0.118  10.868  19.503  0.00  0.00    +0.000 A 
ATOM      5  C   UNL     1       0.093  10.469  20.845  0.00  0.00    +0.000 A 
ATOM      6  C   UNL     1       0.769   9.306  21.269  0.00  0.00    +0.000 A 
ENDROOT
BRANCH   4   7
ATOM      7  C   UNL     1      -0.613  12.094  19.045  0.00  0.00    +0.000 C 
ATOM      8  C   UNL     1       0.001  13.336  19.036  0.00  0.00    +0.000 C 
BRANCH   7   9
ATOM      9  C   UNL     1      -2.014  11.992  18.576  0.00  0.00    +0.000 A 
ATOM     10  C   UNL     1      -3.086  12.280  19.446  0.00  0.00    +0.000 A 
ATOM     11  C   UNL     1      -4.405  12.025  19.058  0.00  0.00    +0.000 A 
ATOM     12  C   UNL     1      -4.659  11.509  17.790  0.00  0.00    +0.000 A 
ATOM     13  C   UNL     1      -3.618  11.301  16.888  0.00  0.00    +0.000 A 
ATOM     14  C   UNL     1      -2.298  11.539  17.284  0.00  0.00    +0.000 A 
BRANCH  12  15
ATOM     15  O   UNL     1      -5.917  11.167  17.397  0.00  0.00    +0.000 OA
ATOM     16  H   UNL     1      -6.134  11.654  16.584  0.00  0.00    +0.000 HD
ENDBRANCH  12  15
ENDBRANCH   7   9
BRANCH   8  17
ATOM     17  C   UNL     1       1.468  13.542  19.343  0.00  0.00    +0.000 A 
ATOM     18  C   UNL     1       2.391  13.820  18.317  0.00  0.00    +0.000 A 
ATOM     19  C   UNL     1       3.711  14.206  18.605  0.00  0.00    +0.000 A 
ATOM     20  C   UNL     1       4.117  14.340  19.933  0.00  0.00    +0.000 A 
ATOM     21  C   UNL     1       3.223  14.060  20.962  0.00  0.00    +0.000 A 
ATOM     22  C   UNL     1       1.915  13.653  20.672  0.00  0.00    +0.000 A 
ENDBRANCH   8  17
BRANCH   8  23
ATOM     23  C   UNL     1      -0.590  14.752  18.740  0.00  0.00    +0.000 C 
ATOM     24  C   UNL     1      -0.974  15.787  19.800  0.00  0.00    +0.000 C 
ENDBRANCH   8  23
ENDBRANCH   4   7
BRANCH   1  25
ATOM     25  O   UNL     1       2.034   7.313  20.581  0.00  0.00    +0.000 OA
BRANCH  25  26
ATOM     26  C   UNL     1       2.393   6.538  19.441  0.00  0.00    +0.000 C 
BRANCH  26  27
ATOM     27  C   UNL     1       1.854   5.138  19.698  0.00  0.00    +0.000 C 
BRANCH  27  28
ATOM     28  N   UNL     1       2.836   4.356  20.440  0.00  0.00    +0.000 NA
ATOM     29  H   UNL     1       3.075   4.856  21.294  0.00  0.00    +0.000 HD
BRANCH  28  30
ATOM     30  C   UNL     1       4.024   4.158  19.624  0.00  0.00    +0.000 C 
BRANCH  30  31
ATOM     31  C   UNL     1       4.001   2.736  19.087  0.00  0.00    +0.000 C 
BRANCH  31  32
ATOM     32  C   UNL     1       3.785   2.755  17.585  0.00  0.00    +0.000 C 
BRANCH  32  33
ATOM     33  C   UNL     1       4.120   4.126  17.018  0.00  0.00    +0.000 C 
BRANCH  33  34
ATOM     34  C   UNL     1       5.070   3.986  15.841  0.00  0.00    +0.000 C 
BRANCH  34  35
ATOM     35  C   UNL     1       5.705   5.328  15.511  0.00  0.00    +0.000 C 
BRANCH  35  36
ATOM     36  C   UNL     1       7.113   5.414  16.087  0.00  0.00    +0.000 C 
BRANCH  36  37
ATOM     37  C   UNL     1       7.234   6.613  17.019  0.00  0.00    +0.000 C 
BRANCH  37  39
ATOM     38  C   UNL     1       7.898   5.669  19.244  0.00  0.00    +0.000 C 
ATOM     39  C   UNL     1       6.765   6.264  18.427  0.00  0.00    +0.000 C 
ENDBRANCH  37  39
ENDBRANCH  36  37
ENDBRANCH  35  36
ENDBRANCH  34  35
ENDBRANCH  33  34
ENDBRANCH  32  33
ENDBRANCH  31  32
ENDBRANCH  30  31
ENDBRANCH  28  30
ENDBRANCH  27  28
ENDBRANCH  26  27
ENDBRANCH  25  26
ENDBRANCH   1  25
TORSDOF 18
ENDMDL
