MODEL 1
REMARK VINA RESULT:      -6.6      0.000      0.000
REMARK  Name = 
REMARK  8 active torsions:
REMARK  status: ('A' for Active; 'I' for Inactive)
REMARK    1  A    between atoms: C_1  and  N_2
REMARK    2  A    between atoms: N_5  and  C_6
REMARK    3  A    between atoms: C_6  and  C_7
REMARK    4  A    between atoms: C_7  and  C_8
REMARK    5  A    between atoms: C_8  and  N_9
REMARK    6  A    between atoms: C_10  and  S_11
REMARK    7  A    between atoms: C_10  and  C_12
REMARK    8  A    between atoms: C_17  and  S_18
REMARK                            x       y       z     vdW  Elec       q    Type
REMARK                         _______ _______ _______ _____ _____    ______ ____
ROOT
ATOM      1  N   UNL     1       3.727   6.393  17.785  0.00  0.00    +0.000 NA
ATOM      2  C   UNL     1       4.790   5.684  17.893  0.00  0.00    +0.000 C 
ENDROOT
BRANCH   2   3
ATOM      3  C   UNL     1       5.591   5.353  16.678  0.00  0.00    +0.000 A 
ATOM      4  C   UNL     1       5.133   4.380  15.772  0.00  0.00    +0.000 A 
ATOM      5  C   UNL     1       5.861   4.095  14.620  0.00  0.00    +0.000 A 
ATOM      6  C   UNL     1       7.044   4.773  14.413  0.00  0.00    +0.000 A 
ATOM      7  N   UNL     1       7.530   5.696  15.265  0.00  0.00    +0.000 NA
ATOM      8  C   UNL     1       6.808   5.983  16.385  0.00  0.00    +0.000 A 
BRANCH   8   9
ATOM      9  S   UNL     1       7.561   7.279  17.340  0.00  0.00    +0.000 S 
ATOM     10  H   UNL     1       7.676   8.106  16.293  0.00  0.00    +0.000 HD
ENDBRANCH   8   9
ENDBRANCH   2   3
BRANCH   2  11
ATOM     11  S   UNL     1       5.417   5.036  19.409  0.00  0.00    +0.000 S 
ATOM     12  H   UNL     1       4.647   5.720  20.258  0.00  0.00    +0.000 HD
ENDBRANCH   2  11
BRANCH   1  13
ATOM     13  C   UNL     1       2.835   6.696  18.891  0.00  0.00    +0.000 C 
BRANCH  13  14
ATOM     14  C   UNL     1       1.891   5.507  19.078  0.00  0.00    +0.000 C 
BRANCH  14  15
ATOM     15  C   UNL     1       1.744   5.161  20.564  0.00  0.00    +0.000 C 
BRANCH  15  20
ATOM     16  C   UNL     1       3.781   1.387  18.375  0.00  0.00    +0.000 C 
ATOM     17  N   UNL     1       2.707   1.789  19.275  0.00  0.00    +0.000 NA
ATOM     18  C   UNL     1       1.762   2.703  18.612  0.00  0.00    +0.000 C 
ATOM     19  C   UNL     1       0.661   3.225  19.573  0.00  0.00    +0.000 C 
ATOM     20  N   UNL     1       1.164   3.834  20.828  0.00  0.00    +0.000 NA
ATOM     21  C   UNL     1       2.114   2.877  21.440  0.00  0.00    +0.000 C 
ATOM     22  C   UNL     1       3.247   2.410  20.499  0.00  0.00    +0.000 C 
ENDBRANCH  15  20
ENDBRANCH  14  15
ENDBRANCH  13  14
ENDBRANCH   1  13
TORSDOF 7
ENDMDL
MODEL 2
REMARK VINA RESULT:      -6.4      3.861      5.923
REMARK  Name = 
REMARK  8 active torsions:
REMARK  status: ('A' for Active; 'I' for Inactive)
REMARK    1  A    between atoms: C_1  and  N_2
REMARK    2  A    between atoms: N_5  and  C_6
REMARK    3  A    between atoms: C_6  and  C_7
REMARK    4  A    between atoms: C_7  and  C_8
REMARK    5  A    between atoms: C_8  and  N_9
REMARK    6  A    between atoms: C_10  and  S_11
REMARK    7  A    between atoms: C_10  and  C_12
REMARK    8  A    between atoms: C_17  and  S_18
REMARK                            x       y       z     vdW  Elec       q    Type
REMARK                         _______ _______ _______ _____ _____    ______ ____
ROOT
ATOM      1  N   UNL     1       3.682   7.004  17.559  0.00  0.00    +0.000 NA
ATOM      2  C   UNL     1       4.428   5.982  17.769  0.00  0.00    +0.000 C 
ENDROOT
BRANCH   2   3
ATOM      3  C   UNL     1       5.362   5.511  16.705  0.00  0.00    +0.000 A 
ATOM      4  C   UNL     1       4.938   4.555  15.765  0.00  0.00    +0.000 A 
ATOM      5  C   UNL     1       5.796   4.140  14.750  0.00  0.00    +0.000 A 
ATOM      6  C   UNL     1       7.068   4.673  14.714  0.00  0.00    +0.000 A 
ATOM      7  N   UNL     1       7.522   5.574  15.607  0.00  0.00    +0.000 NA
ATOM      8  C   UNL     1       6.674   5.988  16.591  0.00  0.00    +0.000 A 
BRANCH   8   9
ATOM      9  S   UNL     1       7.417   7.235  17.618  0.00  0.00    +0.000 S 
ATOM     10  H   UNL     1       6.241   7.765  17.979  0.00  0.00    +0.000 HD
ENDBRANCH   8   9
ENDBRANCH   2   3
BRANCH   2  11
ATOM     11  S   UNL     1       4.450   5.044  19.262  0.00  0.00    +0.000 S 
ATOM     12  H   UNL     1       3.135   4.881  19.422  0.00  0.00    +0.000 HD
ENDBRANCH   2  11
BRANCH   1  13
ATOM     13  C   UNL     1       2.681   7.488  18.495  0.00  0.00    +0.000 C 
BRANCH  13  14
ATOM     14  C   UNL     1       1.988   8.697  17.865  0.00  0.00    +0.000 C 
BRANCH  14  15
ATOM     15  C   UNL     1       1.222   9.495  18.926  0.00  0.00    +0.000 C 
BRANCH  15  20
ATOM     16  C   UNL     1      -0.647  12.419  22.264  0.00  0.00    +0.000 C 
ATOM     17  N   UNL     1      -0.327  12.300  20.847  0.00  0.00    +0.000 NA
ATOM     18  C   UNL     1      -1.076  11.200  20.216  0.00  0.00    +0.000 C 
ATOM     19  C   UNL     1      -0.686  10.986  18.729  0.00  0.00    +0.000 C 
ATOM     20  N   UNL     1       0.766  10.823  18.482  0.00  0.00    +0.000 NA
ATOM     21  C   UNL     1       1.464  11.947  19.147  0.00  0.00    +0.000 C 
ATOM     22  C   UNL     1       1.122  12.116  20.644  0.00  0.00    +0.000 C 
ENDBRANCH  15  20
ENDBRANCH  14  15
ENDBRANCH  13  14
ENDBRANCH   1  13
TORSDOF 7
ENDMDL
MODEL 3
REMARK VINA RESULT:      -6.3      5.859      7.698
REMARK  Name = 
REMARK  8 active torsions:
REMARK  status: ('A' for Active; 'I' for Inactive)
REMARK    1  A    between atoms: C_1  and  N_2
REMARK    2  A    between atoms: N_5  and  C_6
REMARK    3  A    between atoms: C_6  and  C_7
REMARK    4  A    between atoms: C_7  and  C_8
REMARK    5  A    between atoms: C_8  and  N_9
REMARK    6  A    between atoms: C_10  and  S_11
REMARK    7  A    between atoms: C_10  and  C_12
REMARK    8  A    between atoms: C_17  and  S_18
REMARK                            x       y       z     vdW  Elec       q    Type
REMARK                         _______ _______ _______ _____ _____    ______ ____
ROOT
ATOM      1  N   UNL     1       9.150  10.469  18.086  0.00  0.00    +0.000 NA
ATOM      2  C   UNL     1       9.709  11.347  18.836  0.00  0.00    +0.000 C 
ENDROOT
BRANCH   2   3
ATOM      3  C   UNL     1      10.378  12.532  18.223  0.00  0.00    +0.000 A 
ATOM      4  C   UNL     1      11.713  12.446  17.791  0.00  0.00    +0.000 A 
ATOM      5  C   UNL     1      12.328  13.539  17.188  0.00  0.00    +0.000 A 
ATOM      6  C   UNL     1      11.600  14.703  17.053  0.00  0.00    +0.000 A 
ATOM      7  N   UNL     1      10.326  14.836  17.474  0.00  0.00    +0.000 NA
ATOM      8  C   UNL     1       9.723  13.759  18.052  0.00  0.00    +0.000 A 
BRANCH   8   9
ATOM      9  S   UNL     1       8.027  14.096  18.462  0.00  0.00    +0.000 S 
ATOM     10  H   UNL     1       7.699  14.443  17.211  0.00  0.00    +0.000 HD
ENDBRANCH   8   9
ENDBRANCH   2   3
BRANCH   2  11
ATOM     11  S   UNL     1       9.762  11.277  20.597  0.00  0.00    +0.000 S 
ATOM     12  H   UNL     1       9.530   9.972  20.757  0.00  0.00    +0.000 HD
ENDBRANCH   2  11
BRANCH   1  13
ATOM     13  C   UNL     1       8.551   9.241  18.578  0.00  0.00    +0.000 C 
BRANCH  13  14
ATOM     14  C   UNL     1       7.934   8.504  17.388  0.00  0.00    +0.000 C 
BRANCH  14  15
ATOM     15  C   UNL     1       7.407   7.130  17.816  0.00  0.00    +0.000 C 
BRANCH  15  20
ATOM     16  C   UNL     1       3.631   4.324  18.840  0.00  0.00    +0.000 C 
ATOM     17  N   UNL     1       4.546   4.729  17.779  0.00  0.00    +0.000 NA
ATOM     18  C   UNL     1       5.937   4.371  18.102  0.00  0.00    +0.000 C 
ATOM     19  C   UNL     1       6.946   4.875  17.036  0.00  0.00    +0.000 C 
ATOM     20  N   UNL     1       6.851   6.320  16.719  0.00  0.00    +0.000 NA
ATOM     21  C   UNL     1       5.433   6.620  16.415  0.00  0.00    +0.000 C 
ATOM     22  C   UNL     1       4.437   6.175  17.509  0.00  0.00    +0.000 C 
ENDBRANCH  15  20
ENDBRANCH  14  15
ENDBRANCH  13  14
ENDBRANCH   1  13
TORSDOF 7
ENDMDL
MODEL 4
REMARK VINA RESULT:      -6.3      0.885      1.405
REMARK  Name = 
REMARK  8 active torsions:
REMARK  status: ('A' for Active; 'I' for Inactive)
REMARK    1  A    between atoms: C_1  and  N_2
REMARK    2  A    between atoms: N_5  and  C_6
REMARK    3  A    between atoms: C_6  and  C_7
REMARK    4  A    between atoms: C_7  and  C_8
REMARK    5  A    between atoms: C_8  and  N_9
REMARK    6  A    between atoms: C_10  and  S_11
REMARK    7  A    between atoms: C_10  and  C_12
REMARK    8  A    between atoms: C_17  and  S_18
REMARK                            x       y       z     vdW  Elec       q    Type
REMARK                         _______ _______ _______ _____ _____    ______ ____
ROOT
ATOM      1  N   UNL     1       3.657   6.367  17.617  0.00  0.00    +0.000 NA
ATOM      2  C   UNL     1       4.746   5.713  17.795  0.00  0.00    +0.000 C 
ENDROOT
BRANCH   2   3
ATOM      3  C   UNL     1       5.600   5.355  16.625  0.00  0.00    +0.000 A 
ATOM      4  C   UNL     1       5.177   4.366  15.718  0.00  0.00    +0.000 A 
ATOM      5  C   UNL     1       5.954   4.055  14.606  0.00  0.00    +0.000 A 
ATOM      6  C   UNL     1       7.150   4.722  14.440  0.00  0.00    +0.000 A 
ATOM      7  N   UNL     1       7.604   5.659  15.296  0.00  0.00    +0.000 NA
ATOM      8  C   UNL     1       6.833   5.971  16.376  0.00  0.00    +0.000 A 
BRANCH   8   9
ATOM      9  S   UNL     1       7.550   7.281  17.340  0.00  0.00    +0.000 S 
ATOM     10  H   UNL     1       7.332   6.663  18.508  0.00  0.00    +0.000 HD
ENDBRANCH   8   9
ENDBRANCH   2   3
BRANCH   2  11
ATOM     11  S   UNL     1       5.352   5.177  19.363  0.00  0.00    +0.000 S 
ATOM     12  H   UNL     1       4.183   4.961  19.970  0.00  0.00    +0.000 HD
ENDBRANCH   2  11
BRANCH   1  13
ATOM     13  C   UNL     1       2.717   6.688  18.677  0.00  0.00    +0.000 C 
BRANCH  13  14
ATOM     14  C   UNL     1       1.961   5.410  19.044  0.00  0.00    +0.000 C 
BRANCH  14  15
ATOM     15  C   UNL     1       1.725   4.546  17.800  0.00  0.00    +0.000 C 
BRANCH  15  20
ATOM     16  C   UNL     1       4.685   1.852  20.478  0.00  0.00    +0.000 C 
ATOM     17  N   UNL     1       3.419   1.849  19.755  0.00  0.00    +0.000 NA
ATOM     18  C   UNL     1       3.620   2.097  18.317  0.00  0.00    +0.000 C 
ATOM     19  C   UNL     1       2.283   2.195  17.535  0.00  0.00    +0.000 C 
ATOM     20  N   UNL     1       1.306   3.164  18.088  0.00  0.00    +0.000 NA
ATOM     21  C   UNL     1       1.155   2.874  19.532  0.00  0.00    +0.000 C 
ATOM     22  C   UNL     1       2.484   2.841  20.320  0.00  0.00    +0.000 C 
ENDBRANCH  15  20
ENDBRANCH  14  15
ENDBRANCH  13  14
ENDBRANCH   1  13
TORSDOF 7
ENDMDL
MODEL 5
REMARK VINA RESULT:      -6.3      3.997      6.019
REMARK  Name = 
REMARK  8 active torsions:
REMARK  status: ('A' for Active; 'I' for Inactive)
REMARK    1  A    between atoms: C_1  and  N_2
REMARK    2  A    between atoms: N_5  and  C_6
REMARK    3  A    between atoms: C_6  and  C_7
REMARK    4  A    between atoms: C_7  and  C_8
REMARK    5  A    between atoms: C_8  and  N_9
REMARK    6  A    between atoms: C_10  and  S_11
REMARK    7  A    between atoms: C_10  and  C_12
REMARK    8  A    between atoms: C_17  and  S_18
REMARK                            x       y       z     vdW  Elec       q    Type
REMARK                         _______ _______ _______ _____ _____    ______ ____
ROOT
ATOM      1  N   UNL     1       3.613   7.167  17.481  0.00  0.00    +0.000 NA
ATOM      2  C   UNL     1       4.364   6.165  17.757  0.00  0.00    +0.000 C 
ENDROOT
BRANCH   2   3
ATOM      3  C   UNL     1       5.306   5.634  16.728  0.00  0.00    +0.000 A 
ATOM      4  C   UNL     1       4.876   4.657  15.813  0.00  0.00    +0.000 A 
ATOM      5  C   UNL     1       5.741   4.186  14.830  0.00  0.00    +0.000 A 
ATOM      6  C   UNL     1       7.027   4.686  14.801  0.00  0.00    +0.000 A 
ATOM      7  N   UNL     1       7.487   5.606  15.672  0.00  0.00    +0.000 NA
ATOM      8  C   UNL     1       6.631   6.075  16.624  0.00  0.00    +0.000 A 
BRANCH   8   9
ATOM      9  S   UNL     1       7.386   7.337  17.622  0.00  0.00    +0.000 S 
ATOM     10  H   UNL     1       6.600   7.097  18.679  0.00  0.00    +0.000 HD
ENDBRANCH   8   9
ENDBRANCH   2   3
BRANCH   2  11
ATOM     11  S   UNL     1       4.386   5.321  19.306  0.00  0.00    +0.000 S 
ATOM     12  H   UNL     1       4.205   6.370  20.113  0.00  0.00    +0.000 HD
ENDBRANCH   2  11
BRANCH   1  13
ATOM     13  C   UNL     1       2.605   7.701  18.381  0.00  0.00    +0.000 C 
BRANCH  13  14
ATOM     14  C   UNL     1       2.160   9.061  17.841  0.00  0.00    +0.000 C 
BRANCH  14  15
ATOM     15  C   UNL     1       1.008   9.626  18.680  0.00  0.00    +0.000 C 
BRANCH  15  20
ATOM     16  C   UNL     1      -2.657  12.476  19.954  0.00  0.00    +0.000 C 
ATOM     17  N   UNL     1      -1.207  12.331  19.996  0.00  0.00    +0.000 NA
ATOM     18  C   UNL     1      -0.630  12.303  18.642  0.00  0.00    +0.000 C 
ATOM     19  C   UNL     1       0.902  12.053  18.651  0.00  0.00    +0.000 C 
ATOM     20  N   UNL     1       1.336  10.859  19.415  0.00  0.00    +0.000 NA
ATOM     21  C   UNL     1       0.717  10.937  20.758  0.00  0.00    +0.000 C 
ATOM     22  C   UNL     1      -0.818  11.121  20.745  0.00  0.00    +0.000 C 
ENDBRANCH  15  20
ENDBRANCH  14  15
ENDBRANCH  13  14
ENDBRANCH   1  13
TORSDOF 7
ENDMDL
MODEL 6
REMARK VINA RESULT:      -6.2      5.792      7.481
REMARK  Name = 
REMARK  8 active torsions:
REMARK  status: ('A' for Active; 'I' for Inactive)
REMARK    1  A    between atoms: C_1  and  N_2
REMARK    2  A    between atoms: N_5  and  C_6
REMARK    3  A    between atoms: C_6  and  C_7
REMARK    4  A    between atoms: C_7  and  C_8
REMARK    5  A    between atoms: C_8  and  N_9
REMARK    6  A    between atoms: C_10  and  S_11
REMARK    7  A    between atoms: C_10  and  C_12
REMARK    8  A    between atoms: C_17  and  S_18
REMARK                            x       y       z     vdW  Elec       q    Type
REMARK                         _______ _______ _______ _____ _____    ______ ____
ROOT
ATOM      1  N   UNL     1       9.131  10.224  18.120  0.00  0.00    +0.000 NA
ATOM      2  C   UNL     1       9.573  11.142  18.898  0.00  0.00    +0.000 C 
ENDROOT
BRANCH   2   3
ATOM      3  C   UNL     1      10.302  12.313  18.328  0.00  0.00    +0.000 A 
ATOM      4  C   UNL     1      11.654  12.193  17.960  0.00  0.00    +0.000 A 
ATOM      5  C   UNL     1      12.327  13.273  17.396  0.00  0.00    +0.000 A 
ATOM      6  C   UNL     1      11.638  14.458  17.237  0.00  0.00    +0.000 A 
ATOM      7  N   UNL     1      10.350  14.623  17.597  0.00  0.00    +0.000 NA
ATOM      8  C   UNL     1       9.690  13.558  18.136  0.00  0.00    +0.000 A 
BRANCH   8   9
ATOM      9  S   UNL     1       7.986  13.939  18.468  0.00  0.00    +0.000 S 
ATOM     10  H   UNL     1       7.917  14.877  17.514  0.00  0.00    +0.000 HD
ENDBRANCH   8   9
ENDBRANCH   2   3
BRANCH   2  11
ATOM     11  S   UNL     1       9.392  11.146  20.652  0.00  0.00    +0.000 S 
ATOM     12  H   UNL     1       9.315   9.829  20.854  0.00  0.00    +0.000 HD
ENDBRANCH   2  11
BRANCH   1  13
ATOM     13  C   UNL     1       8.486   9.006  18.581  0.00  0.00    +0.000 C 
BRANCH  13  14
ATOM     14  C   UNL     1       7.930   8.272  17.360  0.00  0.00    +0.000 C 
BRANCH  14  15
ATOM     15  C   UNL     1       6.857   7.261  17.780  0.00  0.00    +0.000 C 
BRANCH  15  20
ATOM     16  C   UNL     1       3.791   3.549  17.852  0.00  0.00    +0.000 C 
ATOM     17  N   UNL     1       5.166   3.947  18.127  0.00  0.00    +0.000 NA
ATOM     18  C   UNL     1       5.229   4.973  19.182  0.00  0.00    +0.000 C 
ATOM     19  C   UNL     1       6.671   5.488  19.431  0.00  0.00    +0.000 C 
ATOM     20  N   UNL     1       7.384   5.958  18.219  0.00  0.00    +0.000 NA
ATOM     21  C   UNL     1       7.278   4.894  17.195  0.00  0.00    +0.000 C 
ATOM     22  C   UNL     1       5.833   4.430  16.903  0.00  0.00    +0.000 C 
ENDBRANCH  15  20
ENDBRANCH  14  15
ENDBRANCH  13  14
ENDBRANCH   1  13
TORSDOF 7
ENDMDL
MODEL 7
REMARK VINA RESULT:      -6.2      3.560      5.688
REMARK  Name = 
REMARK  8 active torsions:
REMARK  status: ('A' for Active; 'I' for Inactive)
REMARK    1  A    between atoms: C_1  and  N_2
REMARK    2  A    between atoms: N_5  and  C_6
REMARK    3  A    between atoms: C_6  and  C_7
REMARK    4  A    between atoms: C_7  and  C_8
REMARK    5  A    between atoms: C_8  and  N_9
REMARK    6  A    between atoms: C_10  and  S_11
REMARK    7  A    between atoms: C_10  and  C_12
REMARK    8  A    between atoms: C_17  and  S_18
REMARK                            x       y       z     vdW  Elec       q    Type
REMARK                         _______ _______ _______ _____ _____    ______ ____
ROOT
ATOM      1  N   UNL     1       3.553   6.545  17.569  0.00  0.00    +0.000 NA
ATOM      2  C   UNL     1       4.472   5.666  17.738  0.00  0.00    +0.000 C 
ENDROOT
BRANCH   2   3
ATOM      3  C   UNL     1       5.398   5.332  16.617  0.00  0.00    +0.000 A 
ATOM      4  C   UNL     1       5.014   4.401  15.635  0.00  0.00    +0.000 A 
ATOM      5  C   UNL     1       5.862   4.114  14.570  0.00  0.00    +0.000 A 
ATOM      6  C   UNL     1       7.087   4.746  14.524  0.00  0.00    +0.000 A 
ATOM      7  N   UNL     1       7.504   5.627  15.455  0.00  0.00    +0.000 NA
ATOM      8  C   UNL     1       6.665   5.916  16.489  0.00  0.00    +0.000 A 
BRANCH   8   9
ATOM      9  S   UNL     1       7.349   7.156  17.564  0.00  0.00    +0.000 S 
ATOM     10  H   UNL     1       8.580   7.053  17.047  0.00  0.00    +0.000 HD
ENDBRANCH   8   9
ENDBRANCH   2   3
BRANCH   2  11
ATOM     11  S   UNL     1       4.750   4.780  19.237  0.00  0.00    +0.000 S 
ATOM     12  H   UNL     1       5.518   5.674  19.864  0.00  0.00    +0.000 HD
ENDBRANCH   2  11
BRANCH   1  13
ATOM     13  C   UNL     1       2.550   6.878  18.566  0.00  0.00    +0.000 C 
BRANCH  13  14
ATOM     14  C   UNL     1       2.147   8.339  18.364  0.00  0.00    +0.000 C 
BRANCH  14  15
ATOM     15  C   UNL     1       1.453   8.887  19.616  0.00  0.00    +0.000 C 
BRANCH  15  20
ATOM     16  C   UNL     1       1.562  13.523  20.911  0.00  0.00    +0.000 C 
ATOM     17  N   UNL     1       0.733  12.486  20.308  0.00  0.00    +0.000 NA
ATOM     18  C   UNL     1       0.480  11.384  21.250  0.00  0.00    +0.000 C 
ATOM     19  C   UNL     1      -0.321  10.220  20.607  0.00  0.00    +0.000 C 
ATOM     20  N   UNL     1       0.250   9.692  19.345  0.00  0.00    +0.000 NA
ATOM     21  C   UNL     1       0.493  10.844  18.446  0.00  0.00    +0.000 C 
ATOM     22  C   UNL     1       1.345  11.972  19.069  0.00  0.00    +0.000 C 
ENDBRANCH  15  20
ENDBRANCH  14  15
ENDBRANCH  13  14
ENDBRANCH   1  13
TORSDOF 7
ENDMDL
MODEL 8
REMARK VINA RESULT:      -6.1      6.076      7.925
REMARK  Name = 
REMARK  8 active torsions:
REMARK  status: ('A' for Active; 'I' for Inactive)
REMARK    1  A    between atoms: C_1  and  N_2
REMARK    2  A    between atoms: N_5  and  C_6
REMARK    3  A    between atoms: C_6  and  C_7
REMARK    4  A    between atoms: C_7  and  C_8
REMARK    5  A    between atoms: C_8  and  N_9
REMARK    6  A    between atoms: C_10  and  S_11
REMARK    7  A    between atoms: C_10  and  C_12
REMARK    8  A    between atoms: C_17  and  S_18
REMARK                            x       y       z     vdW  Elec       q    Type
REMARK                         _______ _______ _______ _____ _____    ______ ____
ROOT
ATOM      1  N   UNL     1       8.921  10.843  18.278  0.00  0.00    +0.000 NA
ATOM      2  C   UNL     1       9.212  11.799  19.081  0.00  0.00    +0.000 C 
ENDROOT
BRANCH   2   3
ATOM      3  C   UNL     1       9.368  13.189  18.559  0.00  0.00    +0.000 A 
ATOM      4  C   UNL     1       8.250  14.037  18.462  0.00  0.00    +0.000 A 
ATOM      5  C   UNL     1       8.399  15.344  18.008  0.00  0.00    +0.000 A 
ATOM      6  C   UNL     1       9.659  15.766  17.639  0.00  0.00    +0.000 A 
ATOM      7  N   UNL     1      10.752  14.980  17.696  0.00  0.00    +0.000 NA
ATOM      8  C   UNL     1      10.605  13.705  18.153  0.00  0.00    +0.000 A 
BRANCH   8   9
ATOM      9  S   UNL     1      12.162  12.851  18.237  0.00  0.00    +0.000 S 
ATOM     10  H   UNL     1      12.872  13.977  18.391  0.00  0.00    +0.000 HD
ENDBRANCH   8   9
ENDBRANCH   2   3
BRANCH   2  11
ATOM     11  S   UNL     1       9.454  11.614  20.818  0.00  0.00    +0.000 S 
ATOM     12  H   UNL     1       8.625  10.590  21.033  0.00  0.00    +0.000 HD
ENDBRANCH   2  11
BRANCH   1  13
ATOM     13  C   UNL     1       8.833   9.447  18.671  0.00  0.00    +0.000 C 
BRANCH  13  14
ATOM     14  C   UNL     1       7.903   8.734  17.687  0.00  0.00    +0.000 C 
BRANCH  14  15
ATOM     15  C   UNL     1       7.846   7.233  17.988  0.00  0.00    +0.000 C 
BRANCH  15  20
ATOM     16  C   UNL     1       3.907   4.630  18.936  0.00  0.00    +0.000 C 
ATOM     17  N   UNL     1       4.883   4.959  17.904  0.00  0.00    +0.000 NA
ATOM     18  C   UNL     1       6.242   4.552  18.299  0.00  0.00    +0.000 C 
ATOM     19  C   UNL     1       7.317   4.975  17.262  0.00  0.00    +0.000 C 
ATOM     20  N   UNL     1       7.300   6.411  16.895  0.00  0.00    +0.000 NA
ATOM     21  C   UNL     1       5.911   6.762  16.520  0.00  0.00    +0.000 C 
ATOM     22  C   UNL     1       4.851   6.398  17.583  0.00  0.00    +0.000 C 
ENDBRANCH  15  20
ENDBRANCH  14  15
ENDBRANCH  13  14
ENDBRANCH   1  13
TORSDOF 7
ENDMDL
MODEL 9
REMARK VINA RESULT:      -6.1      4.304      6.768
REMARK  Name = 
REMARK  8 active torsions:
REMARK  status: ('A' for Active; 'I' for Inactive)
REMARK    1  A    between atoms: C_1  and  N_2
REMARK    2  A    between atoms: N_5  and  C_6
REMARK    3  A    between atoms: C_6  and  C_7
REMARK    4  A    between atoms: C_7  and  C_8
REMARK    5  A    between atoms: C_8  and  N_9
REMARK    6  A    between atoms: C_10  and  S_11
REMARK    7  A    between atoms: C_10  and  C_12
REMARK    8  A    between atoms: C_17  and  S_18
REMARK                            x       y       z     vdW  Elec       q    Type
REMARK                         _______ _______ _______ _____ _____    ______ ____
ROOT
ATOM      1  N   UNL     1       1.914   8.900  19.096  0.00  0.00    +0.000 NA
ATOM      2  C   UNL     1       0.782   9.467  19.301  0.00  0.00    +0.000 C 
ENDROOT
BRANCH   2   3
ATOM      3  C   UNL     1       0.313   9.710  20.697  0.00  0.00    +0.000 A 
ATOM      4  C   UNL     1      -0.212   8.652  21.461  0.00  0.00    +0.000 A 
ATOM      5  C   UNL     1      -0.618   8.867  22.774  0.00  0.00    +0.000 A 
ATOM      6  C   UNL     1      -0.511  10.144  23.287  0.00  0.00    +0.000 A 
ATOM      7  N   UNL     1      -0.035  11.190  22.584  0.00  0.00    +0.000 NA
ATOM      8  C   UNL     1       0.374  10.972  21.302  0.00  0.00    +0.000 A 
BRANCH   8   9
ATOM      9  S   UNL     1       1.047  12.443  20.567  0.00  0.00    +0.000 S 
ATOM     10  H   UNL     1       0.993  11.953  19.321  0.00  0.00    +0.000 HD
ENDBRANCH   8   9
ENDBRANCH   2   3
BRANCH   2  11
ATOM     11  S   UNL     1      -0.316  10.009  18.032  0.00  0.00    +0.000 S 
ATOM     12  H   UNL     1      -0.722   8.816  17.589  0.00  0.00    +0.000 HD
ENDBRANCH   2  11
BRANCH   1  13
ATOM     13  C   UNL     1       2.419   8.543  17.781  0.00  0.00    +0.000 C 
BRANCH  13  14
ATOM     14  C   UNL     1       3.231   7.255  17.919  0.00  0.00    +0.000 C 
BRANCH  14  15
ATOM     15  C   UNL     1       2.454   6.209  18.726  0.00  0.00    +0.000 C 
BRANCH  15  20
ATOM     16  C   UNL     1       4.483   2.127  20.278  0.00  0.00    +0.000 C 
ATOM     17  N   UNL     1       3.605   2.695  19.262  0.00  0.00    +0.000 NA
ATOM     18  C   UNL     1       4.308   3.692  18.438  0.00  0.00    +0.000 C 
ATOM     19  C   UNL     1       3.374   4.384  17.410  0.00  0.00    +0.000 C 
ATOM     20  N   UNL     1       2.142   4.975  17.985  0.00  0.00    +0.000 NA
ATOM     21  C   UNL     1       1.487   3.933  18.809  0.00  0.00    +0.000 C 
ATOM     22  C   UNL     1       2.403   3.292  19.875  0.00  0.00    +0.000 C 
ENDBRANCH  15  20
ENDBRANCH  14  15
ENDBRANCH  13  14
ENDBRANCH   1  13
TORSDOF 7
ENDMDL
