MODEL 1
REMARK VINA RESULT:      -7.9      0.000      0.000
REMARK  Name = 
REMARK  7 active torsions:
REMARK  status: ('A' for Active; 'I' for Inactive)
REMARK    1  A    between atoms: C_1  and  C_2
REMARK    2  A    between atoms: C_2  and  C_3
REMARK    3  A    between atoms: C_2  and  C_4
REMARK    4  A    between atoms: C_4  and  N_5
REMARK    5  A    between atoms: C_4  and  C_18
REMARK    6  A    between atoms: C_6  and  C_8
REMARK    7  A    between atoms: N_20  and  O_21
REMARK                            x       y       z     vdW  Elec       q    Type
REMARK                         _______ _______ _______ _____ _____    ______ ____
ROOT
ATOM      1  N   UNL     1       3.774   4.142  18.172  0.00  0.00    +0.000 N 
ATOM      2  C   UNL     1       4.041   5.411  17.711  0.00  0.00    +0.000 C 
ATOM      3  O   UNL     1       3.616   6.422  18.267  0.00  0.00    +0.000 OA
ATOM      4  H   UNL     1       4.297   3.379  17.742  0.00  0.00    +0.000 HD
ENDROOT
BRANCH   2   5
ATOM      5  C   UNL     1       4.862   5.480  16.414  0.00  0.00    +0.000 C 
ATOM      6  C   UNL     1       4.906   4.092  15.757  0.00  0.00    +0.000 C 
ATOM      7  C   UNL     1       5.754   4.178  14.513  0.00  0.00    +0.000 A 
ATOM      8  C   UNL     1       5.420   3.528  13.323  0.00  0.00    +0.000 A 
ATOM      9  C   UNL     1       6.246   3.657  12.208  0.00  0.00    +0.000 A 
ATOM     10  C   UNL     1       7.411   4.424  12.284  0.00  0.00    +0.000 A 
ATOM     11  C   UNL     1       7.755   5.062  13.476  0.00  0.00    +0.000 A 
ATOM     12  C   UNL     1       6.927   4.946  14.596  0.00  0.00    +0.000 A 
ATOM     13  C   UNL     1       7.302   5.531  15.933  0.00  0.00    +0.000 C 
ATOM     14  N   UNL     1       6.185   6.117  16.687  0.00  0.00    +0.000 NA
ATOM     15  H   UNL     1       6.101   7.099  16.420  0.00  0.00    +0.000 HD
ENDBRANCH   2   5
BRANCH   1  16
ATOM     16  C   UNL     1       3.090   3.918  19.443  0.00  0.00    +0.000 C 
BRANCH  16  17
ATOM     17  C   UNL     1       3.790   2.781  20.212  0.00  0.00    +0.000 C 
ATOM     18  O   UNL     1       3.486   2.437  21.356  0.00  0.00    +0.000 OA
ATOM     19  N   UNL     1       4.819   2.174  19.522  0.00  0.00    +0.000 N 
ATOM     20  H   UNL     1       4.858   2.177  18.507  0.00  0.00    +0.000 HD
BRANCH  19  21
ATOM     21  O   UNL     1       5.418   1.062  20.159  0.00  0.00    +0.000 OA
ATOM     22  H   UNL     1       5.006   0.300  19.695  0.00  0.00    +0.000 HD
ENDBRANCH  19  21
ENDBRANCH  16  17
BRANCH  16  24
ATOM     23  C   UNL     1       0.759   4.052  20.497  0.00  0.00    +0.000 C 
ATOM     24  C   UNL     1       1.570   3.698  19.248  0.00  0.00    +0.000 C 
ATOM     25  C   UNL     1       1.216   2.282  18.780  0.00  0.00    +0.000 C 
ENDBRANCH  16  24
ENDBRANCH   1  16
TORSDOF 5
ENDMDL
MODEL 2
REMARK VINA RESULT:      -7.6      3.813      6.939
REMARK  Name = 
REMARK  7 active torsions:
REMARK  status: ('A' for Active; 'I' for Inactive)
REMARK    1  A    between atoms: C_1  and  C_2
REMARK    2  A    between atoms: C_2  and  C_3
REMARK    3  A    between atoms: C_2  and  C_4
REMARK    4  A    between atoms: C_4  and  N_5
REMARK    5  A    between atoms: C_4  and  C_18
REMARK    6  A    between atoms: C_6  and  C_8
REMARK    7  A    between atoms: N_20  and  O_21
REMARK                            x       y       z     vdW  Elec       q    Type
REMARK                         _______ _______ _______ _____ _____    ______ ____
ROOT
ATOM      1  N   UNL     1       4.518   5.998  17.940  0.00  0.00    +0.000 N 
ATOM      2  C   UNL     1       3.651   5.552  18.912  0.00  0.00    +0.000 C 
ATOM      3  O   UNL     1       3.786   4.467  19.474  0.00  0.00    +0.000 OA
ATOM      4  H   UNL     1       4.418   6.970  17.649  0.00  0.00    +0.000 HD
ENDROOT
BRANCH   2   5
ATOM      5  C   UNL     1       2.462   6.480  19.209  0.00  0.00    +0.000 C 
ATOM      6  C   UNL     1       2.684   7.837  18.524  0.00  0.00    +0.000 C 
ATOM      7  C   UNL     1       1.528   8.742  18.868  0.00  0.00    +0.000 A 
ATOM      8  C   UNL     1       0.936   9.599  17.939  0.00  0.00    +0.000 A 
ATOM      9  C   UNL     1      -0.135  10.404  18.325  0.00  0.00    +0.000 A 
ATOM     10  C   UNL     1      -0.608  10.360  19.638  0.00  0.00    +0.000 A 
ATOM     11  C   UNL     1      -0.008   9.515  20.573  0.00  0.00    +0.000 A 
ATOM     12  C   UNL     1       1.061   8.698  20.193  0.00  0.00    +0.000 A 
ATOM     13  C   UNL     1       1.807   7.843  21.184  0.00  0.00    +0.000 C 
ATOM     14  N   UNL     1       2.211   6.523  20.681  0.00  0.00    +0.000 NA
ATOM     15  H   UNL     1       1.454   5.865  20.870  0.00  0.00    +0.000 HD
ENDBRANCH   2   5
BRANCH   1  16
ATOM     16  C   UNL     1       5.745   5.273  17.619  0.00  0.00    +0.000 C 
BRANCH  16  17
ATOM     17  C   UNL     1       6.890   5.773  18.521  0.00  0.00    +0.000 C 
ATOM     18  O   UNL     1       7.619   6.727  18.240  0.00  0.00    +0.000 OA
ATOM     19  N   UNL     1       7.061   5.048  19.682  0.00  0.00    +0.000 N 
ATOM     20  H   UNL     1       6.300   4.522  20.101  0.00  0.00    +0.000 HD
BRANCH  19  21
ATOM     21  O   UNL     1       8.038   5.540  20.579  0.00  0.00    +0.000 OA
ATOM     22  H   UNL     1       8.188   4.774  21.175  0.00  0.00    +0.000 HD
ENDBRANCH  19  21
ENDBRANCH  16  17
BRANCH  16  24
ATOM     23  C   UNL     1       5.219   6.365  15.362  0.00  0.00    +0.000 C 
ATOM     24  C   UNL     1       6.070   5.333  16.106  0.00  0.00    +0.000 C 
ATOM     25  C   UNL     1       5.969   3.972  15.409  0.00  0.00    +0.000 C 
ENDBRANCH  16  24
ENDBRANCH   1  16
TORSDOF 5
ENDMDL
MODEL 3
REMARK VINA RESULT:      -7.2      0.924      1.195
REMARK  Name = 
REMARK  7 active torsions:
REMARK  status: ('A' for Active; 'I' for Inactive)
REMARK    1  A    between atoms: C_1  and  C_2
REMARK    2  A    between atoms: C_2  and  C_3
REMARK    3  A    between atoms: C_2  and  C_4
REMARK    4  A    between atoms: C_4  and  N_5
REMARK    5  A    between atoms: C_4  and  C_18
REMARK    6  A    between atoms: C_6  and  C_8
REMARK    7  A    between atoms: N_20  and  O_21
REMARK                            x       y       z     vdW  Elec       q    Type
REMARK                         _______ _______ _______ _____ _____    ______ ____
ROOT
ATOM      1  N   UNL     1       4.044   4.155  17.836  0.00  0.00    +0.000 N 
ATOM      2  C   UNL     1       4.620   5.360  17.502  0.00  0.00    +0.000 C 
ATOM      3  O   UNL     1       4.583   6.340  18.243  0.00  0.00    +0.000 OA
ATOM      4  H   UNL     1       4.262   3.361  17.234  0.00  0.00    +0.000 HD
ENDROOT
BRANCH   2   5
ATOM      5  C   UNL     1       5.264   5.417  16.108  0.00  0.00    +0.000 C 
ATOM      6  C   UNL     1       5.264   4.014  15.482  0.00  0.00    +0.000 C 
ATOM      7  C   UNL     1       5.941   4.089  14.137  0.00  0.00    +0.000 A 
ATOM      8  C   UNL     1       5.476   3.400  13.016  0.00  0.00    +0.000 A 
ATOM      9  C   UNL     1       6.148   3.522  11.801  0.00  0.00    +0.000 A 
ATOM     10  C   UNL     1       7.290   4.321  11.708  0.00  0.00    +0.000 A 
ATOM     11  C   UNL     1       7.766   4.999  12.831  0.00  0.00    +0.000 A 
ATOM     12  C   UNL     1       7.093   4.890  14.051  0.00  0.00    +0.000 A 
ATOM     13  C   UNL     1       7.620   5.519  15.315  0.00  0.00    +0.000 C 
ATOM     14  N   UNL     1       6.592   6.095  16.194  0.00  0.00    +0.000 NA
ATOM     15  H   UNL     1       6.446   7.067  15.918  0.00  0.00    +0.000 HD
ENDBRANCH   2   5
BRANCH   1  16
ATOM     16  C   UNL     1       3.480   3.918  19.163  0.00  0.00    +0.000 C 
BRANCH  16  17
ATOM     17  C   UNL     1       3.796   2.477  19.608  0.00  0.00    +0.000 C 
ATOM     18  O   UNL     1       2.969   1.563  19.614  0.00  0.00    +0.000 OA
ATOM     19  N   UNL     1       5.095   2.281  20.029  0.00  0.00    +0.000 N 
ATOM     20  H   UNL     1       5.856   2.875  19.713  0.00  0.00    +0.000 HD
BRANCH  19  21
ATOM     21  O   UNL     1       5.446   0.949  20.351  0.00  0.00    +0.000 OA
ATOM     22  H   UNL     1       5.001   0.432  19.644  0.00  0.00    +0.000 HD
ENDBRANCH  19  21
ENDBRANCH  16  17
BRANCH  16  24
ATOM     23  C   UNL     1       1.361   4.465  17.832  0.00  0.00    +0.000 C 
ATOM     24  C   UNL     1       1.975   4.274  19.221  0.00  0.00    +0.000 C 
ATOM     25  C   UNL     1       1.672   5.493  20.098  0.00  0.00    +0.000 C 
ENDBRANCH  16  24
ENDBRANCH   1  16
TORSDOF 5
ENDMDL
MODEL 4
REMARK VINA RESULT:      -7.2      3.780      7.061
REMARK  Name = 
REMARK  7 active torsions:
REMARK  status: ('A' for Active; 'I' for Inactive)
REMARK    1  A    between atoms: C_1  and  C_2
REMARK    2  A    between atoms: C_2  and  C_3
REMARK    3  A    between atoms: C_2  and  C_4
REMARK    4  A    between atoms: C_4  and  N_5
REMARK    5  A    between atoms: C_4  and  C_18
REMARK    6  A    between atoms: C_6  and  C_8
REMARK    7  A    between atoms: N_20  and  O_21
REMARK                            x       y       z     vdW  Elec       q    Type
REMARK                         _______ _______ _______ _____ _____    ______ ____
ROOT
ATOM      1  N   UNL     1       5.224   6.052  17.793  0.00  0.00    +0.000 N 
ATOM      2  C   UNL     1       3.915   5.936  18.202  0.00  0.00    +0.000 C 
ATOM      3  O   UNL     1       3.272   4.895  18.080  0.00  0.00    +0.000 OA
ATOM      4  H   UNL     1       5.720   6.897  18.079  0.00  0.00    +0.000 HD
ENDROOT
BRANCH   2   5
ATOM      5  C   UNL     1       3.287   7.218  18.771  0.00  0.00    +0.000 C 
ATOM      6  C   UNL     1       2.172   6.850  19.762  0.00  0.00    +0.000 C 
ATOM      7  C   UNL     1       1.543   8.123  20.269  0.00  0.00    +0.000 A 
ATOM      8  C   UNL     1       1.171   8.304  21.602  0.00  0.00    +0.000 A 
ATOM      9  C   UNL     1       0.601   9.511  22.004  0.00  0.00    +0.000 A 
ATOM     10  C   UNL     1       0.392  10.532  21.074  0.00  0.00    +0.000 A 
ATOM     11  C   UNL     1       0.749  10.348  19.737  0.00  0.00    +0.000 A 
ATOM     12  C   UNL     1       1.330   9.145  19.327  0.00  0.00    +0.000 A 
ATOM     13  C   UNL     1       1.642   8.858  17.882  0.00  0.00    +0.000 C 
ATOM     14  N   UNL     1       2.896   8.127  17.653  0.00  0.00    +0.000 NA
ATOM     15  H   UNL     1       3.648   8.810  17.550  0.00  0.00    +0.000 HD
ENDBRANCH   2   5
BRANCH   1  16
ATOM     16  C   UNL     1       5.984   4.897  17.323  0.00  0.00    +0.000 C 
BRANCH  16  17
ATOM     17  C   UNL     1       7.279   4.762  18.147  0.00  0.00    +0.000 C 
ATOM     18  O   UNL     1       8.285   4.168  17.753  0.00  0.00    +0.000 OA
ATOM     19  N   UNL     1       7.225   5.347  19.395  0.00  0.00    +0.000 N 
ATOM     20  H   UNL     1       6.590   6.112  19.601  0.00  0.00    +0.000 HD
BRANCH  19  21
ATOM     21  O   UNL     1       8.428   5.327  20.139  0.00  0.00    +0.000 OA
ATOM     22  H   UNL     1       8.306   6.073  20.767  0.00  0.00    +0.000 HD
ENDBRANCH  19  21
ENDBRANCH  16  17
BRANCH  16  24
ATOM     23  C   UNL     1       5.406   6.047  15.108  0.00  0.00    +0.000 C 
ATOM     24  C   UNL     1       6.219   4.946  15.793  0.00  0.00    +0.000 C 
ATOM     25  C   UNL     1       5.972   3.603  15.097  0.00  0.00    +0.000 C 
ENDBRANCH  16  24
ENDBRANCH   1  16
TORSDOF 5
ENDMDL
MODEL 5
REMARK VINA RESULT:      -7.1      2.912      6.886
REMARK  Name = 
REMARK  7 active torsions:
REMARK  status: ('A' for Active; 'I' for Inactive)
REMARK    1  A    between atoms: C_1  and  C_2
REMARK    2  A    between atoms: C_2  and  C_3
REMARK    3  A    between atoms: C_2  and  C_4
REMARK    4  A    between atoms: C_4  and  N_5
REMARK    5  A    between atoms: C_4  and  C_18
REMARK    6  A    between atoms: C_6  and  C_8
REMARK    7  A    between atoms: N_20  and  O_21
REMARK                            x       y       z     vdW  Elec       q    Type
REMARK                         _______ _______ _______ _____ _____    ______ ____
ROOT
ATOM      1  N   UNL     1       5.647   5.954  17.673  0.00  0.00    +0.000 N 
ATOM      2  C   UNL     1       4.364   6.451  17.611  0.00  0.00    +0.000 C 
ATOM      3  O   UNL     1       4.065   7.431  16.930  0.00  0.00    +0.000 OA
ATOM      4  H   UNL     1       5.766   5.052  18.133  0.00  0.00    +0.000 HD
ENDROOT
BRANCH   2   5
ATOM      5  C   UNL     1       3.337   5.734  18.501  0.00  0.00    +0.000 C 
ATOM      6  C   UNL     1       3.978   4.484  19.123  0.00  0.00    +0.000 C 
ATOM      7  C   UNL     1       2.937   3.775  19.952  0.00  0.00    +0.000 A 
ATOM      8  C   UNL     1       3.221   3.203  21.194  0.00  0.00    +0.000 A 
ATOM      9  C   UNL     1       2.207   2.569  21.911  0.00  0.00    +0.000 A 
ATOM     10  C   UNL     1       0.915   2.497  21.385  0.00  0.00    +0.000 A 
ATOM     11  C   UNL     1       0.633   3.054  20.137  0.00  0.00    +0.000 A 
ATOM     12  C   UNL     1       1.641   3.700  19.415  0.00  0.00    +0.000 A 
ATOM     13  C   UNL     1       1.414   4.231  18.023  0.00  0.00    +0.000 C 
ATOM     14  N   UNL     1       2.075   5.511  17.734  0.00  0.00    +0.000 NA
ATOM     15  H   UNL     1       1.436   6.264  17.992  0.00  0.00    +0.000 HD
ENDBRANCH   2   5
BRANCH   1  16
ATOM     16  C   UNL     1       6.709   6.468  16.811  0.00  0.00    +0.000 C 
BRANCH  16  17
ATOM     17  C   UNL     1       7.129   5.380  15.805  0.00  0.00    +0.000 C 
ATOM     18  O   UNL     1       7.899   4.455  16.075  0.00  0.00    +0.000 OA
ATOM     19  N   UNL     1       6.588   5.528  14.545  0.00  0.00    +0.000 N 
ATOM     20  H   UNL     1       5.718   6.029  14.391  0.00  0.00    +0.000 HD
BRANCH  19  21
ATOM     21  O   UNL     1       6.873   4.493  13.624  0.00  0.00    +0.000 OA
ATOM     22  H   UNL     1       7.104   3.739  14.211  0.00  0.00    +0.000 HD
ENDBRANCH  19  21
ENDBRANCH  16  17
BRANCH  16  24
ATOM     23  C   UNL     1       8.006   6.411  19.020  0.00  0.00    +0.000 C 
ATOM     24  C   UNL     1       7.887   7.047  17.633  0.00  0.00    +0.000 C 
ATOM     25  C   UNL     1       7.846   8.574  17.760  0.00  0.00    +0.000 C 
ENDBRANCH  16  24
ENDBRANCH   1  16
TORSDOF 5
ENDMDL
MODEL 6
REMARK VINA RESULT:      -7.1      3.919      7.407
REMARK  Name = 
REMARK  7 active torsions:
REMARK  status: ('A' for Active; 'I' for Inactive)
REMARK    1  A    between atoms: C_1  and  C_2
REMARK    2  A    between atoms: C_2  and  C_3
REMARK    3  A    between atoms: C_2  and  C_4
REMARK    4  A    between atoms: C_4  and  N_5
REMARK    5  A    between atoms: C_4  and  C_18
REMARK    6  A    between atoms: C_6  and  C_8
REMARK    7  A    between atoms: N_20  and  O_21
REMARK                            x       y       z     vdW  Elec       q    Type
REMARK                         _______ _______ _______ _____ _____    ______ ____
ROOT
ATOM      1  N   UNL     1       3.812   6.169  18.194  0.00  0.00    +0.000 N 
ATOM      2  C   UNL     1       2.813   6.102  19.140  0.00  0.00    +0.000 C 
ATOM      3  O   UNL     1       2.289   5.042  19.476  0.00  0.00    +0.000 OA
ATOM      4  H   UNL     1       4.292   7.064  18.098  0.00  0.00    +0.000 HD
ENDROOT
BRANCH   2   5
ATOM      5  C   UNL     1       2.353   7.454  19.706  0.00  0.00    +0.000 C 
ATOM      6  C   UNL     1       1.126   7.244  20.607  0.00  0.00    +0.000 C 
ATOM      7  C   UNL     1       0.667   8.589  21.112  0.00  0.00    +0.000 A 
ATOM      8  C   UNL     1       0.233   8.796  22.422  0.00  0.00    +0.000 A 
ATOM      9  C   UNL     1      -0.171  10.069  22.824  0.00  0.00    +0.000 A 
ATOM     10  C   UNL     1      -0.152  11.130  21.916  0.00  0.00    +0.000 A 
ATOM     11  C   UNL     1       0.267  10.922  20.602  0.00  0.00    +0.000 A 
ATOM     12  C   UNL     1       0.682   9.651  20.192  0.00  0.00    +0.000 A 
ATOM     13  C   UNL     1       1.049   9.351  18.762  0.00  0.00    +0.000 C 
ATOM     14  N   UNL     1       2.188   8.437  18.594  0.00  0.00    +0.000 NA
ATOM     15  H   UNL     1       3.042   8.997  18.566  0.00  0.00    +0.000 HD
ENDBRANCH   2   5
BRANCH   1  16
ATOM     16  C   UNL     1       4.421   4.963  17.638  0.00  0.00    +0.000 C 
BRANCH  16  17
ATOM     17  C   UNL     1       5.107   4.166  18.763  0.00  0.00    +0.000 C 
ATOM     18  O   UNL     1       6.059   4.589  19.423  0.00  0.00    +0.000 OA
ATOM     19  N   UNL     1       4.583   2.907  18.971  0.00  0.00    +0.000 N 
ATOM     20  H   UNL     1       3.627   2.676  18.719  0.00  0.00    +0.000 HD
BRANCH  19  21
ATOM     21  O   UNL     1       5.124   2.185  20.062  0.00  0.00    +0.000 OA
ATOM     22  H   UNL     1       6.092   2.302  19.939  0.00  0.00    +0.000 HD
ENDBRANCH  19  21
ENDBRANCH  16  17
BRANCH  16  24
ATOM     23  C   UNL     1       5.087   6.673  15.849  0.00  0.00    +0.000 C 
ATOM     24  C   UNL     1       5.352   5.288  16.444  0.00  0.00    +0.000 C 
ATOM     25  C   UNL     1       5.315   4.228  15.339  0.00  0.00    +0.000 C 
ENDBRANCH  16  24
ENDBRANCH   1  16
TORSDOF 5
ENDMDL
MODEL 7
REMARK VINA RESULT:      -7.0      3.235      7.000
REMARK  Name = 
REMARK  7 active torsions:
REMARK  status: ('A' for Active; 'I' for Inactive)
REMARK    1  A    between atoms: C_1  and  C_2
REMARK    2  A    between atoms: C_2  and  C_3
REMARK    3  A    between atoms: C_2  and  C_4
REMARK    4  A    between atoms: C_4  and  N_5
REMARK    5  A    between atoms: C_4  and  C_18
REMARK    6  A    between atoms: C_6  and  C_8
REMARK    7  A    between atoms: N_20  and  O_21
REMARK                            x       y       z     vdW  Elec       q    Type
REMARK                         _______ _______ _______ _____ _____    ______ ____
ROOT
ATOM      1  N   UNL     1       5.540   4.005  13.926  0.00  0.00    +0.000 N 
ATOM      2  C   UNL     1       5.920   4.019  15.249  0.00  0.00    +0.000 C 
ATOM      3  O   UNL     1       7.007   3.589  15.631  0.00  0.00    +0.000 OA
ATOM      4  H   UNL     1       4.695   4.524  13.687  0.00  0.00    +0.000 HD
ENDROOT
BRANCH   2   5
ATOM      5  C   UNL     1       4.865   4.554  16.231  0.00  0.00    +0.000 C 
ATOM      6  C   UNL     1       5.098   6.053  16.470  0.00  0.00    +0.000 C 
ATOM      7  C   UNL     1       4.080   6.542  17.471  0.00  0.00    +0.000 A 
ATOM      8  C   UNL     1       3.434   7.773  17.352  0.00  0.00    +0.000 A 
ATOM      9  C   UNL     1       2.498   8.158  18.311  0.00  0.00    +0.000 A 
ATOM     10  C   UNL     1       2.215   7.320  19.391  0.00  0.00    +0.000 A 
ATOM     11  C   UNL     1       2.871   6.095  19.520  0.00  0.00    +0.000 A 
ATOM     12  C   UNL     1       3.804   5.697  18.559  0.00  0.00    +0.000 A 
ATOM     13  C   UNL     1       4.612   4.433  18.703  0.00  0.00    +0.000 C 
ATOM     14  N   UNL     1       4.831   3.694  17.452  0.00  0.00    +0.000 NA
ATOM     15  H   UNL     1       4.057   3.038  17.330  0.00  0.00    +0.000 HD
ENDBRANCH   2   5
BRANCH   1  16
ATOM     16  C   UNL     1       6.469   3.618  12.867  0.00  0.00    +0.000 C 
BRANCH  16  17
ATOM     17  C   UNL     1       7.398   4.803  12.537  0.00  0.00    +0.000 C 
ATOM     18  O   UNL     1       7.391   5.400  11.459  0.00  0.00    +0.000 OA
ATOM     19  N   UNL     1       8.273   5.141  13.549  0.00  0.00    +0.000 N 
ATOM     20  H   UNL     1       8.074   4.929  14.522  0.00  0.00    +0.000 HD
BRANCH  19  21
ATOM     21  O   UNL     1       9.071   6.285  13.317  0.00  0.00    +0.000 OA
ATOM     22  H   UNL     1       9.190   6.652  14.221  0.00  0.00    +0.000 HD
ENDBRANCH  19  21
ENDBRANCH  16  17
BRANCH  16  24
ATOM     23  C   UNL     1       4.227   3.336  11.660  0.00  0.00    +0.000 C 
ATOM     24  C   UNL     1       5.729   3.042  11.635  0.00  0.00    +0.000 C 
ATOM     25  C   UNL     1       5.965   1.542  11.432  0.00  0.00    +0.000 C 
ENDBRANCH  16  24
ENDBRANCH   1  16
TORSDOF 5
ENDMDL
MODEL 8
REMARK VINA RESULT:      -7.0      4.267      7.752
REMARK  Name = 
REMARK  7 active torsions:
REMARK  status: ('A' for Active; 'I' for Inactive)
REMARK    1  A    between atoms: C_1  and  C_2
REMARK    2  A    between atoms: C_2  and  C_3
REMARK    3  A    between atoms: C_2  and  C_4
REMARK    4  A    between atoms: C_4  and  N_5
REMARK    5  A    between atoms: C_4  and  C_18
REMARK    6  A    between atoms: C_6  and  C_8
REMARK    7  A    between atoms: N_20  and  O_21
REMARK                            x       y       z     vdW  Elec       q    Type
REMARK                         _______ _______ _______ _____ _____    ______ ____
ROOT
ATOM      1  N   UNL     1       3.473   6.269  18.632  0.00  0.00    +0.000 N 
ATOM      2  C   UNL     1       2.500   6.254  19.606  0.00  0.00    +0.000 C 
ATOM      3  O   UNL     1       1.997   5.213  20.025  0.00  0.00    +0.000 OA
ATOM      4  H   UNL     1       3.940   7.160  18.465  0.00  0.00    +0.000 HD
ENDROOT
BRANCH   2   5
ATOM      5  C   UNL     1       2.038   7.635  20.096  0.00  0.00    +0.000 C 
ATOM      6  C   UNL     1       0.765   7.483  20.942  0.00  0.00    +0.000 C 
ATOM      7  C   UNL     1       0.308   8.855  21.371  0.00  0.00    +0.000 A 
ATOM      8  C   UNL     1      -0.184   9.123  22.649  0.00  0.00    +0.000 A 
ATOM      9  C   UNL     1      -0.582  10.417  22.980  0.00  0.00    +0.000 A 
ATOM     10  C   UNL     1      -0.499  11.440  22.032  0.00  0.00    +0.000 A 
ATOM     11  C   UNL     1      -0.021  11.171  20.749  0.00  0.00    +0.000 A 
ATOM     12  C   UNL     1       0.389   9.879  20.412  0.00  0.00    +0.000 A 
ATOM     13  C   UNL     1       0.818   9.514  19.014  0.00  0.00    +0.000 C 
ATOM     14  N   UNL     1       1.946   8.575  18.939  0.00  0.00    +0.000 NA
ATOM     15  H   UNL     1       2.811   9.118  18.930  0.00  0.00    +0.000 HD
ENDBRANCH   2   5
BRANCH   1  16
ATOM     16  C   UNL     1       4.081   5.035  18.139  0.00  0.00    +0.000 C 
BRANCH  16  17
ATOM     17  C   UNL     1       5.244   4.628  19.065  0.00  0.00    +0.000 C 
ATOM     18  O   UNL     1       5.353   3.513  19.580  0.00  0.00    +0.000 OA
ATOM     19  N   UNL     1       6.163   5.629  19.300  0.00  0.00    +0.000 N 
ATOM     20  H   UNL     1       6.301   6.394  18.647  0.00  0.00    +0.000 HD
BRANCH  19  21
ATOM     21  O   UNL     1       7.295   5.260  20.066  0.00  0.00    +0.000 OA
ATOM     22  H   UNL     1       6.892   4.894  20.883  0.00  0.00    +0.000 HD
ENDBRANCH  19  21
ENDBRANCH  16  17
BRANCH  16  24
ATOM     23  C   UNL     1       5.484   4.071  16.224  0.00  0.00    +0.000 C 
ATOM     24  C   UNL     1       4.480   5.146  16.647  0.00  0.00    +0.000 C 
ATOM     25  C   UNL     1       5.004   6.533  16.260  0.00  0.00    +0.000 C 
ENDBRANCH  16  24
ENDBRANCH   1  16
TORSDOF 5
ENDMDL
MODEL 9
REMARK VINA RESULT:      -7.0      3.936      7.400
REMARK  Name = 
REMARK  7 active torsions:
REMARK  status: ('A' for Active; 'I' for Inactive)
REMARK    1  A    between atoms: C_1  and  C_2
REMARK    2  A    between atoms: C_2  and  C_3
REMARK    3  A    between atoms: C_2  and  C_4
REMARK    4  A    between atoms: C_4  and  N_5
REMARK    5  A    between atoms: C_4  and  C_18
REMARK    6  A    between atoms: C_6  and  C_8
REMARK    7  A    between atoms: N_20  and  O_21
REMARK                            x       y       z     vdW  Elec       q    Type
REMARK                         _______ _______ _______ _____ _____    ______ ____
ROOT
ATOM      1  N   UNL     1       4.421   6.542  17.906  0.00  0.00    +0.000 N 
ATOM      2  C   UNL     1       3.107   6.480  18.313  0.00  0.00    +0.000 C 
ATOM      3  O   UNL     1       2.406   5.485  18.139  0.00  0.00    +0.000 OA
ATOM      4  H   UNL     1       4.964   7.341  18.234  0.00  0.00    +0.000 HD
ENDROOT
BRANCH   2   5
ATOM      5  C   UNL     1       2.553   7.764  18.949  0.00  0.00    +0.000 C 
ATOM      6  C   UNL     1       1.561   7.401  20.065  0.00  0.00    +0.000 C 
ATOM      7  C   UNL     1       0.999   8.676  20.640  0.00  0.00    +0.000 A 
ATOM      8  C   UNL     1       0.787   8.860  22.007  0.00  0.00    +0.000 A 
ATOM      9  C   UNL     1       0.271  10.070  22.471  0.00  0.00    +0.000 A 
ATOM     10  C   UNL     1      -0.043  11.090  21.570  0.00  0.00    +0.000 A 
ATOM     11  C   UNL     1       0.154  10.902  20.201  0.00  0.00    +0.000 A 
ATOM     12  C   UNL     1       0.680   9.697  19.728  0.00  0.00    +0.000 A 
ATOM     13  C   UNL     1       0.819   9.407  18.256  0.00  0.00    +0.000 C 
ATOM     14  N   UNL     1       2.035   8.672  17.883  0.00  0.00    +0.000 NA
ATOM     15  H   UNL     1       2.772   9.354  17.692  0.00  0.00    +0.000 HD
ENDBRANCH   2   5
BRANCH   1  16
ATOM     16  C   UNL     1       5.114   5.371  17.375  0.00  0.00    +0.000 C 
BRANCH  16  17
ATOM     17  C   UNL     1       5.477   4.418  18.530  0.00  0.00    +0.000 C 
ATOM     18  O   UNL     1       6.315   4.678  19.396  0.00  0.00    +0.000 OA
ATOM     19  N   UNL     1       4.798   3.218  18.515  0.00  0.00    +0.000 N 
ATOM     20  H   UNL     1       3.893   3.120  18.064  0.00  0.00    +0.000 HD
BRANCH  19  21
ATOM     21  O   UNL     1       5.034   2.361  19.616  0.00  0.00    +0.000 OA
ATOM     22  H   UNL     1       5.783   1.809  19.302  0.00  0.00    +0.000 HD
ENDBRANCH  19  21
ENDBRANCH  16  17
BRANCH  16  24
ATOM     23  C   UNL     1       7.114   4.557  15.996  0.00  0.00    +0.000 C 
ATOM     24  C   UNL     1       6.320   5.769  16.490  0.00  0.00    +0.000 C 
ATOM     25  C   UNL     1       7.263   6.772  17.164  0.00  0.00    +0.000 C 
ENDBRANCH  16  24
ENDBRANCH   1  16
TORSDOF 5
ENDMDL
