MODEL 1
REMARK VINA RESULT:      -8.0      0.000      0.000
REMARK  Name = 
REMARK  3 active torsions:
REMARK  status: ('A' for Active; 'I' for Inactive)
REMARK    1  A    between atoms: C_1  and  C_2
REMARK    2  A    between atoms: C_5  and  C_6
REMARK    3  A    between atoms: C_10  and  C_12
REMARK                            x       y       z     vdW  Elec       q    Type
REMARK                         _______ _______ _______ _____ _____    ______ ____
ROOT
ATOM      1  C   UNL     1       6.285   5.561  14.972  0.00  0.00    +0.000 C 
ATOM      2  C   UNL     1       7.359   5.433  16.064  0.00  0.00    +0.000 C 
ATOM      3  C   UNL     1       7.072   4.350  17.103  0.00  0.00    +0.000 C 
ATOM      4  N   UNL     1       5.702   4.461  17.598  0.00  0.00    +0.000 N 
ATOM      5  C   UNL     1       5.487   4.794  18.947  0.00  0.00    +0.000 C 
ATOM      6  O   UNL     1       6.422   5.018  19.720  0.00  0.00    +0.000 OA
ATOM      7  C   UNL     1       4.700   4.325  16.547  0.00  0.00    +0.000 C 
ATOM      8  C   UNL     1       4.856   5.422  15.504  0.00  0.00    +0.000 C 
ENDROOT
BRANCH   5   9
ATOM      9  C   UNL     1       4.122   4.977  19.499  0.00  0.00    +0.000 A 
ATOM     10  C   UNL     1       3.549   3.913  20.214  0.00  0.00    +0.000 A 
ATOM     11  C   UNL     1       2.292   4.061  20.807  0.00  0.00    +0.000 A 
ATOM     12 BR   UNL     1       1.504   2.615  21.731  0.00  0.00    +0.000 Br
ATOM     13  C   UNL     1       1.603   5.274  20.711  0.00  0.00    +0.000 A 
ATOM     14  C   UNL     1       2.139   6.304  19.942  0.00  0.00    +0.000 A 
ATOM     15  C   UNL     1       3.362   6.131  19.299  0.00  0.00    +0.000 A 
ATOM     16  F   UNL     1       3.784   7.107  18.482  0.00  0.00    +0.000 F 
ENDBRANCH   5   9
BRANCH   1  21
ATOM     17  C   UNL     1       6.144   2.107  11.411  0.00  0.00    +0.000 C 
ATOM     18  C   UNL     1       6.509   3.263  12.247  0.00  0.00    +0.000 A 
ATOM     19  N   UNL     1       7.445   4.143  11.873  0.00  0.00    +0.000 NA
ATOM     20  O   UNL     1       7.452   5.066  12.913  0.00  0.00    +0.000 OA
ATOM     21  C   UNL     1       6.510   4.649  13.814  0.00  0.00    +0.000 A 
ATOM     22  N   UNL     1       5.900   3.543  13.450  0.00  0.00    +0.000 NA
ENDBRANCH   1  21
TORSDOF 2
ENDMDL
MODEL 2
REMARK VINA RESULT:      -7.9      1.587      1.872
REMARK  Name = 
REMARK  3 active torsions:
REMARK  status: ('A' for Active; 'I' for Inactive)
REMARK    1  A    between atoms: C_1  and  C_2
REMARK    2  A    between atoms: C_5  and  C_6
REMARK    3  A    between atoms: C_10  and  C_12
REMARK                            x       y       z     vdW  Elec       q    Type
REMARK                         _______ _______ _______ _____ _____    ______ ____
ROOT
ATOM      1  C   UNL     1       6.177   5.615  15.219  0.00  0.00    +0.000 C 
ATOM      2  C   UNL     1       7.244   5.536  16.323  0.00  0.00    +0.000 C 
ATOM      3  C   UNL     1       7.054   4.375  17.298  0.00  0.00    +0.000 C 
ATOM      4  N   UNL     1       5.673   4.320  17.772  0.00  0.00    +0.000 N 
ATOM      5  C   UNL     1       5.407   4.556  19.132  0.00  0.00    +0.000 C 
ATOM      6  O   UNL     1       6.303   4.831  19.934  0.00  0.00    +0.000 OA
ATOM      7  C   UNL     1       4.705   4.140  16.696  0.00  0.00    +0.000 C 
ATOM      8  C   UNL     1       4.762   5.302  15.715  0.00  0.00    +0.000 C 
ENDROOT
BRANCH   5   9
ATOM      9  C   UNL     1       4.023   4.570  19.666  0.00  0.00    +0.000 A 
ATOM     10  C   UNL     1       3.412   5.815  19.891  0.00  0.00    +0.000 A 
ATOM     11  C   UNL     1       2.088   5.878  20.333  0.00  0.00    +0.000 A 
ATOM     12 BR   UNL     1       1.282   7.552  20.676  0.00  0.00    +0.000 Br
ATOM     13  C   UNL     1       1.353   4.706  20.537  0.00  0.00    +0.000 A 
ATOM     14  C   UNL     1       1.981   3.472  20.383  0.00  0.00    +0.000 A 
ATOM     15  C   UNL     1       3.320   3.412  20.005  0.00  0.00    +0.000 A 
ATOM     16  F   UNL     1       3.910   2.209  19.978  0.00  0.00    +0.000 F 
ENDBRANCH   5   9
BRANCH   1  21
ATOM     17  C   UNL     1       6.417   2.386  11.458  0.00  0.00    +0.000 C 
ATOM     18  C   UNL     1       6.666   3.511  12.374  0.00  0.00    +0.000 A 
ATOM     19  N   UNL     1       7.548   4.477  12.090  0.00  0.00    +0.000 NA
ATOM     20  O   UNL     1       7.449   5.332  13.183  0.00  0.00    +0.000 OA
ATOM     21  C   UNL     1       6.509   4.794  14.019  0.00  0.00    +0.000 A 
ATOM     22  N   UNL     1       5.996   3.672  13.566  0.00  0.00    +0.000 NA
ENDBRANCH   1  21
TORSDOF 2
ENDMDL
MODEL 3
REMARK VINA RESULT:      -7.1      2.798      3.461
REMARK  Name = 
REMARK  3 active torsions:
REMARK  status: ('A' for Active; 'I' for Inactive)
REMARK    1  A    between atoms: C_1  and  C_2
REMARK    2  A    between atoms: C_5  and  C_6
REMARK    3  A    between atoms: C_10  and  C_12
REMARK                            x       y       z     vdW  Elec       q    Type
REMARK                         _______ _______ _______ _____ _____    ______ ____
ROOT
ATOM      1  C   UNL     1       6.105   4.494  16.929  0.00  0.00    +0.000 C 
ATOM      2  C   UNL     1       5.032   3.411  17.126  0.00  0.00    +0.000 C 
ATOM      3  C   UNL     1       3.610   3.870  16.804  0.00  0.00    +0.000 C 
ATOM      4  N   UNL     1       3.322   5.148  17.453  0.00  0.00    +0.000 N 
ATOM      5  C   UNL     1       2.337   5.199  18.454  0.00  0.00    +0.000 C 
ATOM      6  O   UNL     1       1.724   4.192  18.819  0.00  0.00    +0.000 OA
ATOM      7  C   UNL     1       4.223   6.217  17.038  0.00  0.00    +0.000 C 
ATOM      8  C   UNL     1       5.663   5.883  17.399  0.00  0.00    +0.000 C 
ENDROOT
BRANCH   5   9
ATOM      9  C   UNL     1       2.035   6.451  19.190  0.00  0.00    +0.000 A 
ATOM     10  C   UNL     1       2.004   7.655  18.465  0.00  0.00    +0.000 A 
ATOM     11  C   UNL     1       1.662   8.850  19.103  0.00  0.00    +0.000 A 
ATOM     12 BR   UNL     1       1.664  10.473  18.136  0.00  0.00    +0.000 Br
ATOM     13  C   UNL     1       1.328   8.858  20.460  0.00  0.00    +0.000 A 
ATOM     14  C   UNL     1       1.428   7.678  21.194  0.00  0.00    +0.000 A 
ATOM     15  C   UNL     1       1.832   6.500  20.571  0.00  0.00    +0.000 A 
ATOM     16  F   UNL     1       2.021   5.417  21.338  0.00  0.00    +0.000 F 
ENDBRANCH   5   9
BRANCH   1  21
ATOM     17  C   UNL     1       7.087   4.057  12.084  0.00  0.00    +0.000 C 
ATOM     18  C   UNL     1       7.095   4.471  13.497  0.00  0.00    +0.000 A 
ATOM     19  N   UNL     1       7.819   5.509  13.930  0.00  0.00    +0.000 NA
ATOM     20  O   UNL     1       7.519   5.566  15.286  0.00  0.00    +0.000 OA
ATOM     21  C   UNL     1       6.636   4.551  15.536  0.00  0.00    +0.000 A 
ATOM     22  N   UNL     1       6.341   3.847  14.466  0.00  0.00    +0.000 NA
ENDBRANCH   1  21
TORSDOF 2
ENDMDL
MODEL 4
REMARK VINA RESULT:      -7.0      5.187      7.861
REMARK  Name = 
REMARK  3 active torsions:
REMARK  status: ('A' for Active; 'I' for Inactive)
REMARK    1  A    between atoms: C_1  and  C_2
REMARK    2  A    between atoms: C_5  and  C_6
REMARK    3  A    between atoms: C_10  and  C_12
REMARK                            x       y       z     vdW  Elec       q    Type
REMARK                         _______ _______ _______ _____ _____    ______ ____
ROOT
ATOM      1  C   UNL     1       0.477   9.763  18.540  0.00  0.00    +0.000 C 
ATOM      2  C   UNL     1       0.247   9.073  19.895  0.00  0.00    +0.000 C 
ATOM      3  C   UNL     1       1.509   8.481  20.521  0.00  0.00    +0.000 C 
ATOM      4  N   UNL     1       2.245   7.684  19.542  0.00  0.00    +0.000 N 
ATOM      5  C   UNL     1       2.369   6.298  19.743  0.00  0.00    +0.000 C 
ATOM      6  O   UNL     1       1.854   5.731  20.710  0.00  0.00    +0.000 OA
ATOM      7  C   UNL     1       2.664   8.453  18.376  0.00  0.00    +0.000 C 
ATOM      8  C   UNL     1       1.459   9.013  17.635  0.00  0.00    +0.000 C 
ENDROOT
BRANCH   5   9
ATOM      9  C   UNL     1       3.055   5.425  18.760  0.00  0.00    +0.000 A 
ATOM     10  C   UNL     1       4.458   5.482  18.688  0.00  0.00    +0.000 A 
ATOM     11  C   UNL     1       5.152   4.633  17.822  0.00  0.00    +0.000 A 
ATOM     12 BR   UNL     1       7.033   4.742  17.695  0.00  0.00    +0.000 Br
ATOM     13  C   UNL     1       4.462   3.705  17.037  0.00  0.00    +0.000 A 
ATOM     14  C   UNL     1       3.069   3.697  17.055  0.00  0.00    +0.000 A 
ATOM     15  C   UNL     1       2.377   4.590  17.870  0.00  0.00    +0.000 A 
ATOM     16  F   UNL     1       1.040   4.621  17.772  0.00  0.00    +0.000 F 
ENDBRANCH   5   9
BRANCH   1  21
ATOM     17  C   UNL     1       2.611  14.243  18.464  0.00  0.00    +0.000 C 
ATOM     18  C   UNL     1       1.661  13.131  18.636  0.00  0.00    +0.000 A 
ATOM     19  N   UNL     1       0.383  13.335  18.977  0.00  0.00    +0.000 NA
ATOM     20  O   UNL     1      -0.151  12.051  19.001  0.00  0.00    +0.000 OA
ATOM     21  C   UNL     1       0.865  11.197  18.668  0.00  0.00    +0.000 A 
ATOM     22  N   UNL     1       2.002  11.812  18.433  0.00  0.00    +0.000 NA
ENDBRANCH   1  21
TORSDOF 2
ENDMDL
MODEL 5
REMARK VINA RESULT:      -7.0      1.827      2.129
REMARK  Name = 
REMARK  3 active torsions:
REMARK  status: ('A' for Active; 'I' for Inactive)
REMARK    1  A    between atoms: C_1  and  C_2
REMARK    2  A    between atoms: C_5  and  C_6
REMARK    3  A    between atoms: C_10  and  C_12
REMARK                            x       y       z     vdW  Elec       q    Type
REMARK                         _______ _______ _______ _____ _____    ______ ____
ROOT
ATOM      1  C   UNL     1       5.805   5.162  14.586  0.00  0.00    +0.000 C 
ATOM      2  C   UNL     1       7.035   5.234  15.505  0.00  0.00    +0.000 C 
ATOM      3  C   UNL     1       7.064   4.169  16.600  0.00  0.00    +0.000 C 
ATOM      4  N   UNL     1       5.780   4.108  17.295  0.00  0.00    +0.000 N 
ATOM      5  C   UNL     1       5.720   4.467  18.652  0.00  0.00    +0.000 C 
ATOM      6  O   UNL     1       6.715   4.854  19.269  0.00  0.00    +0.000 OA
ATOM      7  C   UNL     1       4.666   3.786  16.411  0.00  0.00    +0.000 C 
ATOM      8  C   UNL     1       4.505   4.847  15.332  0.00  0.00    +0.000 C 
ENDROOT
BRANCH   5   9
ATOM      9  C   UNL     1       4.439   4.481  19.400  0.00  0.00    +0.000 A 
ATOM     10  C   UNL     1       3.779   5.711  19.562  0.00  0.00    +0.000 A 
ATOM     11  C   UNL     1       2.539   5.763  20.204  0.00  0.00    +0.000 A 
ATOM     12 BR   UNL     1       1.674   7.423  20.459  0.00  0.00    +0.000 Br
ATOM     13  C   UNL     1       1.934   4.593  20.673  0.00  0.00    +0.000 A 
ATOM     14  C   UNL     1       2.621   3.385  20.577  0.00  0.00    +0.000 A 
ATOM     15  C   UNL     1       3.885   3.345  19.995  0.00  0.00    +0.000 A 
ATOM     16  F   UNL     1       4.553   2.182  20.024  0.00  0.00    +0.000 F 
ENDBRANCH   5   9
BRANCH   1  21
ATOM     17  C   UNL     1       7.369   2.005  11.091  0.00  0.00    +0.000 C 
ATOM     18  C   UNL     1       6.541   2.872  11.946  0.00  0.00    +0.000 A 
ATOM     19  N   UNL     1       5.206   2.890  11.859  0.00  0.00    +0.000 NA
ATOM     20  O   UNL     1       4.832   3.800  12.841  0.00  0.00    +0.000 OA
ATOM     21  C   UNL     1       5.987   4.240  13.428  0.00  0.00    +0.000 A 
ATOM     22  N   UNL     1       7.068   3.698  12.913  0.00  0.00    +0.000 NA
ENDBRANCH   1  21
TORSDOF 2
ENDMDL
MODEL 6
REMARK VINA RESULT:      -6.9      2.826      3.605
REMARK  Name = 
REMARK  3 active torsions:
REMARK  status: ('A' for Active; 'I' for Inactive)
REMARK    1  A    between atoms: C_1  and  C_2
REMARK    2  A    between atoms: C_5  and  C_6
REMARK    3  A    between atoms: C_10  and  C_12
REMARK                            x       y       z     vdW  Elec       q    Type
REMARK                         _______ _______ _______ _____ _____    ______ ____
ROOT
ATOM      1  C   UNL     1       6.098   5.691  17.661  0.00  0.00    +0.000 C 
ATOM      2  C   UNL     1       5.394   4.602  18.488  0.00  0.00    +0.000 C 
ATOM      3  C   UNL     1       3.878   4.551  18.300  0.00  0.00    +0.000 C 
ATOM      4  N   UNL     1       3.299   5.888  18.423  0.00  0.00    +0.000 N 
ATOM      5  C   UNL     1       2.430   6.160  19.494  0.00  0.00    +0.000 C 
ATOM      6  O   UNL     1       2.160   5.310  20.347  0.00  0.00    +0.000 OA
ATOM      7  C   UNL     1       3.823   6.831  17.442  0.00  0.00    +0.000 C 
ATOM      8  C   UNL     1       5.324   7.012  17.611  0.00  0.00    +0.000 C 
ENDROOT
BRANCH   5   9
ATOM      9  C   UNL     1       1.853   7.509  19.707  0.00  0.00    +0.000 A 
ATOM     10  C   UNL     1       1.417   7.847  21.000  0.00  0.00    +0.000 A 
ATOM     11  C   UNL     1       0.925   9.128  21.264  0.00  0.00    +0.000 A 
ATOM     12 BR   UNL     1       0.299   9.565  22.991  0.00  0.00    +0.000 Br
ATOM     13  C   UNL     1       0.881  10.091  20.252  0.00  0.00    +0.000 A 
ATOM     14  C   UNL     1       1.245   9.736  18.955  0.00  0.00    +0.000 A 
ATOM     15  C   UNL     1       1.674   8.439  18.681  0.00  0.00    +0.000 A 
ATOM     16  F   UNL     1       1.908   8.113  17.402  0.00  0.00    +0.000 F 
ENDBRANCH   5   9
BRANCH   1  21
ATOM     17  C   UNL     1       6.396   3.768  13.096  0.00  0.00    +0.000 C 
ATOM     18  C   UNL     1       6.663   4.516  14.336  0.00  0.00    +0.000 A 
ATOM     19  N   UNL     1       7.664   5.399  14.433  0.00  0.00    +0.000 NA
ATOM     20  O   UNL     1       7.540   5.883  15.731  0.00  0.00    +0.000 OA
ATOM     21  C   UNL     1       6.467   5.242  16.288  0.00  0.00    +0.000 A 
ATOM     22  N   UNL     1       5.892   4.389  15.470  0.00  0.00    +0.000 NA
ENDBRANCH   1  21
TORSDOF 2
ENDMDL
MODEL 7
REMARK VINA RESULT:      -6.1      3.793      7.505
REMARK  Name = 
REMARK  3 active torsions:
REMARK  status: ('A' for Active; 'I' for Inactive)
REMARK    1  A    between atoms: C_1  and  C_2
REMARK    2  A    between atoms: C_5  and  C_6
REMARK    3  A    between atoms: C_10  and  C_12
REMARK                            x       y       z     vdW  Elec       q    Type
REMARK                         _______ _______ _______ _____ _____    ______ ____
ROOT
ATOM      1  C   UNL     1       1.757   6.798  18.747  0.00  0.00    +0.000 C 
ATOM      2  C   UNL     1       2.070   5.499  19.507  0.00  0.00    +0.000 C 
ATOM      3  C   UNL     1       3.558   5.269  19.773  0.00  0.00    +0.000 C 
ATOM      4  N   UNL     1       4.336   5.471  18.552  0.00  0.00    +0.000 N 
ATOM      5  C   UNL     1       5.010   4.377  17.982  0.00  0.00    +0.000 C 
ATOM      6  O   UNL     1       4.945   3.246  18.469  0.00  0.00    +0.000 OA
ATOM      7  C   UNL     1       4.200   6.815  18.002  0.00  0.00    +0.000 C 
ATOM      8  C   UNL     1       2.754   7.103  17.625  0.00  0.00    +0.000 C 
ENDROOT
BRANCH   5   9
ATOM      9  C   UNL     1       5.771   4.502  16.715  0.00  0.00    +0.000 A 
ATOM     10  C   UNL     1       5.171   4.037  15.533  0.00  0.00    +0.000 A 
ATOM     11  C   UNL     1       5.823   4.191  14.307  0.00  0.00    +0.000 A 
ATOM     12 BR   UNL     1       5.034   3.527  12.724  0.00  0.00    +0.000 Br
ATOM     13  C   UNL     1       7.067   4.826  14.241  0.00  0.00    +0.000 A 
ATOM     14  C   UNL     1       7.693   5.223  15.420  0.00  0.00    +0.000 A 
ATOM     15  C   UNL     1       7.070   5.009  16.648  0.00  0.00    +0.000 A 
ATOM     16  F   UNL     1       7.758   5.305  17.760  0.00  0.00    +0.000 F 
ENDBRANCH   5   9
BRANCH   1  21
ATOM     17  C   UNL     1       0.894  11.200  20.870  0.00  0.00    +0.000 C 
ATOM     18  C   UNL     1       1.205   9.780  20.633  0.00  0.00    +0.000 A 
ATOM     19  N   UNL     1       1.328   8.903  21.636  0.00  0.00    +0.000 NA
ATOM     20  O   UNL     1       1.588   7.703  20.982  0.00  0.00    +0.000 OA
ATOM     21  C   UNL     1       1.591   7.979  19.642  0.00  0.00    +0.000 A 
ATOM     22  N   UNL     1       1.360   9.245  19.374  0.00  0.00    +0.000 NA
ENDBRANCH   1  21
TORSDOF 2
ENDMDL
MODEL 8
REMARK VINA RESULT:      -6.0      3.598      4.967
REMARK  Name = 
REMARK  3 active torsions:
REMARK  status: ('A' for Active; 'I' for Inactive)
REMARK    1  A    between atoms: C_1  and  C_2
REMARK    2  A    between atoms: C_5  and  C_6
REMARK    3  A    between atoms: C_10  and  C_12
REMARK                            x       y       z     vdW  Elec       q    Type
REMARK                         _______ _______ _______ _____ _____    ______ ____
ROOT
ATOM      1  C   UNL     1       7.180   6.161  17.564  0.00  0.00    +0.000 C 
ATOM      2  C   UNL     1       6.054   6.162  16.518  0.00  0.00    +0.000 C 
ATOM      3  C   UNL     1       4.666   6.450  17.090  0.00  0.00    +0.000 C 
ATOM      4  N   UNL     1       4.412   5.621  18.266  0.00  0.00    +0.000 N 
ATOM      5  C   UNL     1       3.395   4.653  18.213  0.00  0.00    +0.000 C 
ATOM      6  O   UNL     1       2.725   4.465  17.194  0.00  0.00    +0.000 OA
ATOM      7  C   UNL     1       5.374   5.842  19.341  0.00  0.00    +0.000 C 
ATOM      8  C   UNL     1       6.783   5.496  18.885  0.00  0.00    +0.000 C 
ENDROOT
BRANCH   5   9
ATOM      9  C   UNL     1       3.123   3.742  19.353  0.00  0.00    +0.000 A 
ATOM     10  C   UNL     1       4.141   2.860  19.754  0.00  0.00    +0.000 A 
ATOM     11  C   UNL     1       3.953   2.029  20.862  0.00  0.00    +0.000 A 
ATOM     12 BR   UNL     1       5.305   0.813  21.372  0.00  0.00    +0.000 Br
ATOM     13  C   UNL     1       2.763   2.081  21.593  0.00  0.00    +0.000 A 
ATOM     14  C   UNL     1       1.728   2.903  21.153  0.00  0.00    +0.000 A 
ATOM     15  C   UNL     1       1.893   3.683  20.010  0.00  0.00    +0.000 A 
ATOM     16  F   UNL     1       0.833   4.372  19.563  0.00  0.00    +0.000 F 
ENDBRANCH   5   9
BRANCH   1  21
ATOM     17  C   UNL     1       8.381  10.973  17.726  0.00  0.00    +0.000 C 
ATOM     18  C   UNL     1       8.307   9.525  17.979  0.00  0.00    +0.000 A 
ATOM     19  N   UNL     1       8.949   8.947  19.001  0.00  0.00    +0.000 NA
ATOM     20  O   UNL     1       8.592   7.608  18.889  0.00  0.00    +0.000 OA
ATOM     21  C   UNL     1       7.762   7.512  17.806  0.00  0.00    +0.000 A 
ATOM     22  N   UNL     1       7.554   8.665  17.210  0.00  0.00    +0.000 NA
ENDBRANCH   1  21
TORSDOF 2
ENDMDL
MODEL 9
REMARK VINA RESULT:      -6.0      3.498      7.313
REMARK  Name = 
REMARK  3 active torsions:
REMARK  status: ('A' for Active; 'I' for Inactive)
REMARK    1  A    between atoms: C_1  and  C_2
REMARK    2  A    between atoms: C_5  and  C_6
REMARK    3  A    between atoms: C_10  and  C_12
REMARK                            x       y       z     vdW  Elec       q    Type
REMARK                         _______ _______ _______ _____ _____    ______ ____
ROOT
ATOM      1  C   UNL     1       4.587   4.084  19.294  0.00  0.00    +0.000 C 
ATOM      2  C   UNL     1       4.693   5.595  19.033  0.00  0.00    +0.000 C 
ATOM      3  C   UNL     1       4.028   6.056  17.736  0.00  0.00    +0.000 C 
ATOM      4  N   UNL     1       4.436   5.208  16.618  0.00  0.00    +0.000 N 
ATOM      5  C   UNL     1       5.196   5.769  15.577  0.00  0.00    +0.000 C 
ATOM      6  O   UNL     1       5.550   6.951  15.591  0.00  0.00    +0.000 OA
ATOM      7  C   UNL     1       4.085   3.805  16.806  0.00  0.00    +0.000 C 
ATOM      8  C   UNL     1       4.776   3.233  18.034  0.00  0.00    +0.000 C 
ENDROOT
BRANCH   5   9
ATOM      9  C   UNL     1       5.689   4.951  14.442  0.00  0.00    +0.000 A 
ATOM     10  C   UNL     1       4.749   4.472  13.513  0.00  0.00    +0.000 A 
ATOM     11  C   UNL     1       5.172   3.752  12.393  0.00  0.00    +0.000 A 
ATOM     12 BR   UNL     1       3.904   3.072  11.169  0.00  0.00    +0.000 Br
ATOM     13  C   UNL     1       6.533   3.518  12.175  0.00  0.00    +0.000 A 
ATOM     14  C   UNL     1       7.458   3.930  13.131  0.00  0.00    +0.000 A 
ATOM     15  C   UNL     1       7.028   4.591  14.279  0.00  0.00    +0.000 A 
ATOM     16  F   UNL     1       7.940   4.869  15.222  0.00  0.00    +0.000 F 
ENDBRANCH   5   9
BRANCH   1  21
ATOM     17  C   UNL     1       1.073   2.267  22.290  0.00  0.00    +0.000 C 
ATOM     18  C   UNL     1       1.796   3.022  21.254  0.00  0.00    +0.000 A 
ATOM     19  N   UNL     1       1.217   4.006  20.556  0.00  0.00    +0.000 NA
ATOM     20  O   UNL     1       2.238   4.456  19.727  0.00  0.00    +0.000 OA
ATOM     21  C   UNL     1       3.339   3.696  20.012  0.00  0.00    +0.000 A 
ATOM     22  N   UNL     1       3.120   2.797  20.946  0.00  0.00    +0.000 NA
ENDBRANCH   1  21
TORSDOF 2
ENDMDL
