MODEL 1
REMARK VINA RESULT:      -8.5      0.000      0.000
REMARK  Name = 
REMARK  10 active torsions:
REMARK  status: ('A' for Active; 'I' for Inactive)
REMARK    1  A    between atoms: C_1  and  C_2
REMARK    2  A    between atoms: C_2  and  O_3
REMARK    3  A    between atoms: C_2  and  C_30
REMARK    4  A    between atoms: O_3  and  C_4
REMARK    5  A    between atoms: N_13  and  C_14
REMARK    6  A    between atoms: C_17  and  O_18
REMARK    7  A    between atoms: O_18  and  C_19
REMARK    8  A    between atoms: C_19  and  C_20
REMARK    9  A    between atoms: N_32  and  C_33
REMARK   10  A    between atoms: N_32  and  C_34
REMARK                            x       y       z     vdW  Elec       q    Type
REMARK                         _______ _______ _______ _____ _____    ______ ____
ROOT
ATOM      1  C   UNL     1       3.702   3.771  17.718  0.00  0.00    +0.000 A 
ATOM      2  C   UNL     1       4.032   2.477  17.305  0.00  0.00    +0.000 A 
ATOM      3  C   UNL     1       3.712   1.399  18.114  0.00  0.00    +0.000 A 
ATOM      4  C   UNL     1       3.054   1.624  19.320  0.00  0.00    +0.000 A 
ATOM      5  C   UNL     1       2.632   2.887  19.705  0.00  0.00    +0.000 A 
ATOM      6  N   UNL     1       1.961   2.969  20.855  0.00  0.00    +0.000 NA
ATOM      7  C   UNL     1       1.517   4.175  21.206  0.00  0.00    +0.000 A 
ATOM      8  N   UNL     1       1.648   5.296  20.498  0.00  0.00    +0.000 NA
ATOM      9  C   UNL     1       2.329   5.220  19.337  0.00  0.00    +0.000 A 
ATOM     10  N   UNL     1       2.442   6.403  18.547  0.00  0.00    +0.000 N 
ATOM     11  C   UNL     1       2.902   3.997  18.884  0.00  0.00    +0.000 A 
ATOM     12  H   UNL     1       2.344   6.161  17.566  0.00  0.00    +0.000 HD
ENDROOT
BRANCH  10  13
ATOM     13  C   UNL     1       2.044   7.727  18.850  0.00  0.00    +0.000 A 
ATOM     14  C   UNL     1       1.974   8.732  17.887  0.00  0.00    +0.000 A 
ATOM     15  C   UNL     1       1.552  10.028  18.210  0.00  0.00    +0.000 A 
ATOM     16  C   UNL     1       1.147  10.371  19.506  0.00  0.00    +0.000 A 
ATOM     17  C   UNL     1       1.177   9.366  20.479  0.00  0.00    +0.000 A 
ATOM     18 CL   UNL     1       0.756   9.609  22.139  0.00  0.00    +0.000 Cl
ATOM     19  C   UNL     1       1.612   8.060  20.143  0.00  0.00    +0.000 A 
BRANCH  16  20
ATOM     20  O   UNL     1       0.827  11.697  19.600  0.00  0.00    +0.000 OA
BRANCH  20  21
ATOM     21  C   UNL     1       0.121  12.357  18.547  0.00  0.00    +0.000 C 
BRANCH  21  22
ATOM     22  C   UNL     1      -1.380  12.127  18.659  0.00  0.00    +0.000 A 
ATOM     23  C   UNL     1      -2.109  12.572  19.762  0.00  0.00    +0.000 A 
ATOM     24  C   UNL     1      -3.492  12.411  19.777  0.00  0.00    +0.000 A 
ATOM     25  C   UNL     1      -4.125  11.814  18.694  0.00  0.00    +0.000 A 
ATOM     26  C   UNL     1      -3.335  11.399  17.636  0.00  0.00    +0.000 A 
ATOM     27  N   UNL     1      -1.991  11.541  17.591  0.00  0.00    +0.000 NA
ENDBRANCH  21  22
ENDBRANCH  20  21
ENDBRANCH  16  20
ENDBRANCH  10  13
BRANCH   1  28
ATOM     28  O   UNL     1       4.135   4.872  17.021  0.00  0.00    +0.000 OA
BRANCH  28  30
ATOM     29  C   UNL     1       6.073   4.466  15.761  0.00  0.00    +0.000 C 
ATOM     30  C   UNL     1       5.544   5.127  17.043  0.00  0.00    +0.000 C 
BRANCH  30  31
ATOM     31  C   UNL     1       6.132   6.582  17.059  0.00  0.00    +0.000 C 
ATOM     32  O   UNL     1       5.669   7.481  16.370  0.00  0.00    +0.000 OA
ATOM     33  N   UNL     1       7.271   6.791  17.874  0.00  0.00    +0.000 N 
ATOM     34  C   UNL     1       7.958   8.067  17.794  0.00  0.00    +0.000 C 
ATOM     35  C   UNL     1       7.683   5.930  18.974  0.00  0.00    +0.000 C 
ENDBRANCH  30  31
ENDBRANCH  28  30
ENDBRANCH   1  28
TORSDOF 7
ENDMDL
MODEL 2
REMARK VINA RESULT:      -8.5      2.491      3.181
REMARK  Name = 
REMARK  10 active torsions:
REMARK  status: ('A' for Active; 'I' for Inactive)
REMARK    1  A    between atoms: C_1  and  C_2
REMARK    2  A    between atoms: C_2  and  O_3
REMARK    3  A    between atoms: C_2  and  C_30
REMARK    4  A    between atoms: O_3  and  C_4
REMARK    5  A    between atoms: N_13  and  C_14
REMARK    6  A    between atoms: C_17  and  O_18
REMARK    7  A    between atoms: O_18  and  C_19
REMARK    8  A    between atoms: C_19  and  C_20
REMARK    9  A    between atoms: N_32  and  C_33
REMARK   10  A    between atoms: N_32  and  C_34
REMARK                            x       y       z     vdW  Elec       q    Type
REMARK                         _______ _______ _______ _____ _____    ______ ____
ROOT
ATOM      1  C   UNL     1       4.034   4.179  18.181  0.00  0.00    +0.000 A 
ATOM      2  C   UNL     1       4.549   3.075  17.496  0.00  0.00    +0.000 A 
ATOM      3  C   UNL     1       4.056   1.809  17.769  0.00  0.00    +0.000 A 
ATOM      4  C   UNL     1       3.043   1.662  18.713  0.00  0.00    +0.000 A 
ATOM      5  C   UNL     1       2.451   2.751  19.334  0.00  0.00    +0.000 A 
ATOM      6  N   UNL     1       1.453   2.486  20.179  0.00  0.00    +0.000 NA
ATOM      7  C   UNL     1       0.854   3.533  20.745  0.00  0.00    +0.000 A 
ATOM      8  N   UNL     1       1.134   4.816  20.517  0.00  0.00    +0.000 NA
ATOM      9  C   UNL     1       2.145   5.088  19.667  0.00  0.00    +0.000 A 
ATOM     10  N   UNL     1       2.430   6.457  19.381  0.00  0.00    +0.000 N 
ATOM     11  C   UNL     1       2.900   4.052  19.046  0.00  0.00    +0.000 A 
ATOM     12  H   UNL     1       2.656   6.552  18.396  0.00  0.00    +0.000 HD
ENDROOT
BRANCH  10  13
ATOM     13  C   UNL     1       1.882   7.628  19.956  0.00  0.00    +0.000 A 
ATOM     14  C   UNL     1       1.709   7.782  21.331  0.00  0.00    +0.000 A 
ATOM     15  C   UNL     1       1.188   8.964  21.875  0.00  0.00    +0.000 A 
ATOM     16  C   UNL     1       0.847  10.059  21.072  0.00  0.00    +0.000 A 
ATOM     17  C   UNL     1       1.046   9.936  19.693  0.00  0.00    +0.000 A 
ATOM     18 CL   UNL     1       0.647  11.161  18.540  0.00  0.00    +0.000 Cl
ATOM     19  C   UNL     1       1.569   8.735  19.152  0.00  0.00    +0.000 A 
BRANCH  16  20
ATOM     20  O   UNL     1       0.313  11.079  21.810  0.00  0.00    +0.000 OA
BRANCH  20  21
ATOM     21  C   UNL     1      -0.745  10.834  22.739  0.00  0.00    +0.000 C 
BRANCH  21  22
ATOM     22  C   UNL     1      -1.451  12.127  23.127  0.00  0.00    +0.000 A 
ATOM     23  C   UNL     1      -2.821  12.162  23.389  0.00  0.00    +0.000 A 
ATOM     24  C   UNL     1      -3.403  13.350  23.820  0.00  0.00    +0.000 A 
ATOM     25  C   UNL     1      -2.613  14.481  23.987  0.00  0.00    +0.000 A 
ATOM     26  C   UNL     1      -1.262  14.368  23.708  0.00  0.00    +0.000 A 
ATOM     27  N   UNL     1      -0.667  13.229  23.287  0.00  0.00    +0.000 NA
ENDBRANCH  21  22
ENDBRANCH  20  21
ENDBRANCH  16  20
ENDBRANCH  10  13
BRANCH   1  28
ATOM     28  O   UNL     1       4.598   5.424  18.051  0.00  0.00    +0.000 OA
BRANCH  28  30
ATOM     29  C   UNL     1       4.514   7.375  16.749  0.00  0.00    +0.000 C 
ATOM     30  C   UNL     1       4.843   5.876  16.715  0.00  0.00    +0.000 C 
BRANCH  30  31
ATOM     31  C   UNL     1       6.253   5.754  16.036  0.00  0.00    +0.000 C 
ATOM     32  O   UNL     1       7.258   6.252  16.524  0.00  0.00    +0.000 OA
ATOM     33  N   UNL     1       6.296   5.082  14.789  0.00  0.00    +0.000 N 
ATOM     34  C   UNL     1       7.536   5.092  14.036  0.00  0.00    +0.000 C 
ATOM     35  C   UNL     1       5.275   4.168  14.296  0.00  0.00    +0.000 C 
ENDBRANCH  30  31
ENDBRANCH  28  30
ENDBRANCH   1  28
TORSDOF 7
ENDMDL
MODEL 3
REMARK VINA RESULT:      -8.4      2.300      2.852
REMARK  Name = 
REMARK  10 active torsions:
REMARK  status: ('A' for Active; 'I' for Inactive)
REMARK    1  A    between atoms: C_1  and  C_2
REMARK    2  A    between atoms: C_2  and  O_3
REMARK    3  A    between atoms: C_2  and  C_30
REMARK    4  A    between atoms: O_3  and  C_4
REMARK    5  A    between atoms: N_13  and  C_14
REMARK    6  A    between atoms: C_17  and  O_18
REMARK    7  A    between atoms: O_18  and  C_19
REMARK    8  A    between atoms: C_19  and  C_20
REMARK    9  A    between atoms: N_32  and  C_33
REMARK   10  A    between atoms: N_32  and  C_34
REMARK                            x       y       z     vdW  Elec       q    Type
REMARK                         _______ _______ _______ _____ _____    ______ ____
ROOT
ATOM      1  C   UNL     1       3.637   4.425  17.701  0.00  0.00    +0.000 A 
ATOM      2  C   UNL     1       4.047   3.320  16.949  0.00  0.00    +0.000 A 
ATOM      3  C   UNL     1       3.828   2.042  17.437  0.00  0.00    +0.000 A 
ATOM      4  C   UNL     1       3.189   1.881  18.664  0.00  0.00    +0.000 A 
ATOM      5  C   UNL     1       2.688   2.957  19.380  0.00  0.00    +0.000 A 
ATOM      6  N   UNL     1       2.046   2.673  20.515  0.00  0.00    +0.000 NA
ATOM      7  C   UNL     1       1.527   3.701  21.183  0.00  0.00    +0.000 A 
ATOM      8  N   UNL     1       1.557   4.979  20.806  0.00  0.00    +0.000 NA
ATOM      9  C   UNL     1       2.209   5.272  19.662  0.00  0.00    +0.000 A 
ATOM     10  N   UNL     1       2.216   6.630  19.223  0.00  0.00    +0.000 N 
ATOM     11  C   UNL     1       2.856   4.265  18.890  0.00  0.00    +0.000 A 
ATOM     12  H   UNL     1       2.108   6.655  18.214  0.00  0.00    +0.000 HD
ENDROOT
BRANCH  10  13
ATOM     13  C   UNL     1       1.732   7.788  19.877  0.00  0.00    +0.000 A 
ATOM     14  C   UNL     1       1.571   7.861  21.260  0.00  0.00    +0.000 A 
ATOM     15  C   UNL     1       1.115   9.030  21.883  0.00  0.00    +0.000 A 
ATOM     16  C   UNL     1       0.830  10.192  21.155  0.00  0.00    +0.000 A 
ATOM     17  C   UNL     1       1.019  10.149  19.770  0.00  0.00    +0.000 A 
ATOM     18 CL   UNL     1       0.682  11.467  18.702  0.00  0.00    +0.000 Cl
ATOM     19  C   UNL     1       1.475   8.960  19.148  0.00  0.00    +0.000 A 
BRANCH  16  20
ATOM     20  O   UNL     1       0.352  11.187  21.962  0.00  0.00    +0.000 OA
BRANCH  20  21
ATOM     21  C   UNL     1      -0.831  10.996  22.739  0.00  0.00    +0.000 C 
BRANCH  21  22
ATOM     22  C   UNL     1      -1.455  12.328  23.135  0.00  0.00    +0.000 A 
ATOM     23  C   UNL     1      -2.801  12.430  23.486  0.00  0.00    +0.000 A 
ATOM     24  C   UNL     1      -3.303  13.653  23.920  0.00  0.00    +0.000 A 
ATOM     25  C   UNL     1      -2.456  14.752  24.002  0.00  0.00    +0.000 A 
ATOM     26  C   UNL     1      -1.133  14.573  23.637  0.00  0.00    +0.000 A 
ATOM     27  N   UNL     1      -0.616  13.399  23.211  0.00  0.00    +0.000 NA
ENDBRANCH  21  22
ENDBRANCH  20  21
ENDBRANCH  16  20
ENDBRANCH  10  13
BRANCH   1  28
ATOM     28  O   UNL     1       3.971   5.703  17.327  0.00  0.00    +0.000 OA
BRANCH  28  30
ATOM     29  C   UNL     1       4.959   6.587  15.390  0.00  0.00    +0.000 C 
ATOM     30  C   UNL     1       5.255   5.874  16.718  0.00  0.00    +0.000 C 
BRANCH  30  31
ATOM     31  C   UNL     1       6.406   6.691  17.405  0.00  0.00    +0.000 C 
ATOM     32  O   UNL     1       6.752   7.794  17.006  0.00  0.00    +0.000 OA
ATOM     33  N   UNL     1       7.068   6.058  18.486  0.00  0.00    +0.000 N 
ATOM     34  C   UNL     1       8.248   6.691  19.045  0.00  0.00    +0.000 C 
ATOM     35  C   UNL     1       6.534   4.944  19.258  0.00  0.00    +0.000 C 
ENDBRANCH  30  31
ENDBRANCH  28  30
ENDBRANCH   1  28
TORSDOF 7
ENDMDL
MODEL 4
REMARK VINA RESULT:      -8.3      1.358      1.767
REMARK  Name = 
REMARK  10 active torsions:
REMARK  status: ('A' for Active; 'I' for Inactive)
REMARK    1  A    between atoms: C_1  and  C_2
REMARK    2  A    between atoms: C_2  and  O_3
REMARK    3  A    between atoms: C_2  and  C_30
REMARK    4  A    between atoms: O_3  and  C_4
REMARK    5  A    between atoms: N_13  and  C_14
REMARK    6  A    between atoms: C_17  and  O_18
REMARK    7  A    between atoms: O_18  and  C_19
REMARK    8  A    between atoms: C_19  and  C_20
REMARK    9  A    between atoms: N_32  and  C_33
REMARK   10  A    between atoms: N_32  and  C_34
REMARK                            x       y       z     vdW  Elec       q    Type
REMARK                         _______ _______ _______ _____ _____    ______ ____
ROOT
ATOM      1  C   UNL     1       4.123   4.176  18.103  0.00  0.00    +0.000 A 
ATOM      2  C   UNL     1       4.643   2.992  17.572  0.00  0.00    +0.000 A 
ATOM      3  C   UNL     1       4.096   1.776  17.949  0.00  0.00    +0.000 A 
ATOM      4  C   UNL     1       3.026   1.758  18.841  0.00  0.00    +0.000 A 
ATOM      5  C   UNL     1       2.433   2.921  19.304  0.00  0.00    +0.000 A 
ATOM      6  N   UNL     1       1.380   2.775  20.110  0.00  0.00    +0.000 NA
ATOM      7  C   UNL     1       0.782   3.891  20.523  0.00  0.00    +0.000 A 
ATOM      8  N   UNL     1       1.114   5.135  20.176  0.00  0.00    +0.000 NA
ATOM      9  C   UNL     1       2.180   5.288  19.365  0.00  0.00    +0.000 A 
ATOM     10  N   UNL     1       2.524   6.610  18.952  0.00  0.00    +0.000 N 
ATOM     11  C   UNL     1       2.938   4.172  18.906  0.00  0.00    +0.000 A 
ATOM     12  H   UNL     1       2.809   6.592  17.978  0.00  0.00    +0.000 HD
ENDROOT
BRANCH  10  13
ATOM     13  C   UNL     1       1.980   7.850  19.364  0.00  0.00    +0.000 A 
ATOM     14  C   UNL     1       1.717   8.890  18.474  0.00  0.00    +0.000 A 
ATOM     15  C   UNL     1       1.154  10.098  18.906  0.00  0.00    +0.000 A 
ATOM     16  C   UNL     1       0.797  10.310  20.244  0.00  0.00    +0.000 A 
ATOM     17  C   UNL     1       1.022   9.265  21.145  0.00  0.00    +0.000 A 
ATOM     18 CL   UNL     1       0.687   9.354  22.840  0.00  0.00    +0.000 Cl
ATOM     19  C   UNL     1       1.597   8.049  20.700  0.00  0.00    +0.000 A 
BRANCH  16  20
ATOM     20  O   UNL     1       0.316  11.574  20.443  0.00  0.00    +0.000 OA
BRANCH  20  21
ATOM     21  C   UNL     1      -0.244  12.324  19.363  0.00  0.00    +0.000 C 
BRANCH  21  22
ATOM     22  C   UNL     1      -1.763  12.218  19.345  0.00  0.00    +0.000 A 
ATOM     23  C   UNL     1      -2.551  12.824  20.324  0.00  0.00    +0.000 A 
ATOM     24  C   UNL     1      -3.937  12.769  20.217  0.00  0.00    +0.000 A 
ATOM     25  C   UNL     1      -4.516  12.115  19.136  0.00  0.00    +0.000 A 
ATOM     26  C   UNL     1      -3.669  11.538  18.205  0.00  0.00    +0.000 A 
ATOM     27  N   UNL     1      -2.320  11.574  18.281  0.00  0.00    +0.000 NA
ENDBRANCH  21  22
ENDBRANCH  20  21
ENDBRANCH  16  20
ENDBRANCH  10  13
BRANCH   1  28
ATOM     28  O   UNL     1       4.732   5.385  17.875  0.00  0.00    +0.000 OA
BRANCH  28  30
ATOM     29  C   UNL     1       4.529   7.223  16.429  0.00  0.00    +0.000 C 
ATOM     30  C   UNL     1       4.940   5.746  16.505  0.00  0.00    +0.000 C 
BRANCH  30  31
ATOM     31  C   UNL     1       6.348   5.648  15.817  0.00  0.00    +0.000 C 
ATOM     32  O   UNL     1       7.351   6.143  16.311  0.00  0.00    +0.000 OA
ATOM     33  N   UNL     1       6.389   5.002  14.557  0.00  0.00    +0.000 N 
ATOM     34  C   UNL     1       7.627   5.035  13.800  0.00  0.00    +0.000 C 
ATOM     35  C   UNL     1       5.373   4.090  14.050  0.00  0.00    +0.000 C 
ENDBRANCH  30  31
ENDBRANCH  28  30
ENDBRANCH   1  28
TORSDOF 7
ENDMDL
MODEL 5
REMARK VINA RESULT:      -8.2      0.919      1.093
REMARK  Name = 
REMARK  10 active torsions:
REMARK  status: ('A' for Active; 'I' for Inactive)
REMARK    1  A    between atoms: C_1  and  C_2
REMARK    2  A    between atoms: C_2  and  O_3
REMARK    3  A    between atoms: C_2  and  C_30
REMARK    4  A    between atoms: O_3  and  C_4
REMARK    5  A    between atoms: N_13  and  C_14
REMARK    6  A    between atoms: C_17  and  O_18
REMARK    7  A    between atoms: O_18  and  C_19
REMARK    8  A    between atoms: C_19  and  C_20
REMARK    9  A    between atoms: N_32  and  C_33
REMARK   10  A    between atoms: N_32  and  C_34
REMARK                            x       y       z     vdW  Elec       q    Type
REMARK                         _______ _______ _______ _____ _____    ______ ____
ROOT
ATOM      1  C   UNL     1       3.803   3.886  17.578  0.00  0.00    +0.000 A 
ATOM      2  C   UNL     1       4.179   2.607  17.158  0.00  0.00    +0.000 A 
ATOM      3  C   UNL     1       3.850   1.507  17.935  0.00  0.00    +0.000 A 
ATOM      4  C   UNL     1       3.137   1.697  19.116  0.00  0.00    +0.000 A 
ATOM      5  C   UNL     1       2.671   2.943  19.503  0.00  0.00    +0.000 A 
ATOM      6  N   UNL     1       1.952   2.990  20.626  0.00  0.00    +0.000 NA
ATOM      7  C   UNL     1       1.466   4.180  20.977  0.00  0.00    +0.000 A 
ATOM      8  N   UNL     1       1.601   5.316  20.294  0.00  0.00    +0.000 NA
ATOM      9  C   UNL     1       2.330   5.275  19.161  0.00  0.00    +0.000 A 
ATOM     10  N   UNL     1       2.450   6.474  18.396  0.00  0.00    +0.000 N 
ATOM     11  C   UNL     1       2.950   4.073  18.713  0.00  0.00    +0.000 A 
ATOM     12  H   UNL     1       2.398   6.247  17.408  0.00  0.00    +0.000 HD
ENDROOT
BRANCH  10  13
ATOM     13  C   UNL     1       2.009   7.783  18.704  0.00  0.00    +0.000 A 
ATOM     14  C   UNL     1       1.921   8.793  17.747  0.00  0.00    +0.000 A 
ATOM     15  C   UNL     1       1.456  10.073  18.075  0.00  0.00    +0.000 A 
ATOM     16  C   UNL     1       1.027  10.395  19.368  0.00  0.00    +0.000 A 
ATOM     17  C   UNL     1       1.076   9.384  20.335  0.00  0.00    +0.000 A 
ATOM     18 CL   UNL     1       0.629   9.602  21.991  0.00  0.00    +0.000 Cl
ATOM     19  C   UNL     1       1.553   8.094  19.995  0.00  0.00    +0.000 A 
BRANCH  16  20
ATOM     20  O   UNL     1       0.667  11.710  19.468  0.00  0.00    +0.000 OA
BRANCH  20  21
ATOM     21  C   UNL     1      -0.708  12.089  19.557  0.00  0.00    +0.000 C 
BRANCH  21  22
ATOM     22  C   UNL     1      -1.549  11.375  18.507  0.00  0.00    +0.000 A 
ATOM     23  C   UNL     1      -2.243  10.202  18.800  0.00  0.00    +0.000 A 
ATOM     24  C   UNL     1      -3.064   9.634  17.830  0.00  0.00    +0.000 A 
ATOM     25  C   UNL     1      -3.182  10.245  16.588  0.00  0.00    +0.000 A 
ATOM     26  C   UNL     1      -2.462  11.408  16.372  0.00  0.00    +0.000 A 
ATOM     27  N   UNL     1      -1.657  11.983  17.293  0.00  0.00    +0.000 NA
ENDBRANCH  21  22
ENDBRANCH  20  21
ENDBRANCH  16  20
ENDBRANCH  10  13
BRANCH   1  28
ATOM     28  O   UNL     1       4.239   5.008  16.918  0.00  0.00    +0.000 OA
BRANCH  28  30
ATOM     29  C   UNL     1       5.596   5.092  15.005  0.00  0.00    +0.000 C 
ATOM     30  C   UNL     1       5.619   5.028  16.539  0.00  0.00    +0.000 C 
BRANCH  30  31
ATOM     31  C   UNL     1       6.600   6.160  17.008  0.00  0.00    +0.000 C 
ATOM     32  O   UNL     1       6.953   7.067  16.267  0.00  0.00    +0.000 OA
ATOM     33  N   UNL     1       7.107   6.048  18.326  0.00  0.00    +0.000 N 
ATOM     34  C   UNL     1       8.147   6.966  18.752  0.00  0.00    +0.000 C 
ATOM     35  C   UNL     1       6.509   5.248  19.387  0.00  0.00    +0.000 C 
ENDBRANCH  30  31
ENDBRANCH  28  30
ENDBRANCH   1  28
TORSDOF 7
ENDMDL
MODEL 6
REMARK VINA RESULT:      -8.2      1.936      2.969
REMARK  Name = 
REMARK  10 active torsions:
REMARK  status: ('A' for Active; 'I' for Inactive)
REMARK    1  A    between atoms: C_1  and  C_2
REMARK    2  A    between atoms: C_2  and  O_3
REMARK    3  A    between atoms: C_2  and  C_30
REMARK    4  A    between atoms: O_3  and  C_4
REMARK    5  A    between atoms: N_13  and  C_14
REMARK    6  A    between atoms: C_17  and  O_18
REMARK    7  A    between atoms: O_18  and  C_19
REMARK    8  A    between atoms: C_19  and  C_20
REMARK    9  A    between atoms: N_32  and  C_33
REMARK   10  A    between atoms: N_32  and  C_34
REMARK                            x       y       z     vdW  Elec       q    Type
REMARK                         _______ _______ _______ _____ _____    ______ ____
ROOT
ATOM      1  C   UNL     1       3.710   4.079  17.643  0.00  0.00    +0.000 A 
ATOM      2  C   UNL     1       4.076   2.841  17.107  0.00  0.00    +0.000 A 
ATOM      3  C   UNL     1       3.795   1.681  17.810  0.00  0.00    +0.000 A 
ATOM      4  C   UNL     1       3.138   1.769  19.035  0.00  0.00    +0.000 A 
ATOM      5  C   UNL     1       2.679   2.976  19.539  0.00  0.00    +0.000 A 
ATOM      6  N   UNL     1       2.014   2.926  20.695  0.00  0.00    +0.000 NA
ATOM      7  C   UNL     1       1.536   4.079  21.161  0.00  0.00    +0.000 A 
ATOM      8  N   UNL     1       1.628   5.266  20.563  0.00  0.00    +0.000 NA
ATOM      9  C   UNL     1       2.303   5.322  19.397  0.00  0.00    +0.000 A 
ATOM     10  N   UNL     1       2.375   6.579  18.724  0.00  0.00    +0.000 N 
ATOM     11  C   UNL     1       2.911   4.167  18.828  0.00  0.00    +0.000 A 
ATOM     12  H   UNL     1       2.278   6.428  17.725  0.00  0.00    +0.000 HD
ENDROOT
BRANCH  10  13
ATOM     13  C   UNL     1       1.938   7.854  19.154  0.00  0.00    +0.000 A 
ATOM     14  C   UNL     1       1.828   8.944  18.290  0.00  0.00    +0.000 A 
ATOM     15  C   UNL     1       1.368  10.189  18.738  0.00  0.00    +0.000 A 
ATOM     16  C   UNL     1       0.965  10.395  20.063  0.00  0.00    +0.000 A 
ATOM     17  C   UNL     1       1.036   9.304  20.936  0.00  0.00    +0.000 A 
ATOM     18 CL   UNL     1       0.622   9.375  22.614  0.00  0.00    +0.000 Cl
ATOM     19  C   UNL     1       1.508   8.050  20.475  0.00  0.00    +0.000 A 
BRANCH  16  20
ATOM     20  O   UNL     1       0.604  11.695  20.284  0.00  0.00    +0.000 OA
BRANCH  20  21
ATOM     21  C   UNL     1       0.748  12.679  19.259  0.00  0.00    +0.000 C 
BRANCH  21  22
ATOM     22  C   UNL     1       2.071  13.423  19.387  0.00  0.00    +0.000 A 
ATOM     23  C   UNL     1       2.820  13.782  18.267  0.00  0.00    +0.000 A 
ATOM     24  C   UNL     1       3.980  14.533  18.433  0.00  0.00    +0.000 A 
ATOM     25  C   UNL     1       4.371  14.919  19.709  0.00  0.00    +0.000 A 
ATOM     26  C   UNL     1       3.575  14.526  20.771  0.00  0.00    +0.000 A 
ATOM     27  N   UNL     1       2.445  13.796  20.643  0.00  0.00    +0.000 NA
ENDBRANCH  21  22
ENDBRANCH  20  21
ENDBRANCH  16  20
ENDBRANCH  10  13
BRANCH   1  28
ATOM     28  O   UNL     1       4.104   5.254  17.054  0.00  0.00    +0.000 OA
BRANCH  28  30
ATOM     29  C   UNL     1       5.394   5.477  15.105  0.00  0.00    +0.000 C 
ATOM     30  C   UNL     1       5.470   5.328  16.632  0.00  0.00    +0.000 C 
BRANCH  30  31
ATOM     31  C   UNL     1       6.441   6.456  17.132  0.00  0.00    +0.000 C 
ATOM     32  O   UNL     1       6.622   7.489  16.502  0.00  0.00    +0.000 OA
ATOM     33  N   UNL     1       7.148   6.192  18.331  0.00  0.00    +0.000 N 
ATOM     34  C   UNL     1       8.184   7.120  18.746  0.00  0.00    +0.000 C 
ATOM     35  C   UNL     1       6.767   5.198  19.325  0.00  0.00    +0.000 C 
ENDBRANCH  30  31
ENDBRANCH  28  30
ENDBRANCH   1  28
TORSDOF 7
ENDMDL
MODEL 7
REMARK VINA RESULT:      -8.2      1.640      2.045
REMARK  Name = 
REMARK  10 active torsions:
REMARK  status: ('A' for Active; 'I' for Inactive)
REMARK    1  A    between atoms: C_1  and  C_2
REMARK    2  A    between atoms: C_2  and  O_3
REMARK    3  A    between atoms: C_2  and  C_30
REMARK    4  A    between atoms: O_3  and  C_4
REMARK    5  A    between atoms: N_13  and  C_14
REMARK    6  A    between atoms: C_17  and  O_18
REMARK    7  A    between atoms: O_18  and  C_19
REMARK    8  A    between atoms: C_19  and  C_20
REMARK    9  A    between atoms: N_32  and  C_33
REMARK   10  A    between atoms: N_32  and  C_34
REMARK                            x       y       z     vdW  Elec       q    Type
REMARK                         _______ _______ _______ _____ _____    ______ ____
ROOT
ATOM      1  C   UNL     1       3.705   3.979  17.684  0.00  0.00    +0.000 A 
ATOM      2  C   UNL     1       4.071   2.726  17.183  0.00  0.00    +0.000 A 
ATOM      3  C   UNL     1       3.766   1.585  17.906  0.00  0.00    +0.000 A 
ATOM      4  C   UNL     1       3.086   1.706  19.116  0.00  0.00    +0.000 A 
ATOM      5  C   UNL     1       2.629   2.928  19.585  0.00  0.00    +0.000 A 
ATOM      6  N   UNL     1       1.942   2.910  20.728  0.00  0.00    +0.000 NA
ATOM      7  C   UNL     1       1.465   4.077  21.159  0.00  0.00    +0.000 A 
ATOM      8  N   UNL     1       1.579   5.249  20.536  0.00  0.00    +0.000 NA
ATOM      9  C   UNL     1       2.276   5.274  19.383  0.00  0.00    +0.000 A 
ATOM     10  N   UNL     1       2.372   6.514  18.683  0.00  0.00    +0.000 N 
ATOM     11  C   UNL     1       2.885   4.100  18.851  0.00  0.00    +0.000 A 
ATOM     12  H   UNL     1       2.293   6.342  17.686  0.00  0.00    +0.000 HD
ENDROOT
BRANCH  10  13
ATOM     13  C   UNL     1       1.939   7.802  19.075  0.00  0.00    +0.000 A 
ATOM     14  C   UNL     1       1.815   8.862  18.177  0.00  0.00    +0.000 A 
ATOM     15  C   UNL     1       1.358  10.120  18.589  0.00  0.00    +0.000 A 
ATOM     16  C   UNL     1       0.972  10.370  19.912  0.00  0.00    +0.000 A 
ATOM     17  C   UNL     1       1.057   9.310  20.820  0.00  0.00    +0.000 A 
ATOM     18 CL   UNL     1       0.666   9.436  22.501  0.00  0.00    +0.000 Cl
ATOM     19  C   UNL     1       1.526   8.041  20.396  0.00  0.00    +0.000 A 
BRANCH  16  20
ATOM     20  O   UNL     1       0.612  11.677  20.094  0.00  0.00    +0.000 OA
BRANCH  20  21
ATOM     21  C   UNL     1      -0.764  12.057  20.144  0.00  0.00    +0.000 C 
BRANCH  21  22
ATOM     22  C   UNL     1      -1.110  12.710  21.475  0.00  0.00    +0.000 A 
ATOM     23  C   UNL     1      -0.401  13.811  21.956  0.00  0.00    +0.000 A 
ATOM     24  C   UNL     1      -0.810  14.424  23.138  0.00  0.00    +0.000 A 
ATOM     25  C   UNL     1      -1.918  13.932  23.817  0.00  0.00    +0.000 A 
ATOM     26  C   UNL     1      -2.570  12.837  23.278  0.00  0.00    +0.000 A 
ATOM     27  N   UNL     1      -2.198  12.221  22.134  0.00  0.00    +0.000 NA
ENDBRANCH  21  22
ENDBRANCH  20  21
ENDBRANCH  16  20
ENDBRANCH  10  13
BRANCH   1  28
ATOM     28  O   UNL     1       4.121   5.137  17.076  0.00  0.00    +0.000 OA
BRANCH  28  30
ATOM     29  C   UNL     1       5.486   5.202  15.168  0.00  0.00    +0.000 C 
ATOM     30  C   UNL     1       5.502   5.201  16.704  0.00  0.00    +0.000 C 
BRANCH  30  31
ATOM     31  C   UNL     1       6.430   6.393  17.132  0.00  0.00    +0.000 C 
ATOM     32  O   UNL     1       6.552   7.402  16.452  0.00  0.00    +0.000 OA
ATOM     33  N   UNL     1       7.171   6.216  18.326  0.00  0.00    +0.000 N 
ATOM     34  C   UNL     1       8.171   7.207  18.677  0.00  0.00    +0.000 C 
ATOM     35  C   UNL     1       6.855   5.252  19.372  0.00  0.00    +0.000 C 
ENDBRANCH  30  31
ENDBRANCH  28  30
ENDBRANCH   1  28
TORSDOF 7
ENDMDL
MODEL 8
REMARK VINA RESULT:      -8.1      1.724      2.146
REMARK  Name = 
REMARK  10 active torsions:
REMARK  status: ('A' for Active; 'I' for Inactive)
REMARK    1  A    between atoms: C_1  and  C_2
REMARK    2  A    between atoms: C_2  and  O_3
REMARK    3  A    between atoms: C_2  and  C_30
REMARK    4  A    between atoms: O_3  and  C_4
REMARK    5  A    between atoms: N_13  and  C_14
REMARK    6  A    between atoms: C_17  and  O_18
REMARK    7  A    between atoms: O_18  and  C_19
REMARK    8  A    between atoms: C_19  and  C_20
REMARK    9  A    between atoms: N_32  and  C_33
REMARK   10  A    between atoms: N_32  and  C_34
REMARK                            x       y       z     vdW  Elec       q    Type
REMARK                         _______ _______ _______ _____ _____    ______ ____
ROOT
ATOM      1  C   UNL     1       3.747   4.362  17.828  0.00  0.00    +0.000 A 
ATOM      2  C   UNL     1       4.177   3.254  17.094  0.00  0.00    +0.000 A 
ATOM      3  C   UNL     1       3.845   1.979  17.522  0.00  0.00    +0.000 A 
ATOM      4  C   UNL     1       3.073   1.826  18.671  0.00  0.00    +0.000 A 
ATOM      5  C   UNL     1       2.555   2.911  19.360  0.00  0.00    +0.000 A 
ATOM      6  N   UNL     1       1.783   2.637  20.414  0.00  0.00    +0.000 NA
ATOM      7  C   UNL     1       1.249   3.677  21.052  0.00  0.00    +0.000 A 
ATOM      8  N   UNL     1       1.383   4.959  20.714  0.00  0.00    +0.000 NA
ATOM      9  C   UNL     1       2.165   5.241  19.653  0.00  0.00    +0.000 A 
ATOM     10  N   UNL     1       2.285   6.606  19.253  0.00  0.00    +0.000 N 
ATOM     11  C   UNL     1       2.838   4.218  18.925  0.00  0.00    +0.000 A 
ATOM     12  H   UNL     1       2.286   6.659  18.239  0.00  0.00    +0.000 HD
ENDROOT
BRANCH  10  13
ATOM     13  C   UNL     1       1.795   7.774  19.884  0.00  0.00    +0.000 A 
ATOM     14  C   UNL     1       1.689   7.894  21.269  0.00  0.00    +0.000 A 
ATOM     15  C   UNL     1       1.224   9.072  21.867  0.00  0.00    +0.000 A 
ATOM     16  C   UNL     1       0.874  10.198  21.111  0.00  0.00    +0.000 A 
ATOM     17  C   UNL     1       1.006  10.107  19.721  0.00  0.00    +0.000 A 
ATOM     18 CL   UNL     1       0.584  11.374  18.620  0.00  0.00    +0.000 Cl
ATOM     19  C   UNL     1       1.472   8.909  19.124  0.00  0.00    +0.000 A 
BRANCH  16  20
ATOM     20  O   UNL     1       0.400  11.208  21.900  0.00  0.00    +0.000 OA
BRANCH  20  21
ATOM     21  C   UNL     1      -0.276  12.329  21.328  0.00  0.00    +0.000 C 
BRANCH  21  22
ATOM     22  C   UNL     1      -1.720  12.408  21.807  0.00  0.00    +0.000 A 
ATOM     23  C   UNL     1      -2.056  12.238  23.150  0.00  0.00    +0.000 A 
ATOM     24  C   UNL     1      -3.380  12.402  23.549  0.00  0.00    +0.000 A 
ATOM     25  C   UNL     1      -4.344  12.736  22.606  0.00  0.00    +0.000 A 
ATOM     26  C   UNL     1      -3.934  12.887  21.292  0.00  0.00    +0.000 A 
ATOM     27  N   UNL     1      -2.658  12.735  20.874  0.00  0.00    +0.000 NA
ENDBRANCH  21  22
ENDBRANCH  20  21
ENDBRANCH  16  20
ENDBRANCH  10  13
BRANCH   1  28
ATOM     28  O   UNL     1       4.181   5.629  17.525  0.00  0.00    +0.000 OA
BRANCH  28  30
ATOM     29  C   UNL     1       5.196   6.009  15.443  0.00  0.00    +0.000 C 
ATOM     30  C   UNL     1       5.478   5.732  16.927  0.00  0.00    +0.000 C 
BRANCH  30  31
ATOM     31  C   UNL     1       6.527   6.808  17.381  0.00  0.00    +0.000 C 
ATOM     32  O   UNL     1       6.670   7.870  16.791  0.00  0.00    +0.000 OA
ATOM     33  N   UNL     1       7.346   6.462  18.484  0.00  0.00    +0.000 N 
ATOM     34  C   UNL     1       8.444   7.342  18.837  0.00  0.00    +0.000 C 
ATOM     35  C   UNL     1       7.042   5.423  19.458  0.00  0.00    +0.000 C 
ENDBRANCH  30  31
ENDBRANCH  28  30
ENDBRANCH   1  28
TORSDOF 7
ENDMDL
MODEL 9
REMARK VINA RESULT:      -8.1      2.584      9.365
REMARK  Name = 
REMARK  10 active torsions:
REMARK  status: ('A' for Active; 'I' for Inactive)
REMARK    1  A    between atoms: C_1  and  C_2
REMARK    2  A    between atoms: C_2  and  O_3
REMARK    3  A    between atoms: C_2  and  C_30
REMARK    4  A    between atoms: O_3  and  C_4
REMARK    5  A    between atoms: N_13  and  C_14
REMARK    6  A    between atoms: C_17  and  O_18
REMARK    7  A    between atoms: O_18  and  C_19
REMARK    8  A    between atoms: C_19  and  C_20
REMARK    9  A    between atoms: N_32  and  C_33
REMARK   10  A    between atoms: N_32  and  C_34
REMARK                            x       y       z     vdW  Elec       q    Type
REMARK                         _______ _______ _______ _____ _____    ______ ____
ROOT
ATOM      1  C   UNL     1      -1.309  11.673  20.135  0.00  0.00    +0.000 A 
ATOM      2  C   UNL     1      -2.011  12.830  20.483  0.00  0.00    +0.000 A 
ATOM      3  C   UNL     1      -2.196  13.142  21.821  0.00  0.00    +0.000 A 
ATOM      4  C   UNL     1      -1.665  12.301  22.796  0.00  0.00    +0.000 A 
ATOM      5  C   UNL     1      -0.884  11.201  22.475  0.00  0.00    +0.000 A 
ATOM      6  N   UNL     1      -0.385  10.504  23.497  0.00  0.00    +0.000 NA
ATOM      7  C   UNL     1       0.400   9.472  23.192  0.00  0.00    +0.000 A 
ATOM      8  N   UNL     1       0.762   9.096  21.965  0.00  0.00    +0.000 NA
ATOM      9  C   UNL     1       0.257   9.795  20.929  0.00  0.00    +0.000 A 
ATOM     10  N   UNL     1       0.667   9.431  19.611  0.00  0.00    +0.000 N 
ATOM     11  C   UNL     1      -0.642  10.883  21.126  0.00  0.00    +0.000 A 
ATOM     12  H   UNL     1       0.803  10.273  19.059  0.00  0.00    +0.000 HD
ENDROOT
BRANCH  10  13
ATOM     13  C   UNL     1       1.457   8.337  19.186  0.00  0.00    +0.000 A 
ATOM     14  C   UNL     1       2.179   8.347  17.994  0.00  0.00    +0.000 A 
ATOM     15  C   UNL     1       2.974   7.259  17.611  0.00  0.00    +0.000 A 
ATOM     16  C   UNL     1       3.111   6.123  18.418  0.00  0.00    +0.000 A 
ATOM     17  C   UNL     1       2.421   6.109  19.635  0.00  0.00    +0.000 A 
ATOM     18 CL   UNL     1       2.433   4.782  20.744  0.00  0.00    +0.000 Cl
ATOM     19  C   UNL     1       1.615   7.212  20.011  0.00  0.00    +0.000 A 
BRANCH  16  20
ATOM     20  O   UNL     1       3.891   5.171  17.822  0.00  0.00    +0.000 OA
BRANCH  20  21
ATOM     21  C   UNL     1       4.858   5.530  16.834  0.00  0.00    +0.000 C 
BRANCH  21  22
ATOM     22  C   UNL     1       6.133   6.063  17.475  0.00  0.00    +0.000 A 
ATOM     23  C   UNL     1       6.675   7.295  17.112  0.00  0.00    +0.000 A 
ATOM     24  C   UNL     1       7.795   7.775  17.786  0.00  0.00    +0.000 A 
ATOM     25  C   UNL     1       8.352   7.021  18.812  0.00  0.00    +0.000 A 
ATOM     26  C   UNL     1       7.758   5.808  19.116  0.00  0.00    +0.000 A 
ATOM     27  N   UNL     1       6.672   5.316  18.480  0.00  0.00    +0.000 NA
ENDBRANCH  21  22
ENDBRANCH  20  21
ENDBRANCH  16  20
ENDBRANCH  10  13
BRANCH   1  28
ATOM     28  O   UNL     1      -1.236  11.250  18.831  0.00  0.00    +0.000 OA
BRANCH  28  30
ATOM     29  C   UNL     1      -1.891  11.328  16.579  0.00  0.00    +0.000 C 
ATOM     30  C   UNL     1      -2.394  11.478  18.022  0.00  0.00    +0.000 C 
BRANCH  30  31
ATOM     31  C   UNL     1      -3.681  10.586  18.131  0.00  0.00    +0.000 C 
ATOM     32  O   UNL     1      -3.663   9.384  17.904  0.00  0.00    +0.000 OA
ATOM     33  N   UNL     1      -4.887  11.257  18.450  0.00  0.00    +0.000 N 
ATOM     34  C   UNL     1      -6.132  10.513  18.394  0.00  0.00    +0.000 C 
ATOM     35  C   UNL     1      -4.974  12.571  19.071  0.00  0.00    +0.000 C 
ENDBRANCH  30  31
ENDBRANCH  28  30
ENDBRANCH   1  28
TORSDOF 7
ENDMDL
