MODEL 1
REMARK VINA RESULT:      -8.2      0.000      0.000
REMARK  Name = 
REMARK  4 active torsions:
REMARK  status: ('A' for Active; 'I' for Inactive)
REMARK    1  A    between atoms: C_1  and  C_2
REMARK    2  A    between atoms: C_7  and  S_8
REMARK    3  A    between atoms: S_8  and  C_9
REMARK    4  A    between atoms: C_9  and  C_10
REMARK                            x       y       z     vdW  Elec       q    Type
REMARK                         _______ _______ _______ _____ _____    ______ ____
ROOT
ATOM      1  C   UNL     1       4.758   2.757  11.340  0.00  0.00    +0.000 C 
ATOM      2  C   UNL     1       5.579   3.543  12.323  0.00  0.00    +0.000 A 
ATOM      3  C   UNL     1       6.879   3.957  11.996  0.00  0.00    +0.000 A 
ATOM      4  C   UNL     1       7.664   4.689  12.894  0.00  0.00    +0.000 A 
ATOM      5  C   UNL     1       7.090   4.988  14.133  0.00  0.00    +0.000 A 
ATOM      6  N   UNL     1       7.556   5.670  15.228  0.00  0.00    +0.000 N 
ATOM      7  C   UNL     1       6.583   5.657  16.188  0.00  0.00    +0.000 A 
ATOM      8  N   UNL     1       5.506   5.024  15.787  0.00  0.00    +0.000 NA
ATOM      9  C   UNL     1       5.806   4.598  14.502  0.00  0.00    +0.000 A 
ATOM     10  C   UNL     1       5.034   3.866  13.584  0.00  0.00    +0.000 A 
ATOM     11  H   UNL     1       8.461   6.101  15.332  0.00  0.00    +0.000 HD
ENDROOT
BRANCH   7  12
ATOM     12  S   UNL     1       6.894   6.461  17.688  0.00  0.00    +0.000 S 
BRANCH  12  13
ATOM     13  C   UNL     1       6.819   5.110  18.904  0.00  0.00    +0.000 C 
BRANCH  13  14
ATOM     14  C   UNL     1       5.394   4.718  19.208  0.00  0.00    +0.000 A 
ATOM     15  C   UNL     1       4.303   5.526  19.458  0.00  0.00    +0.000 A 
ATOM     16  N   UNL     1       3.244   4.679  19.671  0.00  0.00    +0.000 N 
ATOM     17  C   UNL     1       1.916   4.961  19.981  0.00  0.00    +0.000 A 
ATOM     18  C   UNL     1       1.054   3.948  20.154  0.00  0.00    +0.000 A 
ATOM     19  C   UNL     1       1.641   2.589  19.982  0.00  0.00    +0.000 A 
ATOM     20  N   UNL     1       2.875   2.309  19.690  0.00  0.00    +0.000 NA
ATOM     21  C   UNL     1       3.712   3.376  19.529  0.00  0.00    +0.000 A 
ATOM     22  N   UNL     1       5.004   3.392  19.240  0.00  0.00    +0.000 NA
ENDBRANCH  13  14
ENDBRANCH  12  13
ENDBRANCH   7  12
TORSDOF 3
ENDMDL
MODEL 2
REMARK VINA RESULT:      -8.1      0.729      1.312
REMARK  Name = 
REMARK  4 active torsions:
REMARK  status: ('A' for Active; 'I' for Inactive)
REMARK    1  A    between atoms: C_1  and  C_2
REMARK    2  A    between atoms: C_7  and  S_8
REMARK    3  A    between atoms: S_8  and  C_9
REMARK    4  A    between atoms: C_9  and  C_10
REMARK                            x       y       z     vdW  Elec       q    Type
REMARK                         _______ _______ _______ _____ _____    ______ ____
ROOT
ATOM      1  C   UNL     1       5.065   2.533  11.337  0.00  0.00    +0.000 C 
ATOM      2  C   UNL     1       5.770   3.405  12.337  0.00  0.00    +0.000 A 
ATOM      3  C   UNL     1       7.016   3.974  12.033  0.00  0.00    +0.000 A 
ATOM      4  C   UNL     1       7.694   4.789  12.947  0.00  0.00    +0.000 A 
ATOM      5  C   UNL     1       7.070   5.007  14.179  0.00  0.00    +0.000 A 
ATOM      6  N   UNL     1       7.435   5.732  15.284  0.00  0.00    +0.000 N 
ATOM      7  C   UNL     1       6.456   5.596  16.229  0.00  0.00    +0.000 A 
ATOM      8  N   UNL     1       5.469   4.841  15.809  0.00  0.00    +0.000 NA
ATOM      9  C   UNL     1       5.838   4.463  14.526  0.00  0.00    +0.000 A 
ATOM     10  C   UNL     1       5.172   3.650  13.591  0.00  0.00    +0.000 A 
ATOM     11  H   UNL     1       8.280   6.268  15.405  0.00  0.00    +0.000 HD
ENDROOT
BRANCH   7  12
ATOM     12  S   UNL     1       6.647   6.420  17.739  0.00  0.00    +0.000 S 
BRANCH  12  13
ATOM     13  C   UNL     1       6.635   5.066  18.953  0.00  0.00    +0.000 C 
BRANCH  13  14
ATOM     14  C   UNL     1       5.229   4.631  19.284  0.00  0.00    +0.000 A 
ATOM     15  C   UNL     1       4.704   3.356  19.345  0.00  0.00    +0.000 A 
ATOM     16  N   UNL     1       3.384   3.505  19.693  0.00  0.00    +0.000 N 
ATOM     17  C   UNL     1       2.388   2.548  19.874  0.00  0.00    +0.000 A 
ATOM     18  C   UNL     1       1.152   2.944  20.210  0.00  0.00    +0.000 A 
ATOM     19  C   UNL     1       0.985   4.418  20.360  0.00  0.00    +0.000 A 
ATOM     20  N   UNL     1       1.902   5.322  20.198  0.00  0.00    +0.000 NA
ATOM     21  C   UNL     1       3.142   4.866  19.852  0.00  0.00    +0.000 A 
ATOM     22  N   UNL     1       4.251   5.550  19.617  0.00  0.00    +0.000 NA
ENDBRANCH  13  14
ENDBRANCH  12  13
ENDBRANCH   7  12
TORSDOF 3
ENDMDL
MODEL 3
REMARK VINA RESULT:      -7.4      1.149      1.484
REMARK  Name = 
REMARK  4 active torsions:
REMARK  status: ('A' for Active; 'I' for Inactive)
REMARK    1  A    between atoms: C_1  and  C_2
REMARK    2  A    between atoms: C_7  and  S_8
REMARK    3  A    between atoms: S_8  and  C_9
REMARK    4  A    between atoms: C_9  and  C_10
REMARK                            x       y       z     vdW  Elec       q    Type
REMARK                         _______ _______ _______ _____ _____    ______ ____
ROOT
ATOM      1  C   UNL     1       4.598   2.881  11.149  0.00  0.00    +0.000 C 
ATOM      2  C   UNL     1       5.490   3.529  12.169  0.00  0.00    +0.000 A 
ATOM      3  C   UNL     1       6.653   4.206  11.771  0.00  0.00    +0.000 A 
ATOM      4  C   UNL     1       7.501   4.818  12.702  0.00  0.00    +0.000 A 
ATOM      5  C   UNL     1       7.134   4.720  14.047  0.00  0.00    +0.000 A 
ATOM      6  N   UNL     1       7.713   5.187  15.200  0.00  0.00    +0.000 N 
ATOM      7  C   UNL     1       6.940   4.795  16.257  0.00  0.00    +0.000 A 
ATOM      8  N   UNL     1       5.887   4.115  15.871  0.00  0.00    +0.000 NA
ATOM      9  C   UNL     1       5.993   4.058  14.489  0.00  0.00    +0.000 A 
ATOM     10  C   UNL     1       5.153   3.454  13.537  0.00  0.00    +0.000 A 
ATOM     11  H   UNL     1       8.567   5.717  15.277  0.00  0.00    +0.000 HD
ENDROOT
BRANCH   7  12
ATOM     12  S   UNL     1       7.428   5.258  17.851  0.00  0.00    +0.000 S 
BRANCH  12  13
ATOM     13  C   UNL     1       5.950   6.090  18.510  0.00  0.00    +0.000 C 
BRANCH  13  14
ATOM     14  C   UNL     1       4.798   5.129  18.667  0.00  0.00    +0.000 A 
ATOM     15  C   UNL     1       4.750   3.932  19.353  0.00  0.00    +0.000 A 
ATOM     16  N   UNL     1       3.474   3.453  19.190  0.00  0.00    +0.000 N 
ATOM     17  C   UNL     1       2.890   2.276  19.654  0.00  0.00    +0.000 A 
ATOM     18  C   UNL     1       1.609   2.018  19.355  0.00  0.00    +0.000 A 
ATOM     19  C   UNL     1       0.934   3.063  18.533  0.00  0.00    +0.000 A 
ATOM     20  N   UNL     1       1.462   4.165  18.096  0.00  0.00    +0.000 NA
ATOM     21  C   UNL     1       2.771   4.377  18.425  0.00  0.00    +0.000 A 
ATOM     22  N   UNL     1       3.559   5.395  18.114  0.00  0.00    +0.000 NA
ENDBRANCH  13  14
ENDBRANCH  12  13
ENDBRANCH   7  12
TORSDOF 3
ENDMDL
MODEL 4
REMARK VINA RESULT:      -7.2      3.015      7.724
REMARK  Name = 
REMARK  4 active torsions:
REMARK  status: ('A' for Active; 'I' for Inactive)
REMARK    1  A    between atoms: C_1  and  C_2
REMARK    2  A    between atoms: C_7  and  S_8
REMARK    3  A    between atoms: S_8  and  C_9
REMARK    4  A    between atoms: C_9  and  C_10
REMARK                            x       y       z     vdW  Elec       q    Type
REMARK                         _______ _______ _______ _____ _____    ______ ____
ROOT
ATOM      1  C   UNL     1      -0.417  11.136  18.708  0.00  0.00    +0.000 C 
ATOM      2  C   UNL     1       0.397   9.949  19.141  0.00  0.00    +0.000 A 
ATOM      3  C   UNL     1       0.367   9.514  20.474  0.00  0.00    +0.000 A 
ATOM      4  C   UNL     1       1.117   8.412  20.903  0.00  0.00    +0.000 A 
ATOM      5  C   UNL     1       1.897   7.768  19.939  0.00  0.00    +0.000 A 
ATOM      6  N   UNL     1       2.736   6.684  20.001  0.00  0.00    +0.000 N 
ATOM      7  C   UNL     1       3.266   6.480  18.757  0.00  0.00    +0.000 A 
ATOM      8  N   UNL     1       2.818   7.350  17.884  0.00  0.00    +0.000 NA
ATOM      9  C   UNL     1       1.959   8.165  18.607  0.00  0.00    +0.000 A 
ATOM     10  C   UNL     1       1.196   9.272  18.197  0.00  0.00    +0.000 A 
ATOM     11  H   UNL     1       2.949   6.130  20.815  0.00  0.00    +0.000 HD
ENDROOT
BRANCH   7  12
ATOM     12  S   UNL     1       4.361   5.159  18.535  0.00  0.00    +0.000 S 
BRANCH  12  13
ATOM     13  C   UNL     1       5.818   5.952  17.790  0.00  0.00    +0.000 C 
BRANCH  13  14
ATOM     14  C   UNL     1       6.080   5.433  16.398  0.00  0.00    +0.000 A 
ATOM     15  C   UNL     1       5.360   4.514  15.661  0.00  0.00    +0.000 A 
ATOM     16  N   UNL     1       6.014   4.395  14.460  0.00  0.00    +0.000 N 
ATOM     17  C   UNL     1       5.729   3.592  13.358  0.00  0.00    +0.000 A 
ATOM     18  C   UNL     1       6.532   3.644  12.285  0.00  0.00    +0.000 A 
ATOM     19  C   UNL     1       7.674   4.594  12.401  0.00  0.00    +0.000 A 
ATOM     20  N   UNL     1       7.952   5.351  13.419  0.00  0.00    +0.000 NA
ATOM     21  C   UNL     1       7.106   5.256  14.487  0.00  0.00    +0.000 A 
ATOM     22  N   UNL     1       7.147   5.893  15.647  0.00  0.00    +0.000 NA
ENDBRANCH  13  14
ENDBRANCH  12  13
ENDBRANCH   7  12
TORSDOF 3
ENDMDL
MODEL 5
REMARK VINA RESULT:      -7.1      3.391      6.948
REMARK  Name = 
REMARK  4 active torsions:
REMARK  status: ('A' for Active; 'I' for Inactive)
REMARK    1  A    between atoms: C_1  and  C_2
REMARK    2  A    between atoms: C_7  and  S_8
REMARK    3  A    between atoms: S_8  and  C_9
REMARK    4  A    between atoms: C_9  and  C_10
REMARK                            x       y       z     vdW  Elec       q    Type
REMARK                         _______ _______ _______ _____ _____    ______ ____
ROOT
ATOM      1  C   UNL     1       0.618  11.752  19.055  0.00  0.00    +0.000 C 
ATOM      2  C   UNL     1       1.147  10.346  19.005  0.00  0.00    +0.000 A 
ATOM      3  C   UNL     1       1.859   9.892  17.886  0.00  0.00    +0.000 A 
ATOM      4  C   UNL     1       2.362   8.588  17.815  0.00  0.00    +0.000 A 
ATOM      5  C   UNL     1       2.118   7.759  18.914  0.00  0.00    +0.000 A 
ATOM      6  N   UNL     1       2.453   6.456  19.182  0.00  0.00    +0.000 N 
ATOM      7  C   UNL     1       1.949   6.127  20.409  0.00  0.00    +0.000 A 
ATOM      8  N   UNL     1       1.319   7.134  20.967  0.00  0.00    +0.000 NA
ATOM      9  C   UNL     1       1.415   8.164  20.044  0.00  0.00    +0.000 A 
ATOM     10  C   UNL     1       0.922   9.479  20.096  0.00  0.00    +0.000 A 
ATOM     11  H   UNL     1       2.968   5.828  18.585  0.00  0.00    +0.000 HD
ENDROOT
BRANCH   7  12
ATOM     12  S   UNL     1       2.232   4.532  21.016  0.00  0.00    +0.000 S 
BRANCH  12  13
ATOM     13  C   UNL     1       2.196   3.507  19.514  0.00  0.00    +0.000 C 
BRANCH  13  14
ATOM     14  C   UNL     1       3.410   3.746  18.651  0.00  0.00    +0.000 A 
ATOM     15  C   UNL     1       3.524   3.700  17.276  0.00  0.00    +0.000 A 
ATOM     16  N   UNL     1       4.834   3.998  16.993  0.00  0.00    +0.000 N 
ATOM     17  C   UNL     1       5.494   4.071  15.769  0.00  0.00    +0.000 A 
ATOM     18  C   UNL     1       6.799   4.377  15.746  0.00  0.00    +0.000 A 
ATOM     19  C   UNL     1       7.411   4.616  17.085  0.00  0.00    +0.000 A 
ATOM     20  N   UNL     1       6.809   4.555  18.233  0.00  0.00    +0.000 NA
ATOM     21  C   UNL     1       5.482   4.235  18.201  0.00  0.00    +0.000 A 
ATOM     22  N   UNL     1       4.629   4.095  19.204  0.00  0.00    +0.000 NA
ENDBRANCH  13  14
ENDBRANCH  12  13
ENDBRANCH   7  12
TORSDOF 3
ENDMDL
MODEL 6
REMARK VINA RESULT:      -7.1      2.676      7.718
REMARK  Name = 
REMARK  4 active torsions:
REMARK  status: ('A' for Active; 'I' for Inactive)
REMARK    1  A    between atoms: C_1  and  C_2
REMARK    2  A    between atoms: C_7  and  S_8
REMARK    3  A    between atoms: S_8  and  C_9
REMARK    4  A    between atoms: C_9  and  C_10
REMARK                            x       y       z     vdW  Elec       q    Type
REMARK                         _______ _______ _______ _____ _____    ______ ____
ROOT
ATOM      1  C   UNL     1       0.531   9.960  21.759  0.00  0.00    +0.000 C 
ATOM      2  C   UNL     1       1.143   9.136  20.662  0.00  0.00    +0.000 A 
ATOM      3  C   UNL     1       1.180   9.618  19.345  0.00  0.00    +0.000 A 
ATOM      4  C   UNL     1       1.743   8.870  18.305  0.00  0.00    +0.000 A 
ATOM      5  C   UNL     1       2.266   7.618  18.642  0.00  0.00    +0.000 A 
ATOM      6  N   UNL     1       2.877   6.640  17.899  0.00  0.00    +0.000 N 
ATOM      7  C   UNL     1       3.185   5.599  18.729  0.00  0.00    +0.000 A 
ATOM      8  N   UNL     1       2.827   5.837  19.968  0.00  0.00    +0.000 NA
ATOM      9  C   UNL     1       2.250   7.097  19.932  0.00  0.00    +0.000 A 
ATOM     10  C   UNL     1       1.682   7.867  20.962  0.00  0.00    +0.000 A 
ATOM     11  H   UNL     1       3.064   6.661  16.908  0.00  0.00    +0.000 HD
ENDROOT
BRANCH   7  12
ATOM     12  S   UNL     1       3.982   4.217  18.058  0.00  0.00    +0.000 S 
BRANCH  12  13
ATOM     13  C   UNL     1       5.679   4.812  17.786  0.00  0.00    +0.000 C 
BRANCH  13  14
ATOM     14  C   UNL     1       6.086   4.685  16.338  0.00  0.00    +0.000 A 
ATOM     15  C   UNL     1       5.610   3.819  15.374  0.00  0.00    +0.000 A 
ATOM     16  N   UNL     1       6.303   4.112  14.226  0.00  0.00    +0.000 N 
ATOM     17  C   UNL     1       6.234   3.532  12.961  0.00  0.00    +0.000 A 
ATOM     18  C   UNL     1       7.030   3.992  11.985  0.00  0.00    +0.000 A 
ATOM     19  C   UNL     1       7.925   5.116  12.383  0.00  0.00    +0.000 A 
ATOM     20  N   UNL     1       7.999   5.670  13.555  0.00  0.00    +0.000 NA
ATOM     21  C   UNL     1       7.171   5.161  14.514  0.00  0.00    +0.000 A 
ATOM     22  N   UNL     1       7.039   5.518  15.782  0.00  0.00    +0.000 NA
ENDBRANCH  13  14
ENDBRANCH  12  13
ENDBRANCH   7  12
TORSDOF 3
ENDMDL
MODEL 7
REMARK VINA RESULT:      -6.9      2.881      4.678
REMARK  Name = 
REMARK  4 active torsions:
REMARK  status: ('A' for Active; 'I' for Inactive)
REMARK    1  A    between atoms: C_1  and  C_2
REMARK    2  A    between atoms: C_7  and  S_8
REMARK    3  A    between atoms: S_8  and  C_9
REMARK    4  A    between atoms: C_9  and  C_10
REMARK                            x       y       z     vdW  Elec       q    Type
REMARK                         _______ _______ _______ _____ _____    ______ ____
ROOT
ATOM      1  C   UNL     1       8.080   7.898  17.893  0.00  0.00    +0.000 C 
ATOM      2  C   UNL     1       7.209   6.703  17.626  0.00  0.00    +0.000 A 
ATOM      3  C   UNL     1       6.873   6.346  16.312  0.00  0.00    +0.000 A 
ATOM      4  C   UNL     1       6.063   5.238  16.036  0.00  0.00    +0.000 A 
ATOM      5  C   UNL     1       5.604   4.506  17.135  0.00  0.00    +0.000 A 
ATOM      6  N   UNL     1       4.811   3.391  17.237  0.00  0.00    +0.000 N 
ATOM      7  C   UNL     1       4.658   3.093  18.562  0.00  0.00    +0.000 A 
ATOM      8  N   UNL     1       5.310   3.931  19.332  0.00  0.00    +0.000 NA
ATOM      9  C   UNL     1       5.909   4.823  18.454  0.00  0.00    +0.000 A 
ATOM     10  C   UNL     1       6.727   5.938  18.708  0.00  0.00    +0.000 A 
ATOM     11  H   UNL     1       4.391   2.875  16.479  0.00  0.00    +0.000 HD
ENDROOT
BRANCH   7  12
ATOM     12  S   UNL     1       3.706   1.714  18.993  0.00  0.00    +0.000 S 
BRANCH  12  13
ATOM     13  C   UNL     1       2.003   2.348  18.912  0.00  0.00    +0.000 C 
BRANCH  13  14
ATOM     14  C   UNL     1       1.953   3.835  19.157  0.00  0.00    +0.000 A 
ATOM     15  C   UNL     1       1.742   4.517  20.338  0.00  0.00    +0.000 A 
ATOM     16  N   UNL     1       1.796   5.852  20.022  0.00  0.00    +0.000 N 
ATOM     17  C   UNL     1       1.632   6.974  20.830  0.00  0.00    +0.000 A 
ATOM     18  C   UNL     1       1.723   8.194  20.282  0.00  0.00    +0.000 A 
ATOM     19  C   UNL     1       2.006   8.205  18.818  0.00  0.00    +0.000 A 
ATOM     20  N   UNL     1       2.164   7.170  18.052  0.00  0.00    +0.000 NA
ATOM     21  C   UNL     1       2.057   5.951  18.659  0.00  0.00    +0.000 A 
ATOM     22  N   UNL     1       2.162   4.740  18.132  0.00  0.00    +0.000 NA
ENDBRANCH  13  14
ENDBRANCH  12  13
ENDBRANCH   7  12
TORSDOF 3
ENDMDL
MODEL 8
REMARK VINA RESULT:      -6.8      5.791      7.929
REMARK  Name = 
REMARK  4 active torsions:
REMARK  status: ('A' for Active; 'I' for Inactive)
REMARK    1  A    between atoms: C_1  and  C_2
REMARK    2  A    between atoms: C_7  and  S_8
REMARK    3  A    between atoms: S_8  and  C_9
REMARK    4  A    between atoms: C_9  and  C_10
REMARK                            x       y       z     vdW  Elec       q    Type
REMARK                         _______ _______ _______ _____ _____    ______ ____
ROOT
ATOM      1  C   UNL     1       4.681   4.113  16.593  0.00  0.00    +0.000 C 
ATOM      2  C   UNL     1       3.936   4.681  17.769  0.00  0.00    +0.000 A 
ATOM      3  C   UNL     1       3.683   3.892  18.900  0.00  0.00    +0.000 A 
ATOM      4  C   UNL     1       2.992   4.396  20.008  0.00  0.00    +0.000 A 
ATOM      5  C   UNL     1       2.565   5.725  19.930  0.00  0.00    +0.000 A 
ATOM      6  N   UNL     1       1.877   6.528  20.805  0.00  0.00    +0.000 N 
ATOM      7  C   UNL     1       1.706   7.752  20.220  0.00  0.00    +0.000 A 
ATOM      8  N   UNL     1       2.248   7.806  19.027  0.00  0.00    +0.000 NA
ATOM      9  C   UNL     1       2.791   6.545  18.829  0.00  0.00    +0.000 A 
ATOM     10  C   UNL     1       3.490   6.018  17.729  0.00  0.00    +0.000 A 
ATOM     11  H   UNL     1       1.536   6.275  21.719  0.00  0.00    +0.000 HD
ENDROOT
BRANCH   7  12
ATOM     12  S   UNL     1       0.874   8.981  21.109  0.00  0.00    +0.000 S 
BRANCH  12  13
ATOM     13  C   UNL     1       0.974  10.425  20.008  0.00  0.00    +0.000 C 
BRANCH  13  14
ATOM     14  C   UNL     1      -0.243  10.532  19.122  0.00  0.00    +0.000 A 
ATOM     15  C   UNL     1      -0.462   9.982  17.875  0.00  0.00    +0.000 A 
ATOM     16  N   UNL     1      -1.725  10.374  17.504  0.00  0.00    +0.000 N 
ATOM     17  C   UNL     1      -2.438  10.117  16.336  0.00  0.00    +0.000 A 
ATOM     18  C   UNL     1      -3.672  10.623  16.198  0.00  0.00    +0.000 A 
ATOM     19  C   UNL     1      -4.154  11.426  17.358  0.00  0.00    +0.000 A 
ATOM     20  N   UNL     1      -3.504  11.672  18.454  0.00  0.00    +0.000 NA
ATOM     21  C   UNL     1      -2.250  11.138  18.541  0.00  0.00    +0.000 A 
ATOM     22  N   UNL     1      -1.367  11.229  19.524  0.00  0.00    +0.000 NA
ENDBRANCH  13  14
ENDBRANCH  12  13
ENDBRANCH   7  12
TORSDOF 3
ENDMDL
MODEL 9
REMARK VINA RESULT:      -6.7      0.891      1.947
REMARK  Name = 
REMARK  4 active torsions:
REMARK  status: ('A' for Active; 'I' for Inactive)
REMARK    1  A    between atoms: C_1  and  C_2
REMARK    2  A    between atoms: C_7  and  S_8
REMARK    3  A    between atoms: S_8  and  C_9
REMARK    4  A    between atoms: C_9  and  C_10
REMARK                            x       y       z     vdW  Elec       q    Type
REMARK                         _______ _______ _______ _____ _____    ______ ____
ROOT
ATOM      1  C   UNL     1       7.414   2.608  10.826  0.00  0.00    +0.000 C 
ATOM      2  C   UNL     1       6.753   3.232  12.022  0.00  0.00    +0.000 A 
ATOM      3  C   UNL     1       5.371   3.098  12.224  0.00  0.00    +0.000 A 
ATOM      4  C   UNL     1       4.731   3.670  13.330  0.00  0.00    +0.000 A 
ATOM      5  C   UNL     1       5.537   4.383  14.223  0.00  0.00    +0.000 A 
ATOM      6  N   UNL     1       5.257   5.058  15.384  0.00  0.00    +0.000 N 
ATOM      7  C   UNL     1       6.420   5.595  15.859  0.00  0.00    +0.000 A 
ATOM      8  N   UNL     1       7.445   5.304  15.094  0.00  0.00    +0.000 NA
ATOM      9  C   UNL     1       6.909   4.545  14.063  0.00  0.00    +0.000 A 
ATOM     10  C   UNL     1       7.532   3.959  12.947  0.00  0.00    +0.000 A 
ATOM     11  H   UNL     1       4.354   5.164  15.820  0.00  0.00    +0.000 HD
ENDROOT
BRANCH   7  12
ATOM     12  S   UNL     1       6.369   6.500  17.333  0.00  0.00    +0.000 S 
BRANCH  12  13
ATOM     13  C   UNL     1       6.527   5.215  18.611  0.00  0.00    +0.000 C 
BRANCH  13  14
ATOM     14  C   UNL     1       5.178   4.750  19.099  0.00  0.00    +0.000 A 
ATOM     15  C   UNL     1       4.725   3.463  19.309  0.00  0.00    +0.000 A 
ATOM     16  N   UNL     1       3.433   3.583  19.758  0.00  0.00    +0.000 N 
ATOM     17  C   UNL     1       2.506   2.602  20.102  0.00  0.00    +0.000 A 
ATOM     18  C   UNL     1       1.284   2.972  20.512  0.00  0.00    +0.000 A 
ATOM     19  C   UNL     1       1.055   4.444  20.556  0.00  0.00    +0.000 A 
ATOM     20  N   UNL     1       1.908   5.370  20.242  0.00  0.00    +0.000 NA
ATOM     21  C   UNL     1       3.136   4.941  19.827  0.00  0.00    +0.000 A 
ATOM     22  N   UNL     1       4.186   5.650  19.441  0.00  0.00    +0.000 NA
ENDBRANCH  13  14
ENDBRANCH  12  13
ENDBRANCH   7  12
TORSDOF 3
ENDMDL
