MODEL 1
REMARK VINA RESULT:      -8.1      0.000      0.000
REMARK  Name = 
REMARK  8 active torsions:
REMARK  status: ('A' for Active; 'I' for Inactive)
REMARK    1  A    between atoms: C_1  and  O_2
REMARK    2  A    between atoms: O_2  and  C_3
REMARK    3  A    between atoms: C_5  and  C_6
REMARK    4  A    between atoms: C_10  and  C_11
REMARK    5  A    between atoms: C_12  and  C_13
REMARK    6  A    between atoms: C_15  and  C_16
REMARK    7  A    between atoms: C_17  and  O_18
REMARK    8  A    between atoms: C_25  and  O_26
REMARK                            x       y       z     vdW  Elec       q    Type
REMARK                         _______ _______ _______ _____ _____    ______ ____
ROOT
ATOM      1  C   UNL     1       1.439   8.133  20.758  0.00  0.00    +0.000 C 
ATOM      2  C   UNL     1       0.704   6.797  20.812  0.00  0.00    +0.000 C 
ATOM      3  C   UNL     1       1.829   5.781  20.757  0.00  0.00    +0.000 C 
ATOM      4  O   UNL     1       1.335   4.456  20.830  0.00  0.00    +0.000 OA
ATOM      5  C   UNL     1       2.449   3.576  21.027  0.00  0.00    +0.000 C 
ATOM      6  C   UNL     1       1.865   2.273  21.565  0.00  0.00    +0.000 C 
ATOM      7  C   UNL     1       3.390   3.552  19.763  0.00  0.00    +0.000 C 
ATOM      8  C   UNL     1       3.275   2.253  18.952  0.00  0.00    +0.000 C 
ATOM      9  C   UNL     1       3.380   4.881  18.949  0.00  0.00    +0.000 A 
ATOM     10  C   UNL     1       4.116   5.136  17.753  0.00  0.00    +0.000 A 
ATOM     11  C   UNL     1       4.946   4.120  17.015  0.00  0.00    +0.000 C 
ATOM     12  C   UNL     1       4.090   6.445  17.200  0.00  0.00    +0.000 A 
ATOM     13  C   UNL     1       3.386   7.490  17.785  0.00  0.00    +0.000 A 
ATOM     14  C   UNL     1       2.666   7.255  18.937  0.00  0.00    +0.000 A 
ATOM     15  C   UNL     1       2.640   5.966  19.503  0.00  0.00    +0.000 A 
ATOM     16  O   UNL     1       1.984   8.337  19.446  0.00  0.00    +0.000 OA
ENDROOT
BRANCH   1  19
ATOM     17  C   UNL     1      -0.606  11.388  20.776  0.00  0.00    +0.000 A 
ATOM     18  C   UNL     1       0.181  10.311  20.335  0.00  0.00    +0.000 A 
ATOM     19  C   UNL     1       0.570   9.288  21.204  0.00  0.00    +0.000 A 
ATOM     20  C   UNL     1       0.139   9.337  22.541  0.00  0.00    +0.000 A 
ATOM     21  C   UNL     1      -0.641  10.399  22.994  0.00  0.00    +0.000 A 
ATOM     22  C   UNL     1      -1.009  11.422  22.118  0.00  0.00    +0.000 A 
BRANCH  17  24
ATOM     23  C   UNL     1      -2.010  12.080  18.970  0.00  0.00    +0.000 C 
ATOM     24  O   UNL     1      -0.866  12.290  19.783  0.00  0.00    +0.000 OA
ENDBRANCH  17  24
BRANCH  22  25
ATOM     25  O   UNL     1      -1.762  12.451  22.615  0.00  0.00    +0.000 OA
ATOM     26  H   UNL     1      -2.689  12.168  22.666  0.00  0.00    +0.000 HD
ENDBRANCH  22  25
ENDBRANCH   1  19
BRANCH  12  27
ATOM     27  O   UNL     1       4.768   6.802  16.063  0.00  0.00    +0.000 OA
ATOM     28  H   UNL     1       5.667   7.093  16.279  0.00  0.00    +0.000 HD
ENDBRANCH  12  27
TORSDOF 4
ENDMDL
MODEL 2
REMARK VINA RESULT:      -7.9      2.090      8.057
REMARK  Name = 
REMARK  8 active torsions:
REMARK  status: ('A' for Active; 'I' for Inactive)
REMARK    1  A    between atoms: C_1  and  O_2
REMARK    2  A    between atoms: O_2  and  C_3
REMARK    3  A    between atoms: C_5  and  C_6
REMARK    4  A    between atoms: C_10  and  C_11
REMARK    5  A    between atoms: C_12  and  C_13
REMARK    6  A    between atoms: C_15  and  C_16
REMARK    7  A    between atoms: C_17  and  O_18
REMARK    8  A    between atoms: C_25  and  O_26
REMARK                            x       y       z     vdW  Elec       q    Type
REMARK                         _______ _______ _______ _____ _____    ______ ____
ROOT
ATOM      1  C   UNL     1       2.248   8.115  18.727  0.00  0.00    +0.000 C 
ATOM      2  C   UNL     1       0.926   8.352  18.006  0.00  0.00    +0.000 C 
ATOM      3  C   UNL     1       0.510   9.729  18.489  0.00  0.00    +0.000 C 
ATOM      4  O   UNL     1      -0.705  10.143  17.889  0.00  0.00    +0.000 OA
ATOM      5  C   UNL     1      -0.899  11.532  18.192  0.00  0.00    +0.000 C 
ATOM      6  C   UNL     1      -1.914  12.045  17.175  0.00  0.00    +0.000 C 
ATOM      7  C   UNL     1      -1.150  11.753  19.731  0.00  0.00    +0.000 C 
ATOM      8  C   UNL     1      -2.609  12.094  20.061  0.00  0.00    +0.000 C 
ATOM      9  C   UNL     1      -0.466  10.685  20.638  0.00  0.00    +0.000 A 
ATOM     10  C   UNL     1      -0.538  10.625  22.062  0.00  0.00    +0.000 A 
ATOM     11  C   UNL     1      -1.381  11.525  22.924  0.00  0.00    +0.000 C 
ATOM     12  C   UNL     1       0.245   9.656  22.746  0.00  0.00    +0.000 A 
ATOM     13  C   UNL     1       1.088   8.773  22.084  0.00  0.00    +0.000 A 
ATOM     14  C   UNL     1       1.163   8.817  20.708  0.00  0.00    +0.000 A 
ATOM     15  C   UNL     1       0.383   9.741  19.988  0.00  0.00    +0.000 A 
ATOM     16  O   UNL     1       2.009   7.900  20.127  0.00  0.00    +0.000 OA
ENDROOT
BRANCH   1  19
ATOM     17  C   UNL     1       5.004   6.166  16.889  0.00  0.00    +0.000 A 
ATOM     18  C   UNL     1       4.285   7.216  17.482  0.00  0.00    +0.000 A 
ATOM     19  C   UNL     1       3.053   6.996  18.105  0.00  0.00    +0.000 A 
ATOM     20  C   UNL     1       2.543   5.687  18.149  0.00  0.00    +0.000 A 
ATOM     21  C   UNL     1       3.244   4.635  17.563  0.00  0.00    +0.000 A 
ATOM     22  C   UNL     1       4.467   4.873  16.932  0.00  0.00    +0.000 A 
BRANCH  17  24
ATOM     23  C   UNL     1       7.318   6.706  17.153  0.00  0.00    +0.000 C 
ATOM     24  O   UNL     1       6.174   6.586  16.321  0.00  0.00    +0.000 OA
ENDBRANCH  17  24
BRANCH  22  25
ATOM     25  O   UNL     1       5.108   3.809  16.358  0.00  0.00    +0.000 OA
ATOM     26  H   UNL     1       4.502   3.052  16.329  0.00  0.00    +0.000 HD
ENDBRANCH  22  25
ENDBRANCH   1  19
BRANCH  12  27
ATOM     27  O   UNL     1       0.260   9.518  24.110  0.00  0.00    +0.000 OA
ATOM     28  H   UNL     1       0.664   8.675  24.364  0.00  0.00    +0.000 HD
ENDBRANCH  12  27
TORSDOF 4
ENDMDL
MODEL 3
REMARK VINA RESULT:      -7.8      1.965      8.016
REMARK  Name = 
REMARK  8 active torsions:
REMARK  status: ('A' for Active; 'I' for Inactive)
REMARK    1  A    between atoms: C_1  and  O_2
REMARK    2  A    between atoms: O_2  and  C_3
REMARK    3  A    between atoms: C_5  and  C_6
REMARK    4  A    between atoms: C_10  and  C_11
REMARK    5  A    between atoms: C_12  and  C_13
REMARK    6  A    between atoms: C_15  and  C_16
REMARK    7  A    between atoms: C_17  and  O_18
REMARK    8  A    between atoms: C_25  and  O_26
REMARK                            x       y       z     vdW  Elec       q    Type
REMARK                         _______ _______ _______ _____ _____    ______ ____
ROOT
ATOM      1  C   UNL     1       2.301   7.954  18.673  0.00  0.00    +0.000 C 
ATOM      2  C   UNL     1       0.968   8.197  17.973  0.00  0.00    +0.000 C 
ATOM      3  C   UNL     1       0.590   9.596  18.425  0.00  0.00    +0.000 C 
ATOM      4  O   UNL     1      -0.629  10.017  17.839  0.00  0.00    +0.000 OA
ATOM      5  C   UNL     1      -0.789  11.417  18.106  0.00  0.00    +0.000 C 
ATOM      6  C   UNL     1      -1.815  11.922  17.096  0.00  0.00    +0.000 C 
ATOM      7  C   UNL     1      -1.002  11.687  19.643  0.00  0.00    +0.000 C 
ATOM      8  C   UNL     1      -2.447  12.067  19.993  0.00  0.00    +0.000 C 
ATOM      9  C   UNL     1      -0.320  10.632  20.566  0.00  0.00    +0.000 A 
ATOM     10  C   UNL     1      -0.363  10.614  21.992  0.00  0.00    +0.000 A 
ATOM     11  C   UNL     1      -1.170  11.555  22.845  0.00  0.00    +0.000 C 
ATOM     12  C   UNL     1       0.415   9.648  22.687  0.00  0.00    +0.000 A 
ATOM     13  C   UNL     1       1.226   8.730  22.033  0.00  0.00    +0.000 A 
ATOM     14  C   UNL     1       1.273   8.733  20.655  0.00  0.00    +0.000 A 
ATOM     15  C   UNL     1       0.496   9.653  19.925  0.00  0.00    +0.000 A 
ATOM     16  O   UNL     1       2.087   7.783  20.083  0.00  0.00    +0.000 OA
ENDROOT
BRANCH   1  19
ATOM     17  C   UNL     1       3.387   4.418  17.629  0.00  0.00    +0.000 A 
ATOM     18  C   UNL     1       2.644   5.475  18.180  0.00  0.00    +0.000 A 
ATOM     19  C   UNL     1       3.070   6.802  18.066  0.00  0.00    +0.000 A 
ATOM     20  C   UNL     1       4.257   7.072  17.364  0.00  0.00    +0.000 A 
ATOM     21  C   UNL     1       5.005   6.034  16.814  0.00  0.00    +0.000 A 
ATOM     22  C   UNL     1       4.576   4.712  16.949  0.00  0.00    +0.000 A 
BRANCH  17  24
ATOM     23  C   UNL     1       1.486   3.164  18.357  0.00  0.00    +0.000 C 
ATOM     24  O   UNL     1       2.815   3.198  17.859  0.00  0.00    +0.000 OA
ENDBRANCH  17  24
BRANCH  22  25
ATOM     25  O   UNL     1       5.354   3.727  16.404  0.00  0.00    +0.000 OA
ATOM     26  H   UNL     1       6.071   4.137  15.894  0.00  0.00    +0.000 HD
ENDBRANCH  22  25
ENDBRANCH   1  19
BRANCH  12  27
ATOM     27  O   UNL     1       0.457   9.549  24.054  0.00  0.00    +0.000 OA
ATOM     28  H   UNL     1       0.550  10.425  24.457  0.00  0.00    +0.000 HD
ENDBRANCH  12  27
TORSDOF 4
ENDMDL
MODEL 4
REMARK VINA RESULT:      -7.4      2.319      7.465
REMARK  Name = 
REMARK  8 active torsions:
REMARK  status: ('A' for Active; 'I' for Inactive)
REMARK    1  A    between atoms: C_1  and  O_2
REMARK    2  A    between atoms: O_2  and  C_3
REMARK    3  A    between atoms: C_5  and  C_6
REMARK    4  A    between atoms: C_10  and  C_11
REMARK    5  A    between atoms: C_12  and  C_13
REMARK    6  A    between atoms: C_15  and  C_16
REMARK    7  A    between atoms: C_17  and  O_18
REMARK    8  A    between atoms: C_25  and  O_26
REMARK                            x       y       z     vdW  Elec       q    Type
REMARK                         _______ _______ _______ _____ _____    ______ ____
ROOT
ATOM      1  C   UNL     1       1.966   7.153  18.918  0.00  0.00    +0.000 C 
ATOM      2  C   UNL     1       1.946   7.472  20.409  0.00  0.00    +0.000 C 
ATOM      3  C   UNL     1       0.882   8.549  20.518  0.00  0.00    +0.000 C 
ATOM      4  O   UNL     1       0.694   8.956  21.861  0.00  0.00    +0.000 OA
ATOM      5  C   UNL     1      -0.483   9.774  21.917  0.00  0.00    +0.000 C 
ATOM      6  C   UNL     1      -0.912   9.793  23.381  0.00  0.00    +0.000 C 
ATOM      7  C   UNL     1      -0.274  11.130  21.143  0.00  0.00    +0.000 C 
ATOM      8  C   UNL     1      -0.118  12.339  22.076  0.00  0.00    +0.000 C 
ATOM      9  C   UNL     1       0.739  11.030  19.963  0.00  0.00    +0.000 A 
ATOM     10  C   UNL     1       1.136  12.099  19.105  0.00  0.00    +0.000 A 
ATOM     11  C   UNL     1       0.720  13.536  19.266  0.00  0.00    +0.000 C 
ATOM     12  C   UNL     1       1.981  11.811  17.999  0.00  0.00    +0.000 A 
ATOM     13  C   UNL     1       2.425  10.527  17.712  0.00  0.00    +0.000 A 
ATOM     14  C   UNL     1       2.054   9.486  18.536  0.00  0.00    +0.000 A 
ATOM     15  C   UNL     1       1.242   9.730  19.660  0.00  0.00    +0.000 A 
ATOM     16  O   UNL     1       2.548   8.248  18.193  0.00  0.00    +0.000 OA
ENDROOT
BRANCH   1  19
ATOM     17  C   UNL     1       4.588   4.351  18.706  0.00  0.00    +0.000 A 
ATOM     18  C   UNL     1       3.963   5.569  19.017  0.00  0.00    +0.000 A 
ATOM     19  C   UNL     1       2.650   5.839  18.618  0.00  0.00    +0.000 A 
ATOM     20  C   UNL     1       1.944   4.851  17.910  0.00  0.00    +0.000 A 
ATOM     21  C   UNL     1       2.551   3.637  17.594  0.00  0.00    +0.000 A 
ATOM     22  C   UNL     1       3.868   3.389  17.985  0.00  0.00    +0.000 A 
BRANCH  17  24
ATOM     23  C   UNL     1       6.643   5.478  19.177  0.00  0.00    +0.000 C 
ATOM     24  O   UNL     1       5.872   4.286  19.169  0.00  0.00    +0.000 OA
ENDBRANCH  17  24
BRANCH  22  25
ATOM     25  O   UNL     1       4.424   2.188  17.636  0.00  0.00    +0.000 OA
ATOM     26  H   UNL     1       4.920   1.838  18.393  0.00  0.00    +0.000 HD
ENDBRANCH  22  25
ENDBRANCH   1  19
BRANCH  12  27
ATOM     27  O   UNL     1       2.412  12.759  17.107  0.00  0.00    +0.000 OA
ATOM     28  H   UNL     1       2.150  12.523  16.204  0.00  0.00    +0.000 HD
ENDBRANCH  12  27
TORSDOF 4
ENDMDL
MODEL 5
REMARK VINA RESULT:      -7.3      1.258      2.192
REMARK  Name = 
REMARK  8 active torsions:
REMARK  status: ('A' for Active; 'I' for Inactive)
REMARK    1  A    between atoms: C_1  and  O_2
REMARK    2  A    between atoms: O_2  and  C_3
REMARK    3  A    between atoms: C_5  and  C_6
REMARK    4  A    between atoms: C_10  and  C_11
REMARK    5  A    between atoms: C_12  and  C_13
REMARK    6  A    between atoms: C_15  and  C_16
REMARK    7  A    between atoms: C_17  and  O_18
REMARK    8  A    between atoms: C_25  and  O_26
REMARK                            x       y       z     vdW  Elec       q    Type
REMARK                         _______ _______ _______ _____ _____    ______ ____
ROOT
ATOM      1  C   UNL     1       2.198   7.963  19.411  0.00  0.00    +0.000 C 
ATOM      2  C   UNL     1       1.342   6.701  19.385  0.00  0.00    +0.000 C 
ATOM      3  C   UNL     1       2.369   5.585  19.459  0.00  0.00    +0.000 C 
ATOM      4  O   UNL     1       1.749   4.312  19.481  0.00  0.00    +0.000 OA
ATOM      5  C   UNL     1       2.749   3.336  19.804  0.00  0.00    +0.000 C 
ATOM      6  C   UNL     1       1.991   2.099  20.276  0.00  0.00    +0.000 C 
ATOM      7  C   UNL     1       3.818   3.210  18.654  0.00  0.00    +0.000 C 
ATOM      8  C   UNL     1       3.677   1.918  17.839  0.00  0.00    +0.000 C 
ATOM      9  C   UNL     1       4.023   4.524  17.840  0.00  0.00    +0.000 A 
ATOM     10  C   UNL     1       4.908   4.696  16.734  0.00  0.00    +0.000 A 
ATOM     11  C   UNL     1       5.718   3.599  16.097  0.00  0.00    +0.000 C 
ATOM     12  C   UNL     1       5.064   5.995  16.178  0.00  0.00    +0.000 A 
ATOM     13  C   UNL     1       4.398   7.106  16.677  0.00  0.00    +0.000 A 
ATOM     14  C   UNL     1       3.536   6.954  17.742  0.00  0.00    +0.000 A 
ATOM     15  C   UNL     1       3.328   5.680  18.305  0.00  0.00    +0.000 A 
ATOM     16  O   UNL     1       2.903   8.100  18.168  0.00  0.00    +0.000 OA
ENDROOT
BRANCH   1  19
ATOM     17  C   UNL     1       0.263  10.654  21.357  0.00  0.00    +0.000 A 
ATOM     18  C   UNL     1       1.030   9.515  21.064  0.00  0.00    +0.000 A 
ATOM     19  C   UNL     1       1.395   9.198  19.753  0.00  0.00    +0.000 A 
ATOM     20  C   UNL     1       0.996  10.058  18.715  0.00  0.00    +0.000 A 
ATOM     21  C   UNL     1       0.234  11.191  18.989  0.00  0.00    +0.000 A 
ATOM     22  C   UNL     1      -0.136  11.486  20.303  0.00  0.00    +0.000 A 
BRANCH  17  24
ATOM     23  C   UNL     1      -0.099   9.599  23.472  0.00  0.00    +0.000 C 
ATOM     24  O   UNL     1      -0.002  10.781  22.692  0.00  0.00    +0.000 OA
ENDBRANCH  17  24
BRANCH  22  25
ATOM     25  O   UNL     1      -0.899  12.602  20.518  0.00  0.00    +0.000 OA
ATOM     26  H   UNL     1      -1.772  12.470  20.115  0.00  0.00    +0.000 HD
ENDBRANCH  22  25
ENDBRANCH   1  19
BRANCH  12  27
ATOM     27  O   UNL     1       5.895   6.274  15.124  0.00  0.00    +0.000 OA
ATOM     28  H   UNL     1       6.822   6.244  15.404  0.00  0.00    +0.000 HD
ENDBRANCH  12  27
TORSDOF 4
ENDMDL
MODEL 6
REMARK VINA RESULT:      -7.3      2.321      7.577
REMARK  Name = 
REMARK  8 active torsions:
REMARK  status: ('A' for Active; 'I' for Inactive)
REMARK    1  A    between atoms: C_1  and  O_2
REMARK    2  A    between atoms: O_2  and  C_3
REMARK    3  A    between atoms: C_5  and  C_6
REMARK    4  A    between atoms: C_10  and  C_11
REMARK    5  A    between atoms: C_12  and  C_13
REMARK    6  A    between atoms: C_15  and  C_16
REMARK    7  A    between atoms: C_17  and  O_18
REMARK    8  A    between atoms: C_25  and  O_26
REMARK                            x       y       z     vdW  Elec       q    Type
REMARK                         _______ _______ _______ _____ _____    ______ ____
ROOT
ATOM      1  C   UNL     1       1.915   7.987  18.557  0.00  0.00    +0.000 C 
ATOM      2  C   UNL     1       1.838   8.164  20.070  0.00  0.00    +0.000 C 
ATOM      3  C   UNL     1       0.806   9.264  20.239  0.00  0.00    +0.000 C 
ATOM      4  O   UNL     1       0.572   9.548  21.606  0.00  0.00    +0.000 OA
ATOM      5  C   UNL     1      -0.578  10.401  21.691  0.00  0.00    +0.000 C 
ATOM      6  C   UNL     1      -1.073  10.296  23.131  0.00  0.00    +0.000 C 
ATOM      7  C   UNL     1      -0.290  11.816  21.061  0.00  0.00    +0.000 C 
ATOM      8  C   UNL     1      -0.136  12.923  22.112  0.00  0.00    +0.000 C 
ATOM      9  C   UNL     1       0.771  11.790  19.920  0.00  0.00    +0.000 A 
ATOM     10  C   UNL     1       1.242  12.921  19.187  0.00  0.00    +0.000 A 
ATOM     11  C   UNL     1       0.867  14.350  19.469  0.00  0.00    +0.000 C 
ATOM     12  C   UNL     1       2.126  12.708  18.094  0.00  0.00    +0.000 A 
ATOM     13  C   UNL     1       2.540  11.441  17.703  0.00  0.00    +0.000 A 
ATOM     14  C   UNL     1       2.097  10.341  18.406  0.00  0.00    +0.000 A 
ATOM     15  C   UNL     1       1.244  10.507  19.514  0.00  0.00    +0.000 A 
ATOM     16  O   UNL     1       2.565   9.123  17.966  0.00  0.00    +0.000 OA
ENDROOT
BRANCH   1  19
ATOM     17  C   UNL     1       2.481   4.283  17.702  0.00  0.00    +0.000 A 
ATOM     18  C   UNL     1       1.850   5.489  18.048  0.00  0.00    +0.000 A 
ATOM     19  C   UNL     1       2.568   6.683  18.161  0.00  0.00    +0.000 A 
ATOM     20  C   UNL     1       3.949   6.666  17.898  0.00  0.00    +0.000 A 
ATOM     21  C   UNL     1       4.590   5.478  17.555  0.00  0.00    +0.000 A 
ATOM     22  C   UNL     1       3.861   4.290  17.462  0.00  0.00    +0.000 A 
BRANCH  17  24
ATOM     23  C   UNL     1       1.156   2.685  18.888  0.00  0.00    +0.000 C 
ATOM     24  O   UNL     1       1.613   3.228  17.659  0.00  0.00    +0.000 OA
ENDBRANCH  17  24
BRANCH  22  25
ATOM     25  O   UNL     1       4.540   3.147  17.138  0.00  0.00    +0.000 OA
ATOM     26  H   UNL     1       5.479   3.359  17.021  0.00  0.00    +0.000 HD
ENDBRANCH  22  25
ENDBRANCH   1  19
BRANCH  12  27
ATOM     27  O   UNL     1       2.628  13.719  17.317  0.00  0.00    +0.000 OA
ATOM     28  H   UNL     1       3.532  13.516  17.034  0.00  0.00    +0.000 HD
ENDBRANCH  12  27
TORSDOF 4
ENDMDL
MODEL 7
REMARK VINA RESULT:      -7.2      2.219      8.167
REMARK  Name = 
REMARK  8 active torsions:
REMARK  status: ('A' for Active; 'I' for Inactive)
REMARK    1  A    between atoms: C_1  and  O_2
REMARK    2  A    between atoms: O_2  and  C_3
REMARK    3  A    between atoms: C_5  and  C_6
REMARK    4  A    between atoms: C_10  and  C_11
REMARK    5  A    between atoms: C_12  and  C_13
REMARK    6  A    between atoms: C_15  and  C_16
REMARK    7  A    between atoms: C_17  and  O_18
REMARK    8  A    between atoms: C_25  and  O_26
REMARK                            x       y       z     vdW  Elec       q    Type
REMARK                         _______ _______ _______ _____ _____    ______ ____
ROOT
ATOM      1  C   UNL     1       2.588   7.410  19.448  0.00  0.00    +0.000 C 
ATOM      2  C   UNL     1       2.123   8.326  18.321  0.00  0.00    +0.000 C 
ATOM      3  C   UNL     1       2.148   9.702  18.960  0.00  0.00    +0.000 C 
ATOM      4  O   UNL     1       1.771  10.709  18.038  0.00  0.00    +0.000 OA
ATOM      5  C   UNL     1       2.059  11.983  18.628  0.00  0.00    +0.000 C 
ATOM      6  C   UNL     1       2.096  12.982  17.475  0.00  0.00    +0.000 C 
ATOM      7  C   UNL     1       1.137  12.258  19.876  0.00  0.00    +0.000 C 
ATOM      8  C   UNL     1       0.048  13.304  19.601  0.00  0.00    +0.000 C 
ATOM      9  C   UNL     1       0.685  10.965  20.619  0.00  0.00    +0.000 A 
ATOM     10  C   UNL     1      -0.166  10.910  21.764  0.00  0.00    +0.000 A 
ATOM     11  C   UNL     1      -0.859  12.093  22.383  0.00  0.00    +0.000 C 
ATOM     12  C   UNL     1      -0.384   9.654  22.394  0.00  0.00    +0.000 A 
ATOM     13  C   UNL     1       0.209   8.481  21.947  0.00  0.00    +0.000 A 
ATOM     14  C   UNL     1       1.028   8.519  20.839  0.00  0.00    +0.000 A 
ATOM     15  C   UNL     1       1.249   9.735  20.166  0.00  0.00    +0.000 A 
ATOM     16  O   UNL     1       1.564   7.312  20.450  0.00  0.00    +0.000 OA
ENDROOT
BRANCH   1  19
ATOM     17  C   UNL     1       4.738   4.343  18.587  0.00  0.00    +0.000 A 
ATOM     18  C   UNL     1       4.343   5.596  19.084  0.00  0.00    +0.000 A 
ATOM     19  C   UNL     1       3.030   6.055  18.945  0.00  0.00    +0.000 A 
ATOM     20  C   UNL     1       2.089   5.225  18.312  0.00  0.00    +0.000 A 
ATOM     21  C   UNL     1       2.465   3.980  17.813  0.00  0.00    +0.000 A 
ATOM     22  C   UNL     1       3.785   3.542  17.945  0.00  0.00    +0.000 A 
BRANCH  17  24
ATOM     23  C   UNL     1       7.018   4.747  17.994  0.00  0.00    +0.000 C 
ATOM     24  O   UNL     1       6.062   4.084  18.807  0.00  0.00    +0.000 OA
ENDBRANCH  17  24
BRANCH  22  25
ATOM     25  O   UNL     1       4.108   2.319  17.424  0.00  0.00    +0.000 OA
ATOM     26  H   UNL     1       4.950   2.392  16.946  0.00  0.00    +0.000 HD
ENDBRANCH  22  25
ENDBRANCH   1  19
BRANCH  12  27
ATOM     27  O   UNL     1      -1.171   9.490  23.504  0.00  0.00    +0.000 OA
ATOM     28  H   UNL     1      -0.629   9.276  24.278  0.00  0.00    +0.000 HD
ENDBRANCH  12  27
TORSDOF 4
ENDMDL
MODEL 8
REMARK VINA RESULT:      -7.2      2.158      8.078
REMARK  Name = 
REMARK  8 active torsions:
REMARK  status: ('A' for Active; 'I' for Inactive)
REMARK    1  A    between atoms: C_1  and  O_2
REMARK    2  A    between atoms: O_2  and  C_3
REMARK    3  A    between atoms: C_5  and  C_6
REMARK    4  A    between atoms: C_10  and  C_11
REMARK    5  A    between atoms: C_12  and  C_13
REMARK    6  A    between atoms: C_15  and  C_16
REMARK    7  A    between atoms: C_17  and  O_18
REMARK    8  A    between atoms: C_25  and  O_26
REMARK                            x       y       z     vdW  Elec       q    Type
REMARK                         _______ _______ _______ _____ _____    ______ ____
ROOT
ATOM      1  C   UNL     1       2.529   7.569  19.258  0.00  0.00    +0.000 C 
ATOM      2  C   UNL     1       2.067   8.556  18.191  0.00  0.00    +0.000 C 
ATOM      3  C   UNL     1       2.114   9.891  18.911  0.00  0.00    +0.000 C 
ATOM      4  O   UNL     1       1.743  10.955  18.054  0.00  0.00    +0.000 OA
ATOM      5  C   UNL     1       2.052  12.188  18.716  0.00  0.00    +0.000 C 
ATOM      6  C   UNL     1       2.091  13.253  17.624  0.00  0.00    +0.000 C 
ATOM      7  C   UNL     1       1.144  12.399  19.987  0.00  0.00    +0.000 C 
ATOM      8  C   UNL     1       0.066  13.473  19.784  0.00  0.00    +0.000 C 
ATOM      9  C   UNL     1       0.682  11.070  20.655  0.00  0.00    +0.000 A 
ATOM     10  C   UNL     1      -0.160  10.957  21.803  0.00  0.00    +0.000 A 
ATOM     11  C   UNL     1      -0.832  12.110  22.498  0.00  0.00    +0.000 C 
ATOM     12  C   UNL     1      -0.388   9.669  22.359  0.00  0.00    +0.000 A 
ATOM     13  C   UNL     1       0.185   8.517  21.838  0.00  0.00    +0.000 A 
ATOM     14  C   UNL     1       0.996   8.611  20.726  0.00  0.00    +0.000 A 
ATOM     15  C   UNL     1       1.226   9.863  20.125  0.00  0.00    +0.000 A 
ATOM     16  O   UNL     1       1.513   7.423  20.262  0.00  0.00    +0.000 OA
ENDROOT
BRANCH   1  19
ATOM     17  C   UNL     1       2.449   3.990  17.858  0.00  0.00    +0.000 A 
ATOM     18  C   UNL     1       2.034   5.226  18.380  0.00  0.00    +0.000 A 
ATOM     19  C   UNL     1       2.950   6.240  18.671  0.00  0.00    +0.000 A 
ATOM     20  C   UNL     1       4.313   6.013  18.412  0.00  0.00    +0.000 A 
ATOM     21  C   UNL     1       4.741   4.792  17.895  0.00  0.00    +0.000 A 
ATOM     22  C   UNL     1       3.815   3.782  17.624  0.00  0.00    +0.000 A 
BRANCH  17  24
ATOM     23  C   UNL     1       0.935   2.376  18.763  0.00  0.00    +0.000 C 
ATOM     24  O   UNL     1       1.408   3.128  17.656  0.00  0.00    +0.000 OA
ENDBRANCH  17  24
BRANCH  22  25
ATOM     25  O   UNL     1       4.287   2.596  17.133  0.00  0.00    +0.000 OA
ATOM     26  H   UNL     1       5.006   2.776  16.507  0.00  0.00    +0.000 HD
ENDBRANCH  22  25
ENDBRANCH   1  19
BRANCH  12  27
ATOM     27  O   UNL     1      -1.168   9.448  23.464  0.00  0.00    +0.000 OA
ATOM     28  H   UNL     1      -0.797   9.897  24.239  0.00  0.00    +0.000 HD
ENDBRANCH  12  27
TORSDOF 4
ENDMDL
MODEL 9
REMARK VINA RESULT:      -7.2      2.182      3.948
REMARK  Name = 
REMARK  8 active torsions:
REMARK  status: ('A' for Active; 'I' for Inactive)
REMARK    1  A    between atoms: C_1  and  O_2
REMARK    2  A    between atoms: O_2  and  C_3
REMARK    3  A    between atoms: C_5  and  C_6
REMARK    4  A    between atoms: C_10  and  C_11
REMARK    5  A    between atoms: C_12  and  C_13
REMARK    6  A    between atoms: C_15  and  C_16
REMARK    7  A    between atoms: C_17  and  O_18
REMARK    8  A    between atoms: C_25  and  O_26
REMARK                            x       y       z     vdW  Elec       q    Type
REMARK                         _______ _______ _______ _____ _____    ______ ____
ROOT
ATOM      1  C   UNL     1       1.530   8.508  18.275  0.00  0.00    +0.000 C 
ATOM      2  C   UNL     1       2.996   8.611  17.865  0.00  0.00    +0.000 C 
ATOM      3  C   UNL     1       3.331   7.199  17.423  0.00  0.00    +0.000 C 
ATOM      4  O   UNL     1       4.668   7.104  16.966  0.00  0.00    +0.000 OA
ATOM      5  C   UNL     1       4.833   5.825  16.337  0.00  0.00    +0.000 C 
ATOM      6  C   UNL     1       6.082   5.943  15.468  0.00  0.00    +0.000 C 
ATOM      7  C   UNL     1       4.713   4.653  17.383  0.00  0.00    +0.000 C 
ATOM      8  C   UNL     1       6.061   3.996  17.709  0.00  0.00    +0.000 C 
ATOM      9  C   UNL     1       3.792   4.986  18.595  0.00  0.00    +0.000 A 
ATOM     10  C   UNL     1       3.516   4.125  19.700  0.00  0.00    +0.000 A 
ATOM     11  C   UNL     1       4.158   2.784  19.931  0.00  0.00    +0.000 C 
ATOM     12  C   UNL     1       2.557   4.536  20.665  0.00  0.00    +0.000 A 
ATOM     13  C   UNL     1       1.868   5.738  20.569  0.00  0.00    +0.000 A 
ATOM     14  C   UNL     1       2.129   6.582  19.510  0.00  0.00    +0.000 A 
ATOM     15  C   UNL     1       3.093   6.228  18.547  0.00  0.00    +0.000 A 
ATOM     16  O   UNL     1       1.417   7.759  19.495  0.00  0.00    +0.000 OA
ENDROOT
BRANCH   1  19
ATOM     17  C   UNL     1      -1.122  11.289  18.316  0.00  0.00    +0.000 A 
ATOM     18  C   UNL     1      -0.523  10.021  18.252  0.00  0.00    +0.000 A 
ATOM     19  C   UNL     1       0.860   9.860  18.368  0.00  0.00    +0.000 A 
ATOM     20  C   UNL     1       1.657  11.000  18.576  0.00  0.00    +0.000 A 
ATOM     21  C   UNL     1       1.078  12.265  18.641  0.00  0.00    +0.000 A 
ATOM     22  C   UNL     1      -0.305  12.411  18.508  0.00  0.00    +0.000 A 
BRANCH  17  24
ATOM     23  C   UNL     1      -3.043  10.093  17.546  0.00  0.00    +0.000 C 
ATOM     24  O   UNL     1      -2.480  11.238  18.166  0.00  0.00    +0.000 OA
ENDBRANCH  17  24
BRANCH  22  25
ATOM     25  O   UNL     1      -0.823  13.676  18.563  0.00  0.00    +0.000 OA
ATOM     26  H   UNL     1      -1.792  13.623  18.531  0.00  0.00    +0.000 HD
ENDBRANCH  22  25
ENDBRANCH   1  19
BRANCH  12  27
ATOM     27  O   UNL     1       2.208   3.783  21.756  0.00  0.00    +0.000 OA
ATOM     28  H   UNL     1       2.998   3.436  22.198  0.00  0.00    +0.000 HD
ENDBRANCH  12  27
TORSDOF 4
ENDMDL
