MODEL 1
REMARK VINA RESULT:      -8.7      0.000      0.000
REMARK  Name = 
REMARK  5 active torsions:
REMARK  status: ('A' for Active; 'I' for Inactive)
REMARK    1  A    between atoms: C_1  and  C_2
REMARK    2  A    between atoms: C_12  and  C_13
REMARK    3  A    between atoms: C_18  and  C_19
REMARK    4  A    between atoms: N_21  and  C_22
REMARK    5  A    between atoms: N_25  and  C_26
REMARK                            x       y       z     vdW  Elec       q    Type
REMARK                         _______ _______ _______ _____ _____    ______ ____
ROOT
ATOM      1  C   UNL     1       1.559   9.209  18.615  0.00  0.00    +0.000 C 
ATOM      2  O   UNL     1       0.460   9.037  19.129  0.00  0.00    +0.000 OA
ATOM      3  N   UNL     1       2.178  10.415  18.384  0.00  0.00    +0.000 N 
ATOM      4  C   UNL     1       1.595  11.597  18.759  0.00  0.00    +0.000 A 
ATOM      5  N   UNL     1       0.556  11.808  19.528  0.00  0.00    +0.000 NA
ATOM      6  C   UNL     1       0.306  13.178  19.611  0.00  0.00    +0.000 A 
ATOM      7  C   UNL     1       1.179  13.960  18.871  0.00  0.00    +0.000 A 
ATOM      8  S   UNL     1       2.361  12.978  18.114  0.00  0.00    +0.000 S 
ATOM      9  H   UNL     1       3.005  10.476  17.811  0.00  0.00    +0.000 HD
ENDROOT
BRANCH   1  21
ATOM     10  C   UNL     1       0.855   3.887  20.371  0.00  0.00    +0.000 C 
ATOM     11  C   UNL     1       0.987   3.508  18.896  0.00  0.00    +0.000 C 
ATOM     12  C   UNL     1       1.132   1.969  18.737  0.00  0.00    +0.000 C 
ATOM     13  N   UNL     1       2.506   1.472  18.732  0.00  0.00    +0.000 N 
ATOM     14  C   UNL     1       3.496   2.102  18.006  0.00  0.00    +0.000 C 
ATOM     15  O   UNL     1       4.492   1.504  17.617  0.00  0.00    +0.000 OA
ATOM     16  C   UNL     1       3.263   3.508  17.817  0.00  0.00    +0.000 A 
ATOM     17  N   UNL     1       4.140   4.409  17.274  0.00  0.00    +0.000 N 
ATOM     18  C   UNL     1       3.664   5.693  17.449  0.00  0.00    +0.000 A 
ATOM     19  C   UNL     1       4.263   6.932  17.177  0.00  0.00    +0.000 A 
ATOM     20  C   UNL     1       3.560   8.092  17.535  0.00  0.00    +0.000 A 
ATOM     21  C   UNL     1       2.295   8.009  18.129  0.00  0.00    +0.000 A 
ATOM     22  C   UNL     1       1.699   6.759  18.357  0.00  0.00    +0.000 A 
ATOM     23  C   UNL     1       2.400   5.584  18.033  0.00  0.00    +0.000 A 
ATOM     24  C   UNL     1       2.145   4.200  18.237  0.00  0.00    +0.000 A 
ATOM     25  H   UNL     1       2.668   0.482  18.859  0.00  0.00    +0.000 HD
ATOM     26  H   UNL     1       5.048   4.163  16.903  0.00  0.00    +0.000 HD
ENDBRANCH   1  21
BRANCH   6  27
ATOM     27  C   UNL     1      -0.789  13.732  20.416  0.00  0.00    +0.000 C 
ATOM     28  O   UNL     1      -0.822  14.915  20.750  0.00  0.00    +0.000 OA
ATOM     29  N   UNL     1      -1.758  12.817  20.770  0.00  0.00    +0.000 N 
ATOM     30  H   UNL     1      -1.576  11.847  20.515  0.00  0.00    +0.000 HD
BRANCH  29  31
ATOM     31  C   UNL     1      -2.867  13.169  21.646  0.00  0.00    +0.000 C 
ATOM     32  C   UNL     1      -2.857  12.353  22.941  0.00  0.00    +0.000 C 
ATOM     33  C   UNL     1      -4.031  12.758  23.835  0.00  0.00    +0.000 C 
ATOM     34  N   UNL     1      -5.317  12.609  23.139  0.00  0.00    +0.000 NA
ATOM     35  C   UNL     1      -6.421  12.996  24.022  0.00  0.00    +0.000 C 
ATOM     36  C   UNL     1      -5.355  13.394  21.897  0.00  0.00    +0.000 C 
ATOM     37  C   UNL     1      -4.216  13.005  20.950  0.00  0.00    +0.000 C 
ENDBRANCH  29  31
ENDBRANCH   6  27
TORSDOF 3
ENDMDL
MODEL 2
REMARK VINA RESULT:      -8.4      3.296     11.341
REMARK  Name = 
REMARK  5 active torsions:
REMARK  status: ('A' for Active; 'I' for Inactive)
REMARK    1  A    between atoms: C_1  and  C_2
REMARK    2  A    between atoms: C_12  and  C_13
REMARK    3  A    between atoms: C_18  and  C_19
REMARK    4  A    between atoms: N_21  and  C_22
REMARK    5  A    between atoms: N_25  and  C_26
REMARK                            x       y       z     vdW  Elec       q    Type
REMARK                         _______ _______ _______ _____ _____    ______ ____
ROOT
ATOM      1  C   UNL     1       1.552   7.966  20.537  0.00  0.00    +0.000 C 
ATOM      2  O   UNL     1       2.216   8.318  19.569  0.00  0.00    +0.000 OA
ATOM      3  N   UNL     1       1.494   6.702  21.078  0.00  0.00    +0.000 N 
ATOM      4  C   UNL     1       2.243   5.675  20.567  0.00  0.00    +0.000 A 
ATOM      5  N   UNL     1       3.227   5.708  19.704  0.00  0.00    +0.000 NA
ATOM      6  C   UNL     1       3.677   4.411  19.457  0.00  0.00    +0.000 A 
ATOM      7  C   UNL     1       2.985   3.429  20.148  0.00  0.00    +0.000 A 
ATOM      8  S   UNL     1       1.803   4.139  21.164  0.00  0.00    +0.000 S 
ATOM      9  H   UNL     1       0.801   6.463  21.769  0.00  0.00    +0.000 HD
ENDROOT
BRANCH   1  21
ATOM     10  C   UNL     1       1.534  13.529  19.560  0.00  0.00    +0.000 C 
ATOM     11  C   UNL     1       0.011  13.413  19.611  0.00  0.00    +0.000 C 
ATOM     12  C   UNL     1      -0.644  14.822  19.650  0.00  0.00    +0.000 C 
ATOM     13  N   UNL     1      -0.888  15.356  20.989  0.00  0.00    +0.000 N 
ATOM     14  C   UNL     1      -1.427  14.573  21.988  0.00  0.00    +0.000 C 
ATOM     15  O   UNL     1      -2.043  15.059  22.929  0.00  0.00    +0.000 OA
ATOM     16  C   UNL     1      -1.138  13.172  21.839  0.00  0.00    +0.000 A 
ATOM     17  N   UNL     1      -1.410  12.187  22.751  0.00  0.00    +0.000 N 
ATOM     18  C   UNL     1      -0.803  11.008  22.365  0.00  0.00    +0.000 A 
ATOM     19  C   UNL     1      -0.696   9.779  23.032  0.00  0.00    +0.000 A 
ATOM     20  C   UNL     1       0.058   8.766  22.419  0.00  0.00    +0.000 A 
ATOM     21  C   UNL     1       0.664   8.976  21.175  0.00  0.00    +0.000 A 
ATOM     22  C   UNL     1       0.510  10.202  20.509  0.00  0.00    +0.000 A 
ATOM     23  C   UNL     1      -0.215  11.240  21.120  0.00  0.00    +0.000 A 
ATOM     24  C   UNL     1      -0.454  12.601  20.785  0.00  0.00    +0.000 A 
ATOM     25  H   UNL     1      -1.096  16.340  21.091  0.00  0.00    +0.000 HD
ATOM     26  H   UNL     1      -1.892  12.343  23.627  0.00  0.00    +0.000 HD
ENDBRANCH   1  21
BRANCH   6  27
ATOM     27  C   UNL     1       4.788   4.123  18.541  0.00  0.00    +0.000 C 
ATOM     28  O   UNL     1       5.846   3.635  18.931  0.00  0.00    +0.000 OA
ATOM     29  N   UNL     1       4.546   4.458  17.226  0.00  0.00    +0.000 N 
ATOM     30  H   UNL     1       3.670   4.941  17.037  0.00  0.00    +0.000 HD
BRANCH  29  31
ATOM     31  C   UNL     1       5.570   4.330  16.197  0.00  0.00    +0.000 C 
ATOM     32  C   UNL     1       6.563   5.494  16.229  0.00  0.00    +0.000 C 
ATOM     33  C   UNL     1       7.625   5.318  15.142  0.00  0.00    +0.000 C 
ATOM     34  N   UNL     1       7.018   5.192  13.809  0.00  0.00    +0.000 NA
ATOM     35  C   UNL     1       8.058   5.032  12.789  0.00  0.00    +0.000 C 
ATOM     36  C   UNL     1       6.068   4.071  13.751  0.00  0.00    +0.000 C 
ATOM     37  C   UNL     1       4.963   4.214  14.801  0.00  0.00    +0.000 C 
ENDBRANCH  29  31
ENDBRANCH   6  27
TORSDOF 3
ENDMDL
MODEL 3
REMARK VINA RESULT:      -8.3      2.188      2.454
REMARK  Name = 
REMARK  5 active torsions:
REMARK  status: ('A' for Active; 'I' for Inactive)
REMARK    1  A    between atoms: C_1  and  C_2
REMARK    2  A    between atoms: C_12  and  C_13
REMARK    3  A    between atoms: C_18  and  C_19
REMARK    4  A    between atoms: N_21  and  C_22
REMARK    5  A    between atoms: N_25  and  C_26
REMARK                            x       y       z     vdW  Elec       q    Type
REMARK                         _______ _______ _______ _____ _____    ______ ____
ROOT
ATOM      1  C   UNL     1       1.833   8.998  18.569  0.00  0.00    +0.000 C 
ATOM      2  O   UNL     1       1.957  10.006  17.883  0.00  0.00    +0.000 OA
ATOM      3  N   UNL     1       1.183   8.902  19.777  0.00  0.00    +0.000 N 
ATOM      4  C   UNL     1       0.553   9.984  20.334  0.00  0.00    +0.000 A 
ATOM      5  N   UNL     1       0.269  11.148  19.806  0.00  0.00    +0.000 NA
ATOM      6  C   UNL     1      -0.358  11.953  20.757  0.00  0.00    +0.000 A 
ATOM      7  C   UNL     1      -0.509  11.354  21.997  0.00  0.00    +0.000 A 
ATOM      8  S   UNL     1       0.082   9.747  21.957  0.00  0.00    +0.000 S 
ATOM      9  H   UNL     1       1.269   8.078  20.351  0.00  0.00    +0.000 HD
ENDROOT
BRANCH   1  21
ATOM     10  C   UNL     1       0.902   3.764  20.476  0.00  0.00    +0.000 C 
ATOM     11  C   UNL     1       0.982   3.342  19.010  0.00  0.00    +0.000 C 
ATOM     12  C   UNL     1       1.046   1.795  18.887  0.00  0.00    +0.000 C 
ATOM     13  N   UNL     1       2.393   1.228  18.867  0.00  0.00    +0.000 N 
ATOM     14  C   UNL     1       3.397   1.789  18.104  0.00  0.00    +0.000 C 
ATOM     15  O   UNL     1       4.353   1.133  17.711  0.00  0.00    +0.000 OA
ATOM     16  C   UNL     1       3.231   3.201  17.884  0.00  0.00    +0.000 A 
ATOM     17  N   UNL     1       4.139   4.042  17.300  0.00  0.00    +0.000 N 
ATOM     18  C   UNL     1       3.732   5.352  17.451  0.00  0.00    +0.000 A 
ATOM     19  C   UNL     1       4.387   6.552  17.134  0.00  0.00    +0.000 A 
ATOM     20  C   UNL     1       3.751   7.755  17.477  0.00  0.00    +0.000 A 
ATOM     21  C   UNL     1       2.497   7.751  18.099  0.00  0.00    +0.000 A 
ATOM     22  C   UNL     1       1.844   6.539  18.372  0.00  0.00    +0.000 A 
ATOM     23  C   UNL     1       2.478   5.322  18.064  0.00  0.00    +0.000 A 
ATOM     24  C   UNL     1       2.158   3.959  18.309  0.00  0.00    +0.000 A 
ATOM     25  H   UNL     1       2.508   0.235  19.016  0.00  0.00    +0.000 HD
ATOM     26  H   UNL     1       5.026   3.741  16.916  0.00  0.00    +0.000 HD
ENDBRANCH   1  21
BRANCH   6  27
ATOM     27  C   UNL     1      -0.814  13.316  20.457  0.00  0.00    +0.000 C 
ATOM     28  O   UNL     1      -0.161  14.083  19.751  0.00  0.00    +0.000 OA
ATOM     29  N   UNL     1      -2.014  13.659  21.041  0.00  0.00    +0.000 N 
ATOM     30  H   UNL     1      -2.417  12.976  21.679  0.00  0.00    +0.000 HD
BRANCH  29  31
ATOM     31  C   UNL     1      -2.570  15.001  20.929  0.00  0.00    +0.000 C 
ATOM     32  C   UNL     1      -2.083  15.919  22.052  0.00  0.00    +0.000 C 
ATOM     33  C   UNL     1      -2.681  17.318  21.895  0.00  0.00    +0.000 C 
ATOM     34  N   UNL     1      -4.150  17.277  21.860  0.00  0.00    +0.000 NA
ATOM     35  C   UNL     1      -4.693  18.631  21.716  0.00  0.00    +0.000 C 
ATOM     36  C   UNL     1      -4.642  16.411  20.779  0.00  0.00    +0.000 C 
ATOM     37  C   UNL     1      -4.097  14.986  20.908  0.00  0.00    +0.000 C 
ENDBRANCH  29  31
ENDBRANCH   6  27
TORSDOF 3
ENDMDL
MODEL 4
REMARK VINA RESULT:      -8.1      2.114      2.351
REMARK  Name = 
REMARK  5 active torsions:
REMARK  status: ('A' for Active; 'I' for Inactive)
REMARK    1  A    between atoms: C_1  and  C_2
REMARK    2  A    between atoms: C_12  and  C_13
REMARK    3  A    between atoms: C_18  and  C_19
REMARK    4  A    between atoms: N_21  and  C_22
REMARK    5  A    between atoms: N_25  and  C_26
REMARK                            x       y       z     vdW  Elec       q    Type
REMARK                         _______ _______ _______ _____ _____    ______ ____
ROOT
ATOM      1  C   UNL     1       1.441   9.090  19.206  0.00  0.00    +0.000 C 
ATOM      2  O   UNL     1       1.457  10.170  18.628  0.00  0.00    +0.000 OA
ATOM      3  N   UNL     1       0.876   8.822  20.431  0.00  0.00    +0.000 N 
ATOM      4  C   UNL     1       0.215   9.792  21.137  0.00  0.00    +0.000 A 
ATOM      5  N   UNL     1      -0.175  10.982  20.756  0.00  0.00    +0.000 NA
ATOM      6  C   UNL     1      -0.790  11.638  21.823  0.00  0.00    +0.000 A 
ATOM      7  C   UNL     1      -0.824  10.902  22.997  0.00  0.00    +0.000 A 
ATOM      8  S   UNL     1      -0.136   9.353  22.748  0.00  0.00    +0.000 S 
ATOM      9  H   UNL     1       1.050   7.950  20.906  0.00  0.00    +0.000 HD
ENDROOT
BRANCH   1  21
ATOM     10  C   UNL     1       1.046   3.643  20.647  0.00  0.00    +0.000 C 
ATOM     11  C   UNL     1       1.035   3.368  19.143  0.00  0.00    +0.000 C 
ATOM     12  C   UNL     1       1.200   1.849  18.863  0.00  0.00    +0.000 C 
ATOM     13  N   UNL     1       2.578   1.395  18.685  0.00  0.00    +0.000 N 
ATOM     14  C   UNL     1       3.472   2.102  17.909  0.00  0.00    +0.000 C 
ATOM     15  O   UNL     1       4.438   1.563  17.382  0.00  0.00    +0.000 OA
ATOM     16  C   UNL     1       3.188   3.511  17.844  0.00  0.00    +0.000 A 
ATOM     17  N   UNL     1       3.984   4.473  17.280  0.00  0.00    +0.000 N 
ATOM     18  C   UNL     1       3.498   5.726  17.592  0.00  0.00    +0.000 A 
ATOM     19  C   UNL     1       4.037   6.999  17.347  0.00  0.00    +0.000 A 
ATOM     20  C   UNL     1       3.346   8.110  17.855  0.00  0.00    +0.000 A 
ATOM     21  C   UNL     1       2.152   7.948  18.565  0.00  0.00    +0.000 A 
ATOM     22  C   UNL     1       1.612   6.669  18.764  0.00  0.00    +0.000 A 
ATOM     23  C   UNL     1       2.303   5.540  18.291  0.00  0.00    +0.000 A 
ATOM     24  C   UNL     1       2.103   4.138  18.422  0.00  0.00    +0.000 A 
ATOM     25  H   UNL     1       2.775   0.404  18.726  0.00  0.00    +0.000 HD
ATOM     26  H   UNL     1       4.855   4.280  16.804  0.00  0.00    +0.000 HD
ENDBRANCH   1  21
BRANCH   6  27
ATOM     27  C   UNL     1      -1.349  12.990  21.701  0.00  0.00    +0.000 C 
ATOM     28  O   UNL     1      -0.808  13.861  21.024  0.00  0.00    +0.000 OA
ATOM     29  N   UNL     1      -2.511  13.194  22.413  0.00  0.00    +0.000 N 
ATOM     30  H   UNL     1      -2.815  12.428  23.011  0.00  0.00    +0.000 HD
BRANCH  29  31
ATOM     31  C   UNL     1      -3.152  14.501  22.483  0.00  0.00    +0.000 C 
ATOM     32  C   UNL     1      -3.345  14.969  23.927  0.00  0.00    +0.000 C 
ATOM     33  C   UNL     1      -4.011  16.346  23.957  0.00  0.00    +0.000 C 
ATOM     34  N   UNL     1      -5.294  16.340  23.239  0.00  0.00    +0.000 NA
ATOM     35  C   UNL     1      -5.912  17.668  23.291  0.00  0.00    +0.000 C 
ATOM     36  C   UNL     1      -5.132  15.906  21.844  0.00  0.00    +0.000 C 
ATOM     37  C   UNL     1      -4.496  14.516  21.758  0.00  0.00    +0.000 C 
ENDBRANCH  29  31
ENDBRANCH   6  27
TORSDOF 3
ENDMDL
MODEL 5
REMARK VINA RESULT:      -8.1      2.055      2.234
REMARK  Name = 
REMARK  5 active torsions:
REMARK  status: ('A' for Active; 'I' for Inactive)
REMARK    1  A    between atoms: C_1  and  C_2
REMARK    2  A    between atoms: C_12  and  C_13
REMARK    3  A    between atoms: C_18  and  C_19
REMARK    4  A    between atoms: N_21  and  C_22
REMARK    5  A    between atoms: N_25  and  C_26
REMARK                            x       y       z     vdW  Elec       q    Type
REMARK                         _______ _______ _______ _____ _____    ______ ____
ROOT
ATOM      1  C   UNL     1       1.602   9.130  18.527  0.00  0.00    +0.000 C 
ATOM      2  O   UNL     1       2.070   9.748  19.477  0.00  0.00    +0.000 OA
ATOM      3  N   UNL     1       0.435   9.415  17.858  0.00  0.00    +0.000 N 
ATOM      4  C   UNL     1      -0.334  10.496  18.197  0.00  0.00    +0.000 A 
ATOM      5  N   UNL     1      -0.056  11.505  18.984  0.00  0.00    +0.000 NA
ATOM      6  C   UNL     1      -1.155  12.362  19.055  0.00  0.00    +0.000 A 
ATOM      7  C   UNL     1      -2.248  11.944  18.313  0.00  0.00    +0.000 A 
ATOM      8  S   UNL     1      -1.878  10.499  17.470  0.00  0.00    +0.000 S 
ATOM      9  H   UNL     1       0.041   8.763  17.198  0.00  0.00    +0.000 HD
ENDROOT
BRANCH   1  21
ATOM     10  C   UNL     1       0.799   3.858  20.387  0.00  0.00    +0.000 C 
ATOM     11  C   UNL     1       0.933   3.446  18.921  0.00  0.00    +0.000 C 
ATOM     12  C   UNL     1       1.053   1.903  18.794  0.00  0.00    +0.000 C 
ATOM     13  N   UNL     1       2.419   1.383  18.808  0.00  0.00    +0.000 N 
ATOM     14  C   UNL     1       3.423   1.981  18.075  0.00  0.00    +0.000 C 
ATOM     15  O   UNL     1       4.412   1.360  17.706  0.00  0.00    +0.000 OA
ATOM     16  C   UNL     1       3.215   3.387  17.857  0.00  0.00    +0.000 A 
ATOM     17  N   UNL     1       4.110   4.262  17.301  0.00  0.00    +0.000 N 
ATOM     18  C   UNL     1       3.655   5.557  17.447  0.00  0.00    +0.000 A 
ATOM     19  C   UNL     1       4.276   6.780  17.153  0.00  0.00    +0.000 A 
ATOM     20  C   UNL     1       3.590   7.959  17.483  0.00  0.00    +0.000 A 
ATOM     21  C   UNL     1       2.321   7.909  18.070  0.00  0.00    +0.000 A 
ATOM     22  C   UNL     1       1.703   6.674  18.320  0.00  0.00    +0.000 A 
ATOM     23  C   UNL     1       2.386   5.481  18.025  0.00  0.00    +0.000 A 
ATOM     24  C   UNL     1       2.106   4.106  18.255  0.00  0.00    +0.000 A 
ATOM     25  H   UNL     1       2.563   0.393  18.957  0.00  0.00    +0.000 HD
ATOM     26  H   UNL     1       5.017   3.993  16.941  0.00  0.00    +0.000 HD
ENDBRANCH   1  21
BRANCH   6  27
ATOM     27  C   UNL     1      -1.142  13.596  19.849  0.00  0.00    +0.000 C 
ATOM     28  O   UNL     1      -0.701  14.654  19.405  0.00  0.00    +0.000 OA
ATOM     29  N   UNL     1      -1.649  13.460  21.124  0.00  0.00    +0.000 N 
ATOM     30  H   UNL     1      -1.898  12.516  21.412  0.00  0.00    +0.000 HD
BRANCH  29  31
ATOM     31  C   UNL     1      -1.627  14.557  22.082  0.00  0.00    +0.000 C 
ATOM     32  C   UNL     1      -1.282  14.078  23.494  0.00  0.00    +0.000 C 
ATOM     33  C   UNL     1      -1.261  15.259  24.467  0.00  0.00    +0.000 C 
ATOM     34  N   UNL     1      -2.540  15.984  24.464  0.00  0.00    +0.000 NA
ATOM     35  C   UNL     1      -2.492  17.103  25.410  0.00  0.00    +0.000 C 
ATOM     36  C   UNL     1      -2.886  16.465  23.120  0.00  0.00    +0.000 C 
ATOM     37  C   UNL     1      -2.952  15.316  22.110  0.00  0.00    +0.000 C 
ENDBRANCH  29  31
ENDBRANCH   6  27
TORSDOF 3
ENDMDL
MODEL 6
REMARK VINA RESULT:      -7.9      2.549     11.540
REMARK  Name = 
REMARK  5 active torsions:
REMARK  status: ('A' for Active; 'I' for Inactive)
REMARK    1  A    between atoms: C_1  and  C_2
REMARK    2  A    between atoms: C_12  and  C_13
REMARK    3  A    between atoms: C_18  and  C_19
REMARK    4  A    between atoms: N_21  and  C_22
REMARK    5  A    between atoms: N_25  and  C_26
REMARK                            x       y       z     vdW  Elec       q    Type
REMARK                         _______ _______ _______ _____ _____    ______ ____
ROOT
ATOM      1  C   UNL     1      -0.713  11.651  22.399  0.00  0.00    +0.000 C 
ATOM      2  O   UNL     1      -0.390  10.777  23.196  0.00  0.00    +0.000 OA
ATOM      3  N   UNL     1      -0.428  11.682  21.054  0.00  0.00    +0.000 N 
ATOM      4  C   UNL     1       0.258  10.662  20.448  0.00  0.00    +0.000 A 
ATOM      5  N   UNL     1       0.561   9.473  20.905  0.00  0.00    +0.000 NA
ATOM      6  C   UNL     1       1.293   8.775  19.945  0.00  0.00    +0.000 A 
ATOM      7  C   UNL     1       1.532   9.491  18.782  0.00  0.00    +0.000 A 
ATOM      8  S   UNL     1       0.780  11.028  18.866  0.00  0.00    +0.000 S 
ATOM      9  H   UNL     1      -0.589  12.512  20.506  0.00  0.00    +0.000 HD
ENDROOT
BRANCH   1  21
ATOM     10  C   UNL     1      -6.246  12.693  21.945  0.00  0.00    +0.000 C 
ATOM     11  C   UNL     1      -6.154  13.173  23.393  0.00  0.00    +0.000 C 
ATOM     12  C   UNL     1      -7.464  13.894  23.815  0.00  0.00    +0.000 C 
ATOM     13  N   UNL     1      -7.476  15.339  23.596  0.00  0.00    +0.000 N 
ATOM     14  C   UNL     1      -6.393  16.126  23.931  0.00  0.00    +0.000 C 
ATOM     15  O   UNL     1      -6.514  17.317  24.185  0.00  0.00    +0.000 OA
ATOM     16  C   UNL     1      -5.138  15.424  23.887  0.00  0.00    +0.000 A 
ATOM     17  N   UNL     1      -3.894  15.980  24.020  0.00  0.00    +0.000 N 
ATOM     18  C   UNL     1      -2.926  15.046  23.711  0.00  0.00    +0.000 A 
ATOM     19  C   UNL     1      -1.535  15.183  23.586  0.00  0.00    +0.000 A 
ATOM     20  C   UNL     1      -0.801  14.058  23.180  0.00  0.00    +0.000 A 
ATOM     21  C   UNL     1      -1.439  12.839  22.927  0.00  0.00    +0.000 A 
ATOM     22  C   UNL     1      -2.827  12.716  23.097  0.00  0.00    +0.000 A 
ATOM     23  C   UNL     1      -3.585  13.838  23.473  0.00  0.00    +0.000 A 
ATOM     24  C   UNL     1      -4.979  14.081  23.612  0.00  0.00    +0.000 A 
ATOM     25  H   UNL     1      -8.358  15.831  23.633  0.00  0.00    +0.000 HD
ATOM     26  H   UNL     1      -3.729  16.961  24.210  0.00  0.00    +0.000 HD
ENDBRANCH   1  21
BRANCH   6  27
ATOM     27  C   UNL     1       1.766   7.402  20.159  0.00  0.00    +0.000 C 
ATOM     28  O   UNL     1       1.771   6.879  21.272  0.00  0.00    +0.000 OA
ATOM     29  N   UNL     1       2.209   6.765  19.020  0.00  0.00    +0.000 N 
ATOM     30  H   UNL     1       2.243   7.329  18.173  0.00  0.00    +0.000 HD
BRANCH  29  31
ATOM     31  C   UNL     1       2.799   5.434  19.061  0.00  0.00    +0.000 C 
ATOM     32  C   UNL     1       3.559   5.104  17.775  0.00  0.00    +0.000 C 
ATOM     33  C   UNL     1       4.170   3.704  17.861  0.00  0.00    +0.000 C 
ATOM     34  N   UNL     1       3.148   2.684  18.135  0.00  0.00    +0.000 NA
ATOM     35  C   UNL     1       3.761   1.354  18.204  0.00  0.00    +0.000 C 
ATOM     36  C   UNL     1       2.412   2.973  19.374  0.00  0.00    +0.000 C 
ATOM     37  C   UNL     1       1.752   4.354  19.327  0.00  0.00    +0.000 C 
ENDBRANCH  29  31
ENDBRANCH   6  27
TORSDOF 3
ENDMDL
MODEL 7
REMARK VINA RESULT:      -7.8      3.438     11.228
REMARK  Name = 
REMARK  5 active torsions:
REMARK  status: ('A' for Active; 'I' for Inactive)
REMARK    1  A    between atoms: C_1  and  C_2
REMARK    2  A    between atoms: C_12  and  C_13
REMARK    3  A    between atoms: C_18  and  C_19
REMARK    4  A    between atoms: N_21  and  C_22
REMARK    5  A    between atoms: N_25  and  C_26
REMARK                            x       y       z     vdW  Elec       q    Type
REMARK                         _______ _______ _______ _____ _____    ______ ____
ROOT
ATOM      1  C   UNL     1       1.567   7.788  20.728  0.00  0.00    +0.000 C 
ATOM      2  O   UNL     1       2.262   8.223  19.817  0.00  0.00    +0.000 OA
ATOM      3  N   UNL     1       1.488   6.481  21.149  0.00  0.00    +0.000 N 
ATOM      4  C   UNL     1       2.250   5.500  20.571  0.00  0.00    +0.000 A 
ATOM      5  N   UNL     1       3.262   5.606  19.746  0.00  0.00    +0.000 NA
ATOM      6  C   UNL     1       3.716   4.335  19.396  0.00  0.00    +0.000 A 
ATOM      7  C   UNL     1       3.000   3.298  19.973  0.00  0.00    +0.000 A 
ATOM      8  S   UNL     1       1.787   3.918  21.011  0.00  0.00    +0.000 S 
ATOM      9  H   UNL     1       0.773   6.183  21.793  0.00  0.00    +0.000 HD
ENDROOT
BRANCH   1  21
ATOM     10  C   UNL     1      -0.894  12.353  18.489  0.00  0.00    +0.000 C 
ATOM     11  C   UNL     1      -2.131  11.928  19.280  0.00  0.00    +0.000 C 
ATOM     12  C   UNL     1      -3.205  13.051  19.262  0.00  0.00    +0.000 C 
ATOM     13  N   UNL     1      -3.128  14.001  20.370  0.00  0.00    +0.000 N 
ATOM     14  C   UNL     1      -2.931  13.578  21.668  0.00  0.00    +0.000 C 
ATOM     15  O   UNL     1      -3.297  14.244  22.628  0.00  0.00    +0.000 OA
ATOM     16  C   UNL     1      -2.212  12.336  21.764  0.00  0.00    +0.000 A 
ATOM     17  N   UNL     1      -1.743  11.758  22.914  0.00  0.00    +0.000 N 
ATOM     18  C   UNL     1      -0.922  10.692  22.604  0.00  0.00    +0.000 A 
ATOM     19  C   UNL     1      -0.126   9.885  23.430  0.00  0.00    +0.000 A 
ATOM     20  C   UNL     1       0.674   8.909  22.816  0.00  0.00    +0.000 A 
ATOM     21  C   UNL     1       0.661   8.741  21.427  0.00  0.00    +0.000 A 
ATOM     22  C   UNL     1      -0.173   9.535  20.624  0.00  0.00    +0.000 A 
ATOM     23  C   UNL     1      -0.959  10.538  21.216  0.00  0.00    +0.000 A 
ATOM     24  C   UNL     1      -1.796  11.564  20.698  0.00  0.00    +0.000 A 
ATOM     25  H   UNL     1      -3.638  14.872  20.303  0.00  0.00    +0.000 HD
ATOM     26  H   UNL     1      -1.894  12.135  23.840  0.00  0.00    +0.000 HD
ENDBRANCH   1  21
BRANCH   6  27
ATOM     27  C   UNL     1       4.855   4.126  18.493  0.00  0.00    +0.000 C 
ATOM     28  O   UNL     1       5.971   3.822  18.909  0.00  0.00    +0.000 OA
ATOM     29  N   UNL     1       4.567   4.311  17.158  0.00  0.00    +0.000 N 
ATOM     30  H   UNL     1       3.633   4.652  16.941  0.00  0.00    +0.000 HD
BRANCH  29  31
ATOM     31  C   UNL     1       5.598   4.238  16.131  0.00  0.00    +0.000 C 
ATOM     32  C   UNL     1       6.542   5.441  16.179  0.00  0.00    +0.000 C 
ATOM     33  C   UNL     1       7.613   5.323  15.093  0.00  0.00    +0.000 C 
ATOM     34  N   UNL     1       7.014   5.188  13.757  0.00  0.00    +0.000 NA
ATOM     35  C   UNL     1       8.062   5.084  12.738  0.00  0.00    +0.000 C 
ATOM     36  C   UNL     1       6.112   4.030  13.682  0.00  0.00    +0.000 C 
ATOM     37  C   UNL     1       4.999   4.115  14.731  0.00  0.00    +0.000 C 
ENDBRANCH  29  31
ENDBRANCH   6  27
TORSDOF 3
ENDMDL
MODEL 8
REMARK VINA RESULT:      -7.7      2.961     11.604
REMARK  Name = 
REMARK  5 active torsions:
REMARK  status: ('A' for Active; 'I' for Inactive)
REMARK    1  A    between atoms: C_1  and  C_2
REMARK    2  A    between atoms: C_12  and  C_13
REMARK    3  A    between atoms: C_18  and  C_19
REMARK    4  A    between atoms: N_21  and  C_22
REMARK    5  A    between atoms: N_25  and  C_26
REMARK                            x       y       z     vdW  Elec       q    Type
REMARK                         _______ _______ _______ _____ _____    ______ ____
ROOT
ATOM      1  C   UNL     1      -2.123  11.398  19.230  0.00  0.00    +0.000 C 
ATOM      2  O   UNL     1      -1.978  11.114  18.047  0.00  0.00    +0.000 OA
ATOM      3  N   UNL     1      -1.357  10.952  20.282  0.00  0.00    +0.000 N 
ATOM      4  C   UNL     1      -0.282  10.127  20.078  0.00  0.00    +0.000 A 
ATOM      5  N   UNL     1       0.320   9.800  18.963  0.00  0.00    +0.000 NA
ATOM      6  C   UNL     1       1.358   8.908  19.234  0.00  0.00    +0.000 A 
ATOM      7  C   UNL     1       1.487   8.579  20.575  0.00  0.00    +0.000 A 
ATOM      8  S   UNL     1       0.341   9.441  21.511  0.00  0.00    +0.000 S 
ATOM      9  H   UNL     1      -1.643  11.102  21.236  0.00  0.00    +0.000 HD
ENDROOT
BRANCH   1  21
ATOM     10  C   UNL     1      -3.019  13.846  24.241  0.00  0.00    +0.000 C 
ATOM     11  C   UNL     1      -3.463  15.065  23.433  0.00  0.00    +0.000 C 
ATOM     12  C   UNL     1      -4.135  16.119  24.357  0.00  0.00    +0.000 C 
ATOM     13  N   UNL     1      -5.585  15.990  24.493  0.00  0.00    +0.000 N 
ATOM     14  C   UNL     1      -6.392  15.760  23.399  0.00  0.00    +0.000 C 
ATOM     15  O   UNL     1      -7.573  16.085  23.387  0.00  0.00    +0.000 OA
ATOM     16  C   UNL     1      -5.728  15.061  22.332  0.00  0.00    +0.000 A 
ATOM     17  N   UNL     1      -6.316  14.566  21.198  0.00  0.00    +0.000 N 
ATOM     18  C   UNL     1      -5.419  13.775  20.510  0.00  0.00    +0.000 A 
ATOM     19  C   UNL     1      -5.598  12.968  19.376  0.00  0.00    +0.000 A 
ATOM     20  C   UNL     1      -4.506  12.205  18.936  0.00  0.00    +0.000 A 
ATOM     21  C   UNL     1      -3.276  12.265  19.601  0.00  0.00    +0.000 A 
ATOM     22  C   UNL     1      -3.109  13.109  20.710  0.00  0.00    +0.000 A 
ATOM     23  C   UNL     1      -4.199  13.858  21.185  0.00  0.00    +0.000 A 
ATOM     24  C   UNL     1      -4.398  14.693  22.319  0.00  0.00    +0.000 A 
ATOM     25  H   UNL     1      -6.050  16.487  25.241  0.00  0.00    +0.000 HD
ATOM     26  H   UNL     1      -7.295  14.682  20.970  0.00  0.00    +0.000 HD
ENDBRANCH   1  21
BRANCH   6  27
ATOM     27  C   UNL     1       2.231   8.370  18.183  0.00  0.00    +0.000 C 
ATOM     28  O   UNL     1       2.437   8.976  17.133  0.00  0.00    +0.000 OA
ATOM     29  N   UNL     1       2.779   7.138  18.470  0.00  0.00    +0.000 N 
ATOM     30  H   UNL     1       2.462   6.693  19.329  0.00  0.00    +0.000 HD
BRANCH  29  31
ATOM     31  C   UNL     1       3.592   6.414  17.503  0.00  0.00    +0.000 C 
ATOM     32  C   UNL     1       3.615   4.910  17.785  0.00  0.00    +0.000 C 
ATOM     33  C   UNL     1       4.472   4.185  16.745  0.00  0.00    +0.000 C 
ATOM     34  N   UNL     1       5.838   4.725  16.699  0.00  0.00    +0.000 NA
ATOM     35  C   UNL     1       6.635   4.007  15.700  0.00  0.00    +0.000 C 
ATOM     36  C   UNL     1       5.841   6.167  16.416  0.00  0.00    +0.000 C 
ATOM     37  C   UNL     1       5.023   6.946  17.449  0.00  0.00    +0.000 C 
ENDBRANCH  29  31
ENDBRANCH   6  27
TORSDOF 3
ENDMDL
MODEL 9
REMARK VINA RESULT:      -7.7      2.041      2.416
REMARK  Name = 
REMARK  5 active torsions:
REMARK  status: ('A' for Active; 'I' for Inactive)
REMARK    1  A    between atoms: C_1  and  C_2
REMARK    2  A    between atoms: C_12  and  C_13
REMARK    3  A    between atoms: C_18  and  C_19
REMARK    4  A    between atoms: N_21  and  C_22
REMARK    5  A    between atoms: N_25  and  C_26
REMARK                            x       y       z     vdW  Elec       q    Type
REMARK                         _______ _______ _______ _____ _____    ______ ____
ROOT
ATOM      1  C   UNL     1       1.785   9.206  18.560  0.00  0.00    +0.000 C 
ATOM      2  O   UNL     1       0.715   9.096  19.147  0.00  0.00    +0.000 OA
ATOM      3  N   UNL     1       2.428  10.379  18.236  0.00  0.00    +0.000 N 
ATOM      4  C   UNL     1       1.908  11.596  18.591  0.00  0.00    +0.000 A 
ATOM      5  N   UNL     1       0.927  11.878  19.410  0.00  0.00    +0.000 NA
ATOM      6  C   UNL     1       0.727  13.258  19.445  0.00  0.00    +0.000 A 
ATOM      7  C   UNL     1       1.577  13.975  18.618  0.00  0.00    +0.000 A 
ATOM      8  S   UNL     1       2.676  12.919  17.836  0.00  0.00    +0.000 S 
ATOM      9  H   UNL     1       3.218  10.384  17.611  0.00  0.00    +0.000 HD
ENDROOT
BRANCH   1  21
ATOM     10  C   UNL     1       0.838   3.963  20.434  0.00  0.00    +0.000 C 
ATOM     11  C   UNL     1       0.924   3.549  18.965  0.00  0.00    +0.000 C 
ATOM     12  C   UNL     1       0.987   2.002  18.835  0.00  0.00    +0.000 C 
ATOM     13  N   UNL     1       2.333   1.434  18.817  0.00  0.00    +0.000 N 
ATOM     14  C   UNL     1       3.341   1.998  18.062  0.00  0.00    +0.000 C 
ATOM     15  O   UNL     1       4.298   1.342  17.670  0.00  0.00    +0.000 OA
ATOM     16  C   UNL     1       3.178   3.411  17.849  0.00  0.00    +0.000 A 
ATOM     17  N   UNL     1       4.091   4.254  17.274  0.00  0.00    +0.000 N 
ATOM     18  C   UNL     1       3.685   5.564  17.431  0.00  0.00    +0.000 A 
ATOM     19  C   UNL     1       4.343   6.765  17.124  0.00  0.00    +0.000 A 
ATOM     20  C   UNL     1       3.706   7.967  17.470  0.00  0.00    +0.000 A 
ATOM     21  C   UNL     1       2.450   7.961  18.086  0.00  0.00    +0.000 A 
ATOM     22  C   UNL     1       1.794   6.748  18.349  0.00  0.00    +0.000 A 
ATOM     23  C   UNL     1       2.427   5.532  18.038  0.00  0.00    +0.000 A 
ATOM     24  C   UNL     1       2.105   4.168  18.274  0.00  0.00    +0.000 A 
ATOM     25  H   UNL     1       2.446   0.440  18.962  0.00  0.00    +0.000 HD
ATOM     26  H   UNL     1       4.979   3.954  16.894  0.00  0.00    +0.000 HD
ENDBRANCH   1  21
BRANCH   6  27
ATOM     27  C   UNL     1      -0.297  13.885  20.289  0.00  0.00    +0.000 C 
ATOM     28  O   UNL     1      -1.493  13.835  20.010  0.00  0.00    +0.000 OA
ATOM     29  N   UNL     1       0.197  14.537  21.399  0.00  0.00    +0.000 N 
ATOM     30  H   UNL     1       1.211  14.591  21.476  0.00  0.00    +0.000 HD
BRANCH  29  31
ATOM     31  C   UNL     1      -0.667  15.294  22.295  0.00  0.00    +0.000 C 
ATOM     32  C   UNL     1      -0.032  16.620  22.718  0.00  0.00    +0.000 C 
ATOM     33  C   UNL     1      -0.971  17.388  23.651  0.00  0.00    +0.000 C 
ATOM     34  N   UNL     1      -1.335  16.588  24.829  0.00  0.00    +0.000 NA
ATOM     35  C   UNL     1      -2.228  17.351  25.706  0.00  0.00    +0.000 C 
ATOM     36  C   UNL     1      -1.959  15.313  24.447  0.00  0.00    +0.000 C 
ATOM     37  C   UNL     1      -1.045  14.489  23.537  0.00  0.00    +0.000 C 
ENDBRANCH  29  31
ENDBRANCH   6  27
TORSDOF 3
ENDMDL
