MODEL 1
REMARK VINA RESULT:      -9.5      0.000      0.000
REMARK  Name = 
REMARK  6 active torsions:
REMARK  status: ('A' for Active; 'I' for Inactive)
REMARK    1  A    between atoms: C_1  and  C_2
REMARK    2  A    between atoms: C_7  and  C_8
REMARK    3  A    between atoms: C_11  and  C_12
REMARK    4  A    between atoms: C_13  and  N_14
REMARK    5  A    between atoms: C_15  and  C_17
REMARK    6  A    between atoms: C_20  and  C_21
REMARK                            x       y       z     vdW  Elec       q    Type
REMARK                         _______ _______ _______ _____ _____    ______ ____
ROOT
ATOM      1  C   UNL     1       4.521   5.244  17.351  0.00  0.00    +0.000 A 
ATOM      2  C   UNL     1       4.584   4.197  18.279  0.00  0.00    +0.000 A 
ATOM      3  C   UNL     1       3.847   4.245  19.464  0.00  0.00    +0.000 A 
ATOM      4  C   UNL     1       3.025   5.341  19.750  0.00  0.00    +0.000 A 
ATOM      5  C   UNL     1       2.133   5.285  20.960  0.00  0.00    +0.000 C 
ATOM      6  C   UNL     1       2.958   6.399  18.827  0.00  0.00    +0.000 A 
ATOM      7  C   UNL     1       3.713   6.351  17.645  0.00  0.00    +0.000 A 
ENDROOT
BRANCH   1  14
ATOM      8  C   UNL     1       7.074   2.689  11.025  0.00  0.00    +0.000 C 
ATOM      9  C   UNL     1       6.911   3.560  12.239  0.00  0.00    +0.000 A 
ATOM     10  C   UNL     1       7.785   4.640  12.459  0.00  0.00    +0.000 A 
ATOM     11  C   UNL     1       7.645   5.482  13.574  0.00  0.00    +0.000 A 
ATOM     12  C   UNL     1       6.610   5.214  14.476  0.00  0.00    +0.000 A 
ATOM     13  N   UNL     1       6.243   5.845  15.635  0.00  0.00    +0.000 NA
ATOM     14  C   UNL     1       5.237   5.114  16.085  0.00  0.00    +0.000 A 
ATOM     15  O   UNL     1       4.880   4.069  15.269  0.00  0.00    +0.000 OA
ATOM     16  C   UNL     1       5.775   4.135  14.242  0.00  0.00    +0.000 A 
ATOM     17  C   UNL     1       5.875   3.282  13.148  0.00  0.00    +0.000 A 
ENDBRANCH   1  14
BRANCH   6  18
ATOM     18  N   UNL     1       2.122   7.499  19.095  0.00  0.00    +0.000 N 
ATOM     19  C   UNL     1       2.008   8.607  18.271  0.00  0.00    +0.000 C 
ATOM     20  O   UNL     1       2.651   8.773  17.234  0.00  0.00    +0.000 OA
ATOM     21  H   UNL     1       1.341   7.366  19.727  0.00  0.00    +0.000 HD
BRANCH  19  22
ATOM     22  C   UNL     1       0.983   9.537  18.705  0.00  0.00    +0.000 A 
ATOM     23  C   UNL     1       0.901  10.367  19.804  0.00  0.00    +0.000 A 
ATOM     24  C   UNL     1      -0.341  11.043  19.716  0.00  0.00    +0.000 A 
ATOM     25  C   UNL     1      -0.955  10.597  18.557  0.00  0.00    +0.000 A 
ATOM     26  O   UNL     1      -0.139   9.690  17.941  0.00  0.00    +0.000 OA
BRANCH  25  27
ATOM     27  C   UNL     1      -2.218  10.887  17.886  0.00  0.00    +0.000 A 
ATOM     28  C   UNL     1      -2.435  10.494  16.558  0.00  0.00    +0.000 A 
ATOM     29  C   UNL     1      -3.652  10.757  15.916  0.00  0.00    +0.000 A 
ATOM     30  C   UNL     1      -4.671  11.417  16.599  0.00  0.00    +0.000 A 
ATOM     31  C   UNL     1      -4.467  11.817  17.917  0.00  0.00    +0.000 A 
ATOM     32 CL   UNL     1      -5.722  12.634  18.766  0.00  0.00    +0.000 Cl
ATOM     33  C   UNL     1      -3.254  11.559  18.556  0.00  0.00    +0.000 A 
ENDBRANCH  25  27
ENDBRANCH  19  22
ENDBRANCH   6  18
TORSDOF 4
ENDMDL
MODEL 2
REMARK VINA RESULT:      -9.4      4.975     11.741
REMARK  Name = 
REMARK  6 active torsions:
REMARK  status: ('A' for Active; 'I' for Inactive)
REMARK    1  A    between atoms: C_1  and  C_2
REMARK    2  A    between atoms: C_7  and  C_8
REMARK    3  A    between atoms: C_11  and  C_12
REMARK    4  A    between atoms: C_13  and  N_14
REMARK    5  A    between atoms: C_15  and  C_17
REMARK    6  A    between atoms: C_20  and  C_21
REMARK                            x       y       z     vdW  Elec       q    Type
REMARK                         _______ _______ _______ _____ _____    ______ ____
ROOT
ATOM      1  C   UNL     1      -1.678  12.931  20.022  0.00  0.00    +0.000 A 
ATOM      2  C   UNL     1      -1.044  14.160  19.801  0.00  0.00    +0.000 A 
ATOM      3  C   UNL     1       0.248  14.216  19.273  0.00  0.00    +0.000 A 
ATOM      4  C   UNL     1       0.937  13.041  18.951  0.00  0.00    +0.000 A 
ATOM      5  C   UNL     1       2.262  13.146  18.245  0.00  0.00    +0.000 C 
ATOM      6  C   UNL     1       0.312  11.802  19.174  0.00  0.00    +0.000 A 
ATOM      7  C   UNL     1      -0.981  11.754  19.718  0.00  0.00    +0.000 A 
ENDROOT
BRANCH   1  14
ATOM      8  C   UNL     1      -7.610  13.352  24.230  0.00  0.00    +0.000 C 
ATOM      9  C   UNL     1      -6.732  13.074  23.042  0.00  0.00    +0.000 A 
ATOM     10  C   UNL     1      -7.264  12.452  21.898  0.00  0.00    +0.000 A 
ATOM     11  C   UNL     1      -6.472  12.196  20.767  0.00  0.00    +0.000 A 
ATOM     12  C   UNL     1      -5.126  12.572  20.806  0.00  0.00    +0.000 A 
ATOM     13  N   UNL     1      -4.130  12.444  19.875  0.00  0.00    +0.000 NA
ATOM     14  C   UNL     1      -3.061  12.921  20.490  0.00  0.00    +0.000 A 
ATOM     15  O   UNL     1      -3.298  13.408  21.752  0.00  0.00    +0.000 OA
ATOM     16  C   UNL     1      -4.627  13.169  21.951  0.00  0.00    +0.000 A 
ATOM     17  C   UNL     1      -5.376  13.446  23.089  0.00  0.00    +0.000 A 
ENDBRANCH   1  14
BRANCH   6  18
ATOM     18  N   UNL     1       0.989  10.615  18.838  0.00  0.00    +0.000 N 
ATOM     19  C   UNL     1       1.334   9.633  19.753  0.00  0.00    +0.000 C 
ATOM     20  O   UNL     1       1.123   9.704  20.964  0.00  0.00    +0.000 OA
ATOM     21  H   UNL     1       0.953  10.297  17.877  0.00  0.00    +0.000 HD
BRANCH  19  22
ATOM     22  C   UNL     1       1.904   8.452  19.133  0.00  0.00    +0.000 A 
ATOM     23  C   UNL     1       2.672   8.291  17.998  0.00  0.00    +0.000 A 
ATOM     24  C   UNL     1       2.934   6.903  17.873  0.00  0.00    +0.000 A 
ATOM     25  C   UNL     1       2.317   6.285  18.949  0.00  0.00    +0.000 A 
ATOM     26  O   UNL     1       1.704   7.234  19.717  0.00  0.00    +0.000 OA
BRANCH  25  27
ATOM     27  C   UNL     1       2.202   4.906  19.414  0.00  0.00    +0.000 A 
ATOM     28  C   UNL     1       1.382   4.580  20.504  0.00  0.00    +0.000 A 
ATOM     29  C   UNL     1       1.259   3.256  20.944  0.00  0.00    +0.000 A 
ATOM     30  C   UNL     1       1.955   2.239  20.295  0.00  0.00    +0.000 A 
ATOM     31  C   UNL     1       2.776   2.550  19.215  0.00  0.00    +0.000 A 
ATOM     32 CL   UNL     1       3.639   1.297  18.409  0.00  0.00    +0.000 Cl
ATOM     33  C   UNL     1       2.904   3.869  18.778  0.00  0.00    +0.000 A 
ENDBRANCH  25  27
ENDBRANCH  19  22
ENDBRANCH   6  18
TORSDOF 4
ENDMDL
MODEL 3
REMARK VINA RESULT:      -9.2      4.127      6.340
REMARK  Name = 
REMARK  6 active torsions:
REMARK  status: ('A' for Active; 'I' for Inactive)
REMARK    1  A    between atoms: C_1  and  C_2
REMARK    2  A    between atoms: C_7  and  C_8
REMARK    3  A    between atoms: C_11  and  C_12
REMARK    4  A    between atoms: C_13  and  N_14
REMARK    5  A    between atoms: C_15  and  C_17
REMARK    6  A    between atoms: C_20  and  C_21
REMARK                            x       y       z     vdW  Elec       q    Type
REMARK                         _______ _______ _______ _____ _____    ______ ____
ROOT
ATOM      1  C   UNL     1       1.579   8.659  19.197  0.00  0.00    +0.000 A 
ATOM      2  C   UNL     1       2.247   9.382  18.200  0.00  0.00    +0.000 A 
ATOM      3  C   UNL     1       1.985  10.739  18.003  0.00  0.00    +0.000 A 
ATOM      4  C   UNL     1       1.049  11.408  18.800  0.00  0.00    +0.000 A 
ATOM      5  C   UNL     1       0.907  12.899  18.657  0.00  0.00    +0.000 C 
ATOM      6  C   UNL     1       0.370  10.690  19.799  0.00  0.00    +0.000 A 
ATOM      7  C   UNL     1       0.628   9.323  19.983  0.00  0.00    +0.000 A 
ENDROOT
BRANCH   1  14
ATOM      8  C   UNL     1       3.522   1.709  18.199  0.00  0.00    +0.000 C 
ATOM      9  C   UNL     1       3.049   2.964  18.875  0.00  0.00    +0.000 A 
ATOM     10  C   UNL     1       2.648   2.935  20.223  0.00  0.00    +0.000 A 
ATOM     11  C   UNL     1       2.219   4.096  20.887  0.00  0.00    +0.000 A 
ATOM     12  C   UNL     1       2.192   5.295  20.167  0.00  0.00    +0.000 A 
ATOM     13  N   UNL     1       1.819   6.559  20.540  0.00  0.00    +0.000 NA
ATOM     14  C   UNL     1       1.947   7.265  19.429  0.00  0.00    +0.000 A 
ATOM     15  O   UNL     1       2.434   6.559  18.357  0.00  0.00    +0.000 OA
ATOM     16  C   UNL     1       2.578   5.290  18.838  0.00  0.00    +0.000 A 
ATOM     17  C   UNL     1       3.015   4.166  18.145  0.00  0.00    +0.000 A 
ENDBRANCH   1  14
BRANCH   6  18
ATOM     18  N   UNL     1      -0.561  11.356  20.618  0.00  0.00    +0.000 N 
ATOM     19  C   UNL     1      -0.510  11.369  22.002  0.00  0.00    +0.000 C 
ATOM     20  O   UNL     1       0.331  10.770  22.673  0.00  0.00    +0.000 OA
ATOM     21  H   UNL     1      -1.103  12.111  20.213  0.00  0.00    +0.000 HD
BRANCH  19  22
ATOM     22  C   UNL     1      -1.506  12.236  22.602  0.00  0.00    +0.000 A 
ATOM     23  C   UNL     1      -1.390  13.322  23.445  0.00  0.00    +0.000 A 
ATOM     24  C   UNL     1      -2.706  13.773  23.716  0.00  0.00    +0.000 A 
ATOM     25  C   UNL     1      -3.564  12.941  23.014  0.00  0.00    +0.000 A 
ATOM     26  O   UNL     1      -2.826  12.017  22.329  0.00  0.00    +0.000 OA
BRANCH  25  27
ATOM     27  C   UNL     1      -5.012  12.858  22.853  0.00  0.00    +0.000 A 
ATOM     28  C   UNL     1      -5.868  13.009  23.953  0.00  0.00    +0.000 A 
ATOM     29  C   UNL     1      -7.259  12.943  23.799  0.00  0.00    +0.000 A 
ATOM     30  C   UNL     1      -7.811  12.728  22.539  0.00  0.00    +0.000 A 
ATOM     31  C   UNL     1      -6.972  12.572  21.440  0.00  0.00    +0.000 A 
ATOM     32 CL   UNL     1      -7.648  12.305  19.879  0.00  0.00    +0.000 Cl
ATOM     33  C   UNL     1      -5.586  12.633  21.591  0.00  0.00    +0.000 A 
ENDBRANCH  25  27
ENDBRANCH  19  22
ENDBRANCH   6  18
TORSDOF 4
ENDMDL
MODEL 4
REMARK VINA RESULT:      -9.2      3.711     10.034
REMARK  Name = 
REMARK  6 active torsions:
REMARK  status: ('A' for Active; 'I' for Inactive)
REMARK    1  A    between atoms: C_1  and  C_2
REMARK    2  A    between atoms: C_7  and  C_8
REMARK    3  A    between atoms: C_11  and  C_12
REMARK    4  A    between atoms: C_13  and  N_14
REMARK    5  A    between atoms: C_15  and  C_17
REMARK    6  A    between atoms: C_20  and  C_21
REMARK                            x       y       z     vdW  Elec       q    Type
REMARK                         _______ _______ _______ _____ _____    ______ ____
ROOT
ATOM      1  C   UNL     1       2.018   6.454  20.010  0.00  0.00    +0.000 A 
ATOM      2  C   UNL     1       1.832   5.389  20.902  0.00  0.00    +0.000 A 
ATOM      3  C   UNL     1       2.412   4.143  20.660  0.00  0.00    +0.000 A 
ATOM      4  C   UNL     1       3.195   3.929  19.519  0.00  0.00    +0.000 A 
ATOM      5  C   UNL     1       3.924   2.621  19.373  0.00  0.00    +0.000 C 
ATOM      6  C   UNL     1       3.384   4.989  18.616  0.00  0.00    +0.000 A 
ATOM      7  C   UNL     1       2.786   6.235  18.858  0.00  0.00    +0.000 A 
ENDROOT
BRANCH   1  14
ATOM      8  C   UNL     1      -1.653  11.843  23.257  0.00  0.00    +0.000 C 
ATOM      9  C   UNL     1      -0.835  11.098  22.241  0.00  0.00    +0.000 A 
ATOM     10  C   UNL     1      -0.475  11.716  21.030  0.00  0.00    +0.000 A 
ATOM     11  C   UNL     1       0.304  11.051  20.070  0.00  0.00    +0.000 A 
ATOM     12  C   UNL     1       0.714   9.742  20.344  0.00  0.00    +0.000 A 
ATOM     13  N   UNL     1       1.459   8.861  19.607  0.00  0.00    +0.000 NA
ATOM     14  C   UNL     1       1.470   7.764  20.346  0.00  0.00    +0.000 A 
ATOM     15  O   UNL     1       0.824   7.882  21.552  0.00  0.00    +0.000 OA
ATOM     16  C   UNL     1       0.332   9.155  21.537  0.00  0.00    +0.000 A 
ATOM     17  C   UNL     1      -0.433   9.779  22.517  0.00  0.00    +0.000 A 
ENDBRANCH   1  14
BRANCH   6  18
ATOM     18  N   UNL     1       4.182   4.791  17.474  0.00  0.00    +0.000 N 
ATOM     19  C   UNL     1       4.968   5.775  16.896  0.00  0.00    +0.000 C 
ATOM     20  O   UNL     1       5.028   6.939  17.290  0.00  0.00    +0.000 OA
ATOM     21  H   UNL     1       4.457   3.844  17.239  0.00  0.00    +0.000 HD
BRANCH  19  22
ATOM     22  C   UNL     1       5.795   5.280  15.812  0.00  0.00    +0.000 A 
ATOM     23  C   UNL     1       7.152   5.372  15.576  0.00  0.00    +0.000 A 
ATOM     24  C   UNL     1       7.401   4.707  14.349  0.00  0.00    +0.000 A 
ATOM     25  C   UNL     1       6.179   4.231  13.900  0.00  0.00    +0.000 A 
ATOM     26  O   UNL     1       5.209   4.573  14.800  0.00  0.00    +0.000 OA
BRANCH  25  27
ATOM     27  C   UNL     1       5.737   3.473  12.734  0.00  0.00    +0.000 A 
ATOM     28  C   UNL     1       6.415   2.314  12.330  0.00  0.00    +0.000 A 
ATOM     29  C   UNL     1       5.985   1.576  11.220  0.00  0.00    +0.000 A 
ATOM     30  C   UNL     1       4.866   1.989  10.500  0.00  0.00    +0.000 A 
ATOM     31  C   UNL     1       4.187   3.141  10.888  0.00  0.00    +0.000 A 
ATOM     32 CL   UNL     1       2.804   3.656  10.002  0.00  0.00    +0.000 Cl
ATOM     33  C   UNL     1       4.617   3.880  11.991  0.00  0.00    +0.000 A 
ENDBRANCH  25  27
ENDBRANCH  19  22
ENDBRANCH   6  18
TORSDOF 4
ENDMDL
MODEL 5
REMARK VINA RESULT:      -9.0      4.222     10.238
REMARK  Name = 
REMARK  6 active torsions:
REMARK  status: ('A' for Active; 'I' for Inactive)
REMARK    1  A    between atoms: C_1  and  C_2
REMARK    2  A    between atoms: C_7  and  C_8
REMARK    3  A    between atoms: C_11  and  C_12
REMARK    4  A    between atoms: C_13  and  N_14
REMARK    5  A    between atoms: C_15  and  C_17
REMARK    6  A    between atoms: C_20  and  C_21
REMARK                            x       y       z     vdW  Elec       q    Type
REMARK                         _______ _______ _______ _____ _____    ______ ____
ROOT
ATOM      1  C   UNL     1       2.005   6.709  19.930  0.00  0.00    +0.000 A 
ATOM      2  C   UNL     1       1.864   5.638  20.822  0.00  0.00    +0.000 A 
ATOM      3  C   UNL     1       2.474   4.408  20.567  0.00  0.00    +0.000 A 
ATOM      4  C   UNL     1       3.242   4.219  19.412  0.00  0.00    +0.000 A 
ATOM      5  C   UNL     1       4.005   2.932  19.249  0.00  0.00    +0.000 C 
ATOM      6  C   UNL     1       3.385   5.286  18.508  0.00  0.00    +0.000 A 
ATOM      7  C   UNL     1       2.758   6.515  18.765  0.00  0.00    +0.000 A 
ENDROOT
BRANCH   1  14
ATOM      8  C   UNL     1      -1.710  11.998  23.291  0.00  0.00    +0.000 C 
ATOM      9  C   UNL     1      -0.910  11.273  22.246  0.00  0.00    +0.000 A 
ATOM     10  C   UNL     1      -0.622  11.892  21.017  0.00  0.00    +0.000 A 
ATOM     11  C   UNL     1       0.139  11.246  20.030  0.00  0.00    +0.000 A 
ATOM     12  C   UNL     1       0.604   9.955  20.296  0.00  0.00    +0.000 A 
ATOM     13  N   UNL     1       1.347   9.093  19.535  0.00  0.00    +0.000 NA
ATOM     14  C   UNL     1       1.426   8.003  20.280  0.00  0.00    +0.000 A 
ATOM     15  O   UNL     1       0.828   8.109  21.512  0.00  0.00    +0.000 OA
ATOM     16  C   UNL     1       0.293   9.364  21.508  0.00  0.00    +0.000 A 
ATOM     17  C   UNL     1      -0.451   9.970  22.515  0.00  0.00    +0.000 A 
ENDBRANCH   1  14
BRANCH   6  18
ATOM     18  N   UNL     1       4.168   5.113  17.352  0.00  0.00    +0.000 N 
ATOM     19  C   UNL     1       5.315   5.840  17.074  0.00  0.00    +0.000 C 
ATOM     20  O   UNL     1       5.756   6.743  17.785  0.00  0.00    +0.000 OA
ATOM     21  H   UNL     1       4.100   4.234  16.853  0.00  0.00    +0.000 HD
BRANCH  19  22
ATOM     22  C   UNL     1       6.009   5.378  15.888  0.00  0.00    +0.000 A 
ATOM     23  C   UNL     1       7.318   5.522  15.475  0.00  0.00    +0.000 A 
ATOM     24  C   UNL     1       7.428   4.868  14.223  0.00  0.00    +0.000 A 
ATOM     25  C   UNL     1       6.177   4.346  13.936  0.00  0.00    +0.000 A 
ATOM     26  O   UNL     1       5.322   4.650  14.959  0.00  0.00    +0.000 OA
BRANCH  25  27
ATOM     27  C   UNL     1       5.614   3.572  12.835  0.00  0.00    +0.000 A 
ATOM     28  C   UNL     1       4.508   4.044  12.114  0.00  0.00    +0.000 A 
ATOM     29  C   UNL     1       3.974   3.310  11.047  0.00  0.00    +0.000 A 
ATOM     30  C   UNL     1       4.544   2.091  10.686  0.00  0.00    +0.000 A 
ATOM     31  C   UNL     1       5.640   1.609  11.396  0.00  0.00    +0.000 A 
ATOM     32 CL   UNL     1       6.348   0.103  10.955  0.00  0.00    +0.000 Cl
ATOM     33  C   UNL     1       6.170   2.337  12.462  0.00  0.00    +0.000 A 
ENDBRANCH  25  27
ENDBRANCH  19  22
ENDBRANCH   6  18
TORSDOF 4
ENDMDL
MODEL 6
REMARK VINA RESULT:      -9.0      4.114     11.722
REMARK  Name = 
REMARK  6 active torsions:
REMARK  status: ('A' for Active; 'I' for Inactive)
REMARK    1  A    between atoms: C_1  and  C_2
REMARK    2  A    between atoms: C_7  and  C_8
REMARK    3  A    between atoms: C_11  and  C_12
REMARK    4  A    between atoms: C_13  and  N_14
REMARK    5  A    between atoms: C_15  and  C_17
REMARK    6  A    between atoms: C_20  and  C_21
REMARK                            x       y       z     vdW  Elec       q    Type
REMARK                         _______ _______ _______ _____ _____    ______ ____
ROOT
ATOM      1  C   UNL     1      -1.464  12.509  19.973  0.00  0.00    +0.000 A 
ATOM      2  C   UNL     1      -0.837  13.623  19.401  0.00  0.00    +0.000 A 
ATOM      3  C   UNL     1       0.457  13.531  18.885  0.00  0.00    +0.000 A 
ATOM      4  C   UNL     1       1.157  12.319  18.927  0.00  0.00    +0.000 A 
ATOM      5  C   UNL     1       2.485  12.222  18.226  0.00  0.00    +0.000 C 
ATOM      6  C   UNL     1       0.538  11.196  19.502  0.00  0.00    +0.000 A 
ATOM      7  C   UNL     1      -0.757  11.300  20.032  0.00  0.00    +0.000 A 
ENDROOT
BRANCH   1  14
ATOM      8  C   UNL     1      -7.413  13.161  24.125  0.00  0.00    +0.000 C 
ATOM      9  C   UNL     1      -6.545  12.931  22.921  0.00  0.00    +0.000 A 
ATOM     10  C   UNL     1      -7.119  12.554  21.694  0.00  0.00    +0.000 A 
ATOM     11  C   UNL     1      -6.334  12.350  20.548  0.00  0.00    +0.000 A 
ATOM     12  C   UNL     1      -4.951  12.526  20.656  0.00  0.00    +0.000 A 
ATOM     13  N   UNL     1      -3.953  12.392  19.728  0.00  0.00    +0.000 NA
ATOM     14  C   UNL     1      -2.849  12.626  20.418  0.00  0.00    +0.000 A 
ATOM     15  O   UNL     1      -3.058  12.961  21.733  0.00  0.00    +0.000 OA
ATOM     16  C   UNL     1      -4.412  12.884  21.880  0.00  0.00    +0.000 A 
ATOM     17  C   UNL     1      -5.153  13.101  23.037  0.00  0.00    +0.000 A 
ENDBRANCH   1  14
BRANCH   6  18
ATOM     18  N   UNL     1       1.226   9.968  19.535  0.00  0.00    +0.000 N 
ATOM     19  C   UNL     1       1.253   9.065  18.485  0.00  0.00    +0.000 C 
ATOM     20  O   UNL     1       0.650   9.215  17.422  0.00  0.00    +0.000 OA
ATOM     21  H   UNL     1       1.983   9.860  20.199  0.00  0.00    +0.000 HD
BRANCH  19  22
ATOM     22  C   UNL     1       2.139   7.942  18.721  0.00  0.00    +0.000 A 
ATOM     23  C   UNL     1       2.193   7.014  19.741  0.00  0.00    +0.000 A 
ATOM     24  C   UNL     1       3.279   6.150  19.452  0.00  0.00    +0.000 A 
ATOM     25  C   UNL     1       3.831   6.591  18.260  0.00  0.00    +0.000 A 
ATOM     26  O   UNL     1       3.126   7.673  17.816  0.00  0.00    +0.000 OA
BRANCH  25  27
ATOM     27  C   UNL     1       4.943   6.157  17.420  0.00  0.00    +0.000 A 
ATOM     28  C   UNL     1       6.269   6.443  17.775  0.00  0.00    +0.000 A 
ATOM     29  C   UNL     1       7.338   6.015  16.978  0.00  0.00    +0.000 A 
ATOM     30  C   UNL     1       7.093   5.292  15.813  0.00  0.00    +0.000 A 
ATOM     31  C   UNL     1       5.781   5.005  15.447  0.00  0.00    +0.000 A 
ATOM     32 CL   UNL     1       5.472   4.112  14.008  0.00  0.00    +0.000 Cl
ATOM     33  C   UNL     1       4.714   5.434  16.238  0.00  0.00    +0.000 A 
ENDBRANCH  25  27
ENDBRANCH  19  22
ENDBRANCH   6  18
TORSDOF 4
ENDMDL
MODEL 7
REMARK VINA RESULT:      -8.9      3.060      6.153
REMARK  Name = 
REMARK  6 active torsions:
REMARK  status: ('A' for Active; 'I' for Inactive)
REMARK    1  A    between atoms: C_1  and  C_2
REMARK    2  A    between atoms: C_7  and  C_8
REMARK    3  A    between atoms: C_11  and  C_12
REMARK    4  A    between atoms: C_13  and  N_14
REMARK    5  A    between atoms: C_15  and  C_17
REMARK    6  A    between atoms: C_20  and  C_21
REMARK                            x       y       z     vdW  Elec       q    Type
REMARK                         _______ _______ _______ _____ _____    ______ ____
ROOT
ATOM      1  C   UNL     1       1.633  10.005  18.191  0.00  0.00    +0.000 A 
ATOM      2  C   UNL     1       2.431  11.156  18.163  0.00  0.00    +0.000 A 
ATOM      3  C   UNL     1       1.864  12.423  18.309  0.00  0.00    +0.000 A 
ATOM      4  C   UNL     1       0.484  12.572  18.489  0.00  0.00    +0.000 A 
ATOM      5  C   UNL     1      -0.066  13.939  18.794  0.00  0.00    +0.000 C 
ATOM      6  C   UNL     1      -0.326  11.423  18.513  0.00  0.00    +0.000 A 
ATOM      7  C   UNL     1       0.249  10.153  18.351  0.00  0.00    +0.000 A 
ENDROOT
BRANCH   1  14
ATOM      8  C   UNL     1       5.759   4.367  16.126  0.00  0.00    +0.000 C 
ATOM      9  C   UNL     1       4.716   5.168  16.852  0.00  0.00    +0.000 A 
ATOM     10  C   UNL     1       3.854   4.542  17.771  0.00  0.00    +0.000 A 
ATOM     11  C   UNL     1       2.882   5.268  18.478  0.00  0.00    +0.000 A 
ATOM     12  C   UNL     1       2.784   6.643  18.240  0.00  0.00    +0.000 A 
ATOM     13  N   UNL     1       1.943   7.587  18.766  0.00  0.00    +0.000 NA
ATOM     14  C   UNL     1       2.275   8.695  18.125  0.00  0.00    +0.000 A 
ATOM     15  O   UNL     1       3.322   8.555  17.247  0.00  0.00    +0.000 OA
ATOM     16  C   UNL     1       3.635   7.229  17.320  0.00  0.00    +0.000 A 
ATOM     17  C   UNL     1       4.615   6.549  16.604  0.00  0.00    +0.000 A 
ENDBRANCH   1  14
BRANCH   6  18
ATOM     18  N   UNL     1      -1.713  11.559  18.710  0.00  0.00    +0.000 N 
ATOM     19  C   UNL     1      -2.650  11.512  17.690  0.00  0.00    +0.000 C 
ATOM     20  O   UNL     1      -2.375  11.386  16.497  0.00  0.00    +0.000 OA
ATOM     21  H   UNL     1      -2.088  11.368  19.631  0.00  0.00    +0.000 HD
BRANCH  19  22
ATOM     22  C   UNL     1      -4.018  11.544  18.171  0.00  0.00    +0.000 A 
ATOM     23  C   UNL     1      -5.206  11.152  17.588  0.00  0.00    +0.000 A 
ATOM     24  C   UNL     1      -6.233  11.427  18.525  0.00  0.00    +0.000 A 
ATOM     25  C   UNL     1      -5.617  11.967  19.643  0.00  0.00    +0.000 A 
ATOM     26  O   UNL     1      -4.269  12.024  19.425  0.00  0.00    +0.000 OA
BRANCH  25  27
ATOM     27  C   UNL     1      -6.081  12.452  20.939  0.00  0.00    +0.000 A 
ATOM     28  C   UNL     1      -7.450  12.596  21.206  0.00  0.00    +0.000 A 
ATOM     29  C   UNL     1      -7.899  13.047  22.453  0.00  0.00    +0.000 A 
ATOM     30  C   UNL     1      -6.981  13.358  23.453  0.00  0.00    +0.000 A 
ATOM     31  C   UNL     1      -5.619  13.224  23.200  0.00  0.00    +0.000 A 
ATOM     32 CL   UNL     1      -4.478  13.606  24.432  0.00  0.00    +0.000 Cl
ATOM     33  C   UNL     1      -5.169  12.778  21.956  0.00  0.00    +0.000 A 
ENDBRANCH  25  27
ENDBRANCH  19  22
ENDBRANCH   6  18
TORSDOF 4
ENDMDL
MODEL 8
REMARK VINA RESULT:      -8.9      4.615     11.600
REMARK  Name = 
REMARK  6 active torsions:
REMARK  status: ('A' for Active; 'I' for Inactive)
REMARK    1  A    between atoms: C_1  and  C_2
REMARK    2  A    between atoms: C_7  and  C_8
REMARK    3  A    between atoms: C_11  and  C_12
REMARK    4  A    between atoms: C_13  and  N_14
REMARK    5  A    between atoms: C_15  and  C_17
REMARK    6  A    between atoms: C_20  and  C_21
REMARK                            x       y       z     vdW  Elec       q    Type
REMARK                         _______ _______ _______ _____ _____    ______ ____
ROOT
ATOM      1  C   UNL     1      -0.486  12.584  20.200  0.00  0.00    +0.000 A 
ATOM      2  C   UNL     1      -1.469  12.817  19.230  0.00  0.00    +0.000 A 
ATOM      3  C   UNL     1      -1.729  11.875  18.233  0.00  0.00    +0.000 A 
ATOM      4  C   UNL     1      -1.012  10.674  18.182  0.00  0.00    +0.000 A 
ATOM      5  C   UNL     1      -1.425   9.623  17.187  0.00  0.00    +0.000 C 
ATOM      6  C   UNL     1      -0.021  10.432  19.148  0.00  0.00    +0.000 A 
ATOM      7  C   UNL     1       0.244  11.390  20.139  0.00  0.00    +0.000 A 
ENDROOT
BRANCH   1  14
ATOM      8  C   UNL     1      -1.455  16.537  26.242  0.00  0.00    +0.000 C 
ATOM      9  C   UNL     1      -0.898  16.076  24.925  0.00  0.00    +0.000 A 
ATOM     10  C   UNL     1       0.103  16.823  24.279  0.00  0.00    +0.000 A 
ATOM     11  C   UNL     1       0.655  16.407  23.056  0.00  0.00    +0.000 A 
ATOM     12  C   UNL     1       0.176  15.224  22.485  0.00  0.00    +0.000 A 
ATOM     13  N   UNL     1       0.513  14.589  21.320  0.00  0.00    +0.000 NA
ATOM     14  C   UNL     1      -0.309  13.554  21.277  0.00  0.00    +0.000 A 
ATOM     15  O   UNL     1      -1.132  13.433  22.370  0.00  0.00    +0.000 OA
ATOM     16  C   UNL     1      -0.820  14.518  23.136  0.00  0.00    +0.000 A 
ATOM     17  C   UNL     1      -1.389  14.890  24.350  0.00  0.00    +0.000 A 
ENDBRANCH   1  14
BRANCH   6  18
ATOM     18  N   UNL     1       0.694   9.221  19.118  0.00  0.00    +0.000 N 
ATOM     19  C   UNL     1       1.794   8.989  18.308  0.00  0.00    +0.000 C 
ATOM     20  O   UNL     1       2.246   9.799  17.498  0.00  0.00    +0.000 OA
ATOM     21  H   UNL     1       0.627   8.603  19.918  0.00  0.00    +0.000 HD
BRANCH  19  22
ATOM     22  C   UNL     1       2.430   7.710  18.562  0.00  0.00    +0.000 A 
ATOM     23  C   UNL     1       2.175   6.728  19.497  0.00  0.00    +0.000 A 
ATOM     24  C   UNL     1       3.126   5.699  19.282  0.00  0.00    +0.000 A 
ATOM     25  C   UNL     1       3.912   6.102  18.214  0.00  0.00    +0.000 A 
ATOM     26  O   UNL     1       3.476   7.320  17.774  0.00  0.00    +0.000 OA
BRANCH  25  27
ATOM     27  C   UNL     1       5.041   5.524  17.494  0.00  0.00    +0.000 A 
ATOM     28  C   UNL     1       6.287   5.364  18.116  0.00  0.00    +0.000 A 
ATOM     29  C   UNL     1       7.369   4.796  17.432  0.00  0.00    +0.000 A 
ATOM     30  C   UNL     1       7.216   4.378  16.112  0.00  0.00    +0.000 A 
ATOM     31  C   UNL     1       5.986   4.535  15.481  0.00  0.00    +0.000 A 
ATOM     32 CL   UNL     1       5.790   4.020  13.850  0.00  0.00    +0.000 Cl
ATOM     33  C   UNL     1       4.908   5.104  16.160  0.00  0.00    +0.000 A 
ENDBRANCH  25  27
ENDBRANCH  19  22
ENDBRANCH   6  18
TORSDOF 4
ENDMDL
MODEL 9
REMARK VINA RESULT:      -8.9      4.285     11.048
REMARK  Name = 
REMARK  6 active torsions:
REMARK  status: ('A' for Active; 'I' for Inactive)
REMARK    1  A    between atoms: C_1  and  C_2
REMARK    2  A    between atoms: C_7  and  C_8
REMARK    3  A    between atoms: C_11  and  C_12
REMARK    4  A    between atoms: C_13  and  N_14
REMARK    5  A    between atoms: C_15  and  C_17
REMARK    6  A    between atoms: C_20  and  C_21
REMARK                            x       y       z     vdW  Elec       q    Type
REMARK                         _______ _______ _______ _____ _____    ______ ____
ROOT
ATOM      1  C   UNL     1      -0.838  12.412  19.942  0.00  0.00    +0.000 A 
ATOM      2  C   UNL     1      -2.016  12.541  19.194  0.00  0.00    +0.000 A 
ATOM      3  C   UNL     1      -2.323  11.631  18.180  0.00  0.00    +0.000 A 
ATOM      4  C   UNL     1      -1.460  10.569  17.889  0.00  0.00    +0.000 A 
ATOM      5  C   UNL     1      -1.899   9.528  16.895  0.00  0.00    +0.000 C 
ATOM      6  C   UNL     1      -0.273  10.435  18.629  0.00  0.00    +0.000 A 
ATOM      7  C   UNL     1       0.037  11.360  19.638  0.00  0.00    +0.000 A 
ENDROOT
BRANCH   1  14
ATOM      8  C   UNL     1      -1.419  16.024  26.241  0.00  0.00    +0.000 C 
ATOM      9  C   UNL     1      -0.957  15.647  24.862  0.00  0.00    +0.000 A 
ATOM     10  C   UNL     1      -0.027  16.452  24.181  0.00  0.00    +0.000 A 
ATOM     11  C   UNL     1       0.437  16.115  22.900  0.00  0.00    +0.000 A 
ATOM     12  C   UNL     1      -0.058  14.950  22.305  0.00  0.00    +0.000 A 
ATOM     13  N   UNL     1       0.200  14.384  21.085  0.00  0.00    +0.000 NA
ATOM     14  C   UNL     1      -0.599  13.331  21.052  0.00  0.00    +0.000 A 
ATOM     15  O   UNL     1      -1.330  13.132  22.196  0.00  0.00    +0.000 OA
ATOM     16  C   UNL     1      -0.984  14.184  22.993  0.00  0.00    +0.000 A 
ATOM     17  C   UNL     1      -1.464  14.478  24.264  0.00  0.00    +0.000 A 
ENDBRANCH   1  14
BRANCH   6  18
ATOM     18  N   UNL     1       0.595   9.361  18.356  0.00  0.00    +0.000 N 
ATOM     19  C   UNL     1       1.890   9.509  17.886  0.00  0.00    +0.000 C 
ATOM     20  O   UNL     1       2.414  10.590  17.618  0.00  0.00    +0.000 OA
ATOM     21  H   UNL     1       0.412   8.470  18.803  0.00  0.00    +0.000 HD
BRANCH  19  22
ATOM     22  C   UNL     1       2.617   8.256  17.814  0.00  0.00    +0.000 A 
ATOM     23  C   UNL     1       3.883   7.954  17.357  0.00  0.00    +0.000 A 
ATOM     24  C   UNL     1       4.057   6.557  17.523  0.00  0.00    +0.000 A 
ATOM     25  C   UNL     1       2.886   6.075  18.084  0.00  0.00    +0.000 A 
ATOM     26  O   UNL     1       2.019   7.115  18.270  0.00  0.00    +0.000 OA
BRANCH  25  27
ATOM     27  C   UNL     1       2.413   4.760  18.506  0.00  0.00    +0.000 A 
ATOM     28  C   UNL     1       2.261   3.718  17.580  0.00  0.00    +0.000 A 
ATOM     29  C   UNL     1       1.822   2.451  17.984  0.00  0.00    +0.000 A 
ATOM     30  C   UNL     1       1.530   2.210  19.325  0.00  0.00    +0.000 A 
ATOM     31  C   UNL     1       1.672   3.237  20.253  0.00  0.00    +0.000 A 
ATOM     32 CL   UNL     1       1.314   2.945  21.911  0.00  0.00    +0.000 Cl
ATOM     33  C   UNL     1       2.106   4.501  19.852  0.00  0.00    +0.000 A 
ENDBRANCH  25  27
ENDBRANCH  19  22
ENDBRANCH   6  18
TORSDOF 4
ENDMDL
