MODEL 1
REMARK VINA RESULT:      -7.4      0.000      0.000
REMARK  Name = 
REMARK  6 active torsions:
REMARK  status: ('A' for Active; 'I' for Inactive)
REMARK    1  A    between atoms: C_1  and  C_2
REMARK    2  A    between atoms: C_2  and  C_3
REMARK    3  A    between atoms: C_3  and  C_4
REMARK    4  A    between atoms: C_4  and  C_5
REMARK    5  A    between atoms: C_12  and  C_13
REMARK    6  A    between atoms: C_13  and  C_14
REMARK                            x       y       z     vdW  Elec       q    Type
REMARK                         _______ _______ _______ _____ _____    ______ ____
ROOT
ATOM      1  C   UNL     1       5.067   4.180  16.780  0.00  0.00    +0.000 A 
ATOM      2  N   UNL     1       4.652   5.292  17.280  0.00  0.00    +0.000 NA
ATOM      3  C   UNL     1       3.670   5.244  18.238  0.00  0.00    +0.000 A 
ATOM      4  O   UNL     1       3.333   6.512  18.779  0.00  0.00    +0.000 OA
ATOM      5  C   UNL     1       2.358   6.655  19.712  0.00  0.00    +0.000 A 
ATOM      6  O   UNL     1       2.046   7.739  20.192  0.00  0.00    +0.000 OA
ATOM      7  C   UNL     1       1.683   5.430  20.156  0.00  0.00    +0.000 A 
ATOM      8  C   UNL     1       1.993   4.215  19.670  0.00  0.00    +0.000 A 
ATOM      9  C   UNL     1       3.039   4.128  18.654  0.00  0.00    +0.000 A 
ATOM     10  C   UNL     1       3.489   2.865  18.001  0.00  0.00    +0.000 A 
ATOM     11  O   UNL     1       2.941   1.783  18.161  0.00  0.00    +0.000 OA
ATOM     12  N   UNL     1       4.562   2.974  17.159  0.00  0.00    +0.000 N 
ATOM     13  H   UNL     1       4.863   2.118  16.718  0.00  0.00    +0.000 HD
ENDROOT
BRANCH   8  14
ATOM     14  C   UNL     1       1.315   3.003  20.274  0.00  0.00    +0.000 C 
ATOM     15  C   UNL     1       1.708   2.718  21.719  0.00  0.00    +0.000 C 
ENDBRANCH   8  14
BRANCH   1  16
ATOM     16  C   UNL     1       6.112   4.165  15.684  0.00  0.00    +0.000 C 
BRANCH  16  17
ATOM     17  C   UNL     1       5.510   4.431  14.304  0.00  0.00    +0.000 C 
BRANCH  17  19
ATOM     18  C   UNL     1       5.336   3.300  12.058  0.00  0.00    +0.000 C 
ATOM     19  C   UNL     1       6.258   3.665  13.211  0.00  0.00    +0.000 C 
ENDBRANCH  17  19
ENDBRANCH  16  17
ENDBRANCH   1  16
TORSDOF 4
ENDMDL
MODEL 2
REMARK VINA RESULT:      -7.4      1.251      1.428
REMARK  Name = 
REMARK  6 active torsions:
REMARK  status: ('A' for Active; 'I' for Inactive)
REMARK    1  A    between atoms: C_1  and  C_2
REMARK    2  A    between atoms: C_2  and  C_3
REMARK    3  A    between atoms: C_3  and  C_4
REMARK    4  A    between atoms: C_4  and  C_5
REMARK    5  A    between atoms: C_12  and  C_13
REMARK    6  A    between atoms: C_13  and  C_14
REMARK                            x       y       z     vdW  Elec       q    Type
REMARK                         _______ _______ _______ _____ _____    ______ ____
ROOT
ATOM      1  C   UNL     1       6.005   4.673  17.828  0.00  0.00    +0.000 A 
ATOM      2  N   UNL     1       5.249   5.716  17.848  0.00  0.00    +0.000 NA
ATOM      3  C   UNL     1       4.187   5.728  18.717  0.00  0.00    +0.000 A 
ATOM      4  O   UNL     1       3.461   6.947  18.719  0.00  0.00    +0.000 OA
ATOM      5  C   UNL     1       2.359   7.122  19.493  0.00  0.00    +0.000 A 
ATOM      6  O   UNL     1       1.713   8.163  19.510  0.00  0.00    +0.000 OA
ATOM      7  C   UNL     1       1.966   5.996  20.349  0.00  0.00    +0.000 A 
ATOM      8  C   UNL     1       2.646   4.836  20.376  0.00  0.00    +0.000 A 
ATOM      9  C   UNL     1       3.813   4.701  19.507  0.00  0.00    +0.000 A 
ATOM     10  C   UNL     1       4.662   3.480  19.404  0.00  0.00    +0.000 A 
ATOM     11  O   UNL     1       4.395   2.417  19.947  0.00  0.00    +0.000 OA
ATOM     12  N   UNL     1       5.780   3.591  18.621  0.00  0.00    +0.000 N 
ATOM     13  H   UNL     1       6.351   2.762  18.553  0.00  0.00    +0.000 HD
ENDROOT
BRANCH   8  14
ATOM     14  C   UNL     1       2.224   3.778  21.374  0.00  0.00    +0.000 C 
ATOM     15  C   UNL     1       1.075   2.893  20.905  0.00  0.00    +0.000 C 
ENDBRANCH   8  14
BRANCH   1  16
ATOM     16  C   UNL     1       7.164   4.574  16.857  0.00  0.00    +0.000 C 
BRANCH  16  17
ATOM     17  C   UNL     1       6.772   4.998  15.441  0.00  0.00    +0.000 C 
BRANCH  17  19
ATOM     18  C   UNL     1       6.225   3.776  13.305  0.00  0.00    +0.000 C 
ATOM     19  C   UNL     1       5.874   3.954  14.775  0.00  0.00    +0.000 C 
ENDBRANCH  17  19
ENDBRANCH  16  17
ENDBRANCH   1  16
TORSDOF 4
ENDMDL
MODEL 3
REMARK VINA RESULT:      -7.2      1.237      2.171
REMARK  Name = 
REMARK  6 active torsions:
REMARK  status: ('A' for Active; 'I' for Inactive)
REMARK    1  A    between atoms: C_1  and  C_2
REMARK    2  A    between atoms: C_2  and  C_3
REMARK    3  A    between atoms: C_3  and  C_4
REMARK    4  A    between atoms: C_4  and  C_5
REMARK    5  A    between atoms: C_12  and  C_13
REMARK    6  A    between atoms: C_13  and  C_14
REMARK                            x       y       z     vdW  Elec       q    Type
REMARK                         _______ _______ _______ _____ _____    ______ ____
ROOT
ATOM      1  C   UNL     1       4.785   4.456  16.897  0.00  0.00    +0.000 A 
ATOM      2  N   UNL     1       4.349   5.520  17.478  0.00  0.00    +0.000 NA
ATOM      3  C   UNL     1       3.390   5.379  18.449  0.00  0.00    +0.000 A 
ATOM      4  O   UNL     1       3.028   6.597  19.081  0.00  0.00    +0.000 OA
ATOM      5  C   UNL     1       2.069   6.649  20.040  0.00  0.00    +0.000 A 
ATOM      6  O   UNL     1       1.737   7.688  20.598  0.00  0.00    +0.000 OA
ATOM      7  C   UNL     1       1.438   5.377  20.414  0.00  0.00    +0.000 A 
ATOM      8  C   UNL     1       1.773   4.207  19.841  0.00  0.00    +0.000 A 
ATOM      9  C   UNL     1       2.800   4.219  18.801  0.00  0.00    +0.000 A 
ATOM     10  C   UNL     1       3.271   3.017  18.057  0.00  0.00    +0.000 A 
ATOM     11  O   UNL     1       2.758   1.910  18.154  0.00  0.00    +0.000 OA
ATOM     12  N   UNL     1       4.323   3.214  17.203  0.00  0.00    +0.000 N 
ATOM     13  H   UNL     1       4.639   2.398  16.700  0.00  0.00    +0.000 HD
ENDROOT
BRANCH   8  14
ATOM     14  C   UNL     1       1.143   2.938  20.375  0.00  0.00    +0.000 C 
ATOM     15  C   UNL     1       1.570   2.572  21.792  0.00  0.00    +0.000 C 
ENDBRANCH   8  14
BRANCH   1  16
ATOM     16  C   UNL     1       5.807   4.546  15.782  0.00  0.00    +0.000 C 
BRANCH  16  17
ATOM     17  C   UNL     1       7.105   5.213  16.237  0.00  0.00    +0.000 C 
BRANCH  17  19
ATOM     18  C   UNL     1       7.711   5.630  18.648  0.00  0.00    +0.000 C 
ATOM     19  C   UNL     1       7.624   4.595  17.536  0.00  0.00    +0.000 C 
ENDBRANCH  17  19
ENDBRANCH  16  17
ENDBRANCH   1  16
TORSDOF 4
ENDMDL
MODEL 4
REMARK VINA RESULT:      -7.2      2.631      6.055
REMARK  Name = 
REMARK  6 active torsions:
REMARK  status: ('A' for Active; 'I' for Inactive)
REMARK    1  A    between atoms: C_1  and  C_2
REMARK    2  A    between atoms: C_2  and  C_3
REMARK    3  A    between atoms: C_3  and  C_4
REMARK    4  A    between atoms: C_4  and  C_5
REMARK    5  A    between atoms: C_12  and  C_13
REMARK    6  A    between atoms: C_13  and  C_14
REMARK                            x       y       z     vdW  Elec       q    Type
REMARK                         _______ _______ _______ _____ _____    ______ ____
ROOT
ATOM      1  C   UNL     1       3.781   2.881  18.331  0.00  0.00    +0.000 A 
ATOM      2  N   UNL     1       4.120   2.950  17.090  0.00  0.00    +0.000 NA
ATOM      3  C   UNL     1       5.133   3.810  16.744  0.00  0.00    +0.000 A 
ATOM      4  O   UNL     1       5.484   3.760  15.370  0.00  0.00    +0.000 OA
ATOM      5  C   UNL     1       6.441   4.568  14.847  0.00  0.00    +0.000 A 
ATOM      6  O   UNL     1       6.760   4.546  13.664  0.00  0.00    +0.000 OA
ATOM      7  C   UNL     1       7.117   5.481  15.776  0.00  0.00    +0.000 A 
ATOM      8  C   UNL     1       6.813   5.537  17.085  0.00  0.00    +0.000 A 
ATOM      9  C   UNL     1       5.761   4.656  17.586  0.00  0.00    +0.000 A 
ATOM     10  C   UNL     1       5.292   4.607  19.000  0.00  0.00    +0.000 A 
ATOM     11  O   UNL     1       5.657   5.390  19.866  0.00  0.00    +0.000 OA
ATOM     12  N   UNL     1       4.378   3.632  19.296  0.00  0.00    +0.000 N 
ATOM     13  H   UNL     1       4.063   3.602  20.254  0.00  0.00    +0.000 HD
ENDROOT
BRANCH   8  14
ATOM     14  C   UNL     1       7.645   6.434  17.979  0.00  0.00    +0.000 C 
ATOM     15  C   UNL     1       7.699   7.890  17.533  0.00  0.00    +0.000 C 
ENDBRANCH   8  14
BRANCH   1  16
ATOM     16  C   UNL     1       2.638   1.990  18.773  0.00  0.00    +0.000 C 
BRANCH  16  17
ATOM     17  C   UNL     1       1.302   2.733  18.804  0.00  0.00    +0.000 C 
BRANCH  17  19
ATOM     18  C   UNL     1       1.149   4.571  20.522  0.00  0.00    +0.000 C 
ATOM     19  C   UNL     1       0.900   3.098  20.234  0.00  0.00    +0.000 C 
ENDBRANCH  17  19
ENDBRANCH  16  17
ENDBRANCH   1  16
TORSDOF 4
ENDMDL
MODEL 5
REMARK VINA RESULT:      -7.2      2.301      2.844
REMARK  Name = 
REMARK  6 active torsions:
REMARK  status: ('A' for Active; 'I' for Inactive)
REMARK    1  A    between atoms: C_1  and  C_2
REMARK    2  A    between atoms: C_2  and  C_3
REMARK    3  A    between atoms: C_3  and  C_4
REMARK    4  A    between atoms: C_4  and  C_5
REMARK    5  A    between atoms: C_12  and  C_13
REMARK    6  A    between atoms: C_13  and  C_14
REMARK                            x       y       z     vdW  Elec       q    Type
REMARK                         _______ _______ _______ _____ _____    ______ ____
ROOT
ATOM      1  C   UNL     1       5.819   4.677  18.370  0.00  0.00    +0.000 A 
ATOM      2  N   UNL     1       5.091   5.690  18.694  0.00  0.00    +0.000 NA
ATOM      3  C   UNL     1       3.886   5.450  19.304  0.00  0.00    +0.000 A 
ATOM      4  O   UNL     1       3.192   6.627  19.688  0.00  0.00    +0.000 OA
ATOM      5  C   UNL     1       1.968   6.578  20.273  0.00  0.00    +0.000 A 
ATOM      6  O   UNL     1       1.349   7.580  20.611  0.00  0.00    +0.000 OA
ATOM      7  C   UNL     1       1.403   5.245  20.514  0.00  0.00    +0.000 A 
ATOM      8  C   UNL     1       2.046   4.114  20.172  0.00  0.00    +0.000 A 
ATOM      9  C   UNL     1       3.353   4.232  19.529  0.00  0.00    +0.000 A 
ATOM     10  C   UNL     1       4.184   3.082  19.073  0.00  0.00    +0.000 A 
ATOM     11  O   UNL     1       3.802   1.920  19.079  0.00  0.00    +0.000 OA
ATOM     12  N   UNL     1       5.431   3.394  18.600  0.00  0.00    +0.000 N 
ATOM     13  H   UNL     1       5.990   2.613  18.291  0.00  0.00    +0.000 HD
ENDROOT
BRANCH   8  14
ATOM     14  C   UNL     1       1.427   2.789  20.563  0.00  0.00    +0.000 C 
ATOM     15  C   UNL     1       1.521   2.465  22.050  0.00  0.00    +0.000 C 
ENDBRANCH   8  14
BRANCH   1  16
ATOM     16  C   UNL     1       7.138   4.870  17.649  0.00  0.00    +0.000 C 
BRANCH  16  17
ATOM     17  C   UNL     1       7.317   6.300  17.140  0.00  0.00    +0.000 C 
BRANCH  17  19
ATOM     18  C   UNL     1       7.984   8.649  17.766  0.00  0.00    +0.000 C 
ATOM     19  C   UNL     1       7.973   7.190  18.197  0.00  0.00    +0.000 C 
ENDBRANCH  17  19
ENDBRANCH  16  17
ENDBRANCH   1  16
TORSDOF 4
ENDMDL
MODEL 6
REMARK VINA RESULT:      -7.1      2.769      3.996
REMARK  Name = 
REMARK  6 active torsions:
REMARK  status: ('A' for Active; 'I' for Inactive)
REMARK    1  A    between atoms: C_1  and  C_2
REMARK    2  A    between atoms: C_2  and  C_3
REMARK    3  A    between atoms: C_3  and  C_4
REMARK    4  A    between atoms: C_4  and  C_5
REMARK    5  A    between atoms: C_12  and  C_13
REMARK    6  A    between atoms: C_13  and  C_14
REMARK                            x       y       z     vdW  Elec       q    Type
REMARK                         _______ _______ _______ _____ _____    ______ ____
ROOT
ATOM      1  C   UNL     1       6.601   4.224  14.143  0.00  0.00    +0.000 A 
ATOM      2  N   UNL     1       7.185   5.268  14.621  0.00  0.00    +0.000 NA
ATOM      3  C   UNL     1       6.990   5.567  15.947  0.00  0.00    +0.000 A 
ATOM      4  O   UNL     1       7.731   6.689  16.398  0.00  0.00    +0.000 OA
ATOM      5  C   UNL     1       7.632   7.148  17.672  0.00  0.00    +0.000 A 
ATOM      6  O   UNL     1       8.259   8.116  18.084  0.00  0.00    +0.000 OA
ATOM      7  C   UNL     1       6.738   6.410  18.572  0.00  0.00    +0.000 A 
ATOM      8  C   UNL     1       6.035   5.335  18.174  0.00  0.00    +0.000 A 
ATOM      9  C   UNL     1       6.170   4.901  16.785  0.00  0.00    +0.000 A 
ATOM     10  C   UNL     1       5.450   3.744  16.181  0.00  0.00    +0.000 A 
ATOM     11  O   UNL     1       4.574   3.112  16.755  0.00  0.00    +0.000 OA
ATOM     12  N   UNL     1       5.798   3.425  14.896  0.00  0.00    +0.000 N 
ATOM     13  H   UNL     1       5.308   2.642  14.490  0.00  0.00    +0.000 HD
ENDROOT
BRANCH   8  14
ATOM     14  C   UNL     1       5.227   4.580  19.208  0.00  0.00    +0.000 C 
ATOM     15  C   UNL     1       3.890   5.225  19.555  0.00  0.00    +0.000 C 
ENDBRANCH   8  14
BRANCH   1  16
ATOM     16  C   UNL     1       6.735   3.866  12.676  0.00  0.00    +0.000 C 
BRANCH  16  17
ATOM     17  C   UNL     1       5.458   3.242  12.113  0.00  0.00    +0.000 C 
BRANCH  17  19
ATOM     18  C   UNL     1       7.211   1.762  11.070  0.00  0.00    +0.000 C 
ATOM     19  C   UNL     1       5.743   1.897  11.443  0.00  0.00    +0.000 C 
ENDBRANCH  17  19
ENDBRANCH  16  17
ENDBRANCH   1  16
TORSDOF 4
ENDMDL
MODEL 7
REMARK VINA RESULT:      -7.1      2.475      6.153
REMARK  Name = 
REMARK  6 active torsions:
REMARK  status: ('A' for Active; 'I' for Inactive)
REMARK    1  A    between atoms: C_1  and  C_2
REMARK    2  A    between atoms: C_2  and  C_3
REMARK    3  A    between atoms: C_3  and  C_4
REMARK    4  A    between atoms: C_4  and  C_5
REMARK    5  A    between atoms: C_12  and  C_13
REMARK    6  A    between atoms: C_13  and  C_14
REMARK                            x       y       z     vdW  Elec       q    Type
REMARK                         _______ _______ _______ _____ _____    ______ ____
ROOT
ATOM      1  C   UNL     1       2.836   3.858  18.105  0.00  0.00    +0.000 A 
ATOM      2  N   UNL     1       3.284   3.711  16.906  0.00  0.00    +0.000 NA
ATOM      3  C   UNL     1       4.548   4.169  16.628  0.00  0.00    +0.000 A 
ATOM      4  O   UNL     1       4.979   3.894  15.304  0.00  0.00    +0.000 OA
ATOM      5  C   UNL     1       6.189   4.306  14.846  0.00  0.00    +0.000 A 
ATOM      6  O   UNL     1       6.582   4.084  13.707  0.00  0.00    +0.000 OA
ATOM      7  C   UNL     1       7.044   5.029  15.794  0.00  0.00    +0.000 A 
ATOM      8  C   UNL     1       6.665   5.290  17.058  0.00  0.00    +0.000 A 
ATOM      9  C   UNL     1       5.344   4.837  17.487  0.00  0.00    +0.000 A 
ATOM     10  C   UNL     1       4.766   5.059  18.843  0.00  0.00    +0.000 A 
ATOM     11  O   UNL     1       5.292   5.755  19.702  0.00  0.00    +0.000 OA
ATOM     12  N   UNL     1       3.562   4.457  19.089  0.00  0.00    +0.000 N 
ATOM     13  H   UNL     1       3.173   4.610  20.007  0.00  0.00    +0.000 HD
ENDROOT
BRANCH   8  14
ATOM     14  C   UNL     1       7.664   5.945  17.989  0.00  0.00    +0.000 C 
ATOM     15  C   UNL     1       7.768   7.458  17.835  0.00  0.00    +0.000 C 
ENDBRANCH   8  14
BRANCH   1  16
ATOM     16  C   UNL     1       1.432   3.421  18.467  0.00  0.00    +0.000 C 
BRANCH  16  17
ATOM     17  C   UNL     1       1.032   3.860  19.876  0.00  0.00    +0.000 C 
BRANCH  17  19
ATOM     18  C   UNL     1       2.257   2.861  21.839  0.00  0.00    +0.000 C 
ATOM     19  C   UNL     1       1.101   2.694  20.864  0.00  0.00    +0.000 C 
ENDBRANCH  17  19
ENDBRANCH  16  17
ENDBRANCH   1  16
TORSDOF 4
ENDMDL
MODEL 8
REMARK VINA RESULT:      -7.1      1.120      1.304
REMARK  Name = 
REMARK  6 active torsions:
REMARK  status: ('A' for Active; 'I' for Inactive)
REMARK    1  A    between atoms: C_1  and  C_2
REMARK    2  A    between atoms: C_2  and  C_3
REMARK    3  A    between atoms: C_3  and  C_4
REMARK    4  A    between atoms: C_4  and  C_5
REMARK    5  A    between atoms: C_12  and  C_13
REMARK    6  A    between atoms: C_13  and  C_14
REMARK                            x       y       z     vdW  Elec       q    Type
REMARK                         _______ _______ _______ _____ _____    ______ ____
ROOT
ATOM      1  C   UNL     1       5.439   4.599  16.387  0.00  0.00    +0.000 A 
ATOM      2  N   UNL     1       4.839   5.738  16.450  0.00  0.00    +0.000 NA
ATOM      3  C   UNL     1       4.012   5.974  17.519  0.00  0.00    +0.000 A 
ATOM      4  O   UNL     1       3.458   7.280  17.539  0.00  0.00    +0.000 OA
ATOM      5  C   UNL     1       2.589   7.675  18.505  0.00  0.00    +0.000 A 
ATOM      6  O   UNL     1       2.095   8.796  18.541  0.00  0.00    +0.000 OA
ATOM      7  C   UNL     1       2.268   6.693  19.547  0.00  0.00    +0.000 A 
ATOM      8  C   UNL     1       2.791   5.454  19.559  0.00  0.00    +0.000 A 
ATOM      9  C   UNL     1       3.705   5.081  18.482  0.00  0.00    +0.000 A 
ATOM     10  C   UNL     1       4.354   3.747  18.339  0.00  0.00    +0.000 A 
ATOM     11  O   UNL     1       4.091   2.782  19.043  0.00  0.00    +0.000 OA
ATOM     12  N   UNL     1       5.270   3.631  17.328  0.00  0.00    +0.000 N 
ATOM     13  H   UNL     1       5.707   2.726  17.234  0.00  0.00    +0.000 HD
ENDROOT
BRANCH   8  14
ATOM     14  C   UNL     1       2.482   4.554  20.738  0.00  0.00    +0.000 C 
ATOM     15  C   UNL     1       1.121   3.870  20.667  0.00  0.00    +0.000 C 
ENDBRANCH   8  14
BRANCH   1  16
ATOM     16  C   UNL     1       6.326   4.255  15.209  0.00  0.00    +0.000 C 
BRANCH  16  17
ATOM     17  C   UNL     1       5.537   4.124  13.906  0.00  0.00    +0.000 C 
BRANCH  17  19
ATOM     18  C   UNL     1       5.613   2.784  11.773  0.00  0.00    +0.000 C 
ATOM     19  C   UNL     1       6.418   3.604  12.769  0.00  0.00    +0.000 C 
ENDBRANCH  17  19
ENDBRANCH  16  17
ENDBRANCH   1  16
TORSDOF 4
ENDMDL
MODEL 9
REMARK VINA RESULT:      -7.1      2.785      3.994
REMARK  Name = 
REMARK  6 active torsions:
REMARK  status: ('A' for Active; 'I' for Inactive)
REMARK    1  A    between atoms: C_1  and  C_2
REMARK    2  A    between atoms: C_2  and  C_3
REMARK    3  A    between atoms: C_3  and  C_4
REMARK    4  A    between atoms: C_4  and  C_5
REMARK    5  A    between atoms: C_12  and  C_13
REMARK    6  A    between atoms: C_13  and  C_14
REMARK                            x       y       z     vdW  Elec       q    Type
REMARK                         _______ _______ _______ _____ _____    ______ ____
ROOT
ATOM      1  C   UNL     1       6.593   4.195  14.094  0.00  0.00    +0.000 A 
ATOM      2  N   UNL     1       7.166   5.247  14.567  0.00  0.00    +0.000 NA
ATOM      3  C   UNL     1       6.972   5.549  15.892  0.00  0.00    +0.000 A 
ATOM      4  O   UNL     1       7.702   6.681  16.336  0.00  0.00    +0.000 OA
ATOM      5  C   UNL     1       7.603   7.143  17.608  0.00  0.00    +0.000 A 
ATOM      6  O   UNL     1       8.220   8.120  18.015  0.00  0.00    +0.000 OA
ATOM      7  C   UNL     1       6.721   6.398  18.515  0.00  0.00    +0.000 A 
ATOM      8  C   UNL     1       6.029   5.314  18.123  0.00  0.00    +0.000 A 
ATOM      9  C   UNL     1       6.164   4.876  16.735  0.00  0.00    +0.000 A 
ATOM     10  C   UNL     1       5.455   3.709  16.138  0.00  0.00    +0.000 A 
ATOM     11  O   UNL     1       4.589   3.068  16.718  0.00  0.00    +0.000 OA
ATOM     12  N   UNL     1       5.802   3.388  14.853  0.00  0.00    +0.000 N 
ATOM     13  H   UNL     1       5.319   2.599  14.452  0.00  0.00    +0.000 HD
ENDROOT
BRANCH   8  14
ATOM     14  C   UNL     1       5.234   4.553  19.163  0.00  0.00    +0.000 C 
ATOM     15  C   UNL     1       3.888   5.180  19.509  0.00  0.00    +0.000 C 
ENDBRANCH   8  14
BRANCH   1  16
ATOM     16  C   UNL     1       6.724   3.833  12.629  0.00  0.00    +0.000 C 
BRANCH  16  17
ATOM     17  C   UNL     1       5.561   2.972  12.137  0.00  0.00    +0.000 C 
BRANCH  17  19
ATOM     18  C   UNL     1       3.466   3.006  10.735  0.00  0.00    +0.000 C 
ATOM     19  C   UNL     1       4.430   3.833  11.571  0.00  0.00    +0.000 C 
ENDBRANCH  17  19
ENDBRANCH  16  17
ENDBRANCH   1  16
TORSDOF 4
ENDMDL
