MODEL 1
REMARK VINA RESULT:      -9.1      0.000      0.000
REMARK  Name = 
REMARK  6 active torsions:
REMARK  status: ('A' for Active; 'I' for Inactive)
REMARK    1  A    between atoms: C_1  and  C_2
REMARK    2  A    between atoms: C_2  and  C_3
REMARK    3  A    between atoms: C_2  and  N_4
REMARK    4  A    between atoms: C_9  and  C_10
REMARK    5  A    between atoms: C_13  and  S_14
REMARK    6  A    between atoms: S_14  and  C_15
REMARK                            x       y       z     vdW  Elec       q    Type
REMARK                         _______ _______ _______ _____ _____    ______ ____
ROOT
ATOM      1  C   UNL     1       7.862   8.108  17.760  0.00  0.00    +0.000 A 
ATOM      2  C   UNL     1       8.270   7.406  18.886  0.00  0.00    +0.000 A 
ATOM      3  C   UNL     1       7.987   6.034  18.668  0.00  0.00    +0.000 A 
ATOM      4  C   UNL     1       7.417   5.943  17.417  0.00  0.00    +0.000 A 
ATOM      5  O   UNL     1       7.324   7.195  16.882  0.00  0.00    +0.000 OA
ENDROOT
BRANCH   1  11
ATOM      6  N   UNL     1       9.507  12.269  19.140  0.00  0.00    +0.000 N 
ATOM      7  C   UNL     1       9.920  11.209  19.929  0.00  0.00    +0.000 C 
ATOM      8  O   UNL     1      10.616  11.245  20.931  0.00  0.00    +0.000 OA
ATOM      9  N   UNL     1       9.388  10.051  19.389  0.00  0.00    +0.000 N 
ATOM     10  C   UNL     1       8.656  10.339  18.276  0.00  0.00    +0.000 C 
ATOM     11  C   UNL     1       7.966   9.505  17.494  0.00  0.00    +0.000 C 
ATOM     12  C   UNL     1       8.743  11.819  18.087  0.00  0.00    +0.000 C 
ATOM     13  O   UNL     1       8.221  12.451  17.186  0.00  0.00    +0.000 OA
ATOM     14  H   UNL     1       9.514   9.124  19.776  0.00  0.00    +0.000 HD
BRANCH   6  16
ATOM     15  C   UNL     1       9.294  14.136  20.754  0.00  0.00    +0.000 C 
ATOM     16  C   UNL     1       9.799  13.678  19.385  0.00  0.00    +0.000 C 
ATOM     17  C   UNL     1      11.285  13.999  19.227  0.00  0.00    +0.000 C 
ENDBRANCH   6  16
ENDBRANCH   1  11
BRANCH   4  18
ATOM     18  S   UNL     1       6.800   4.556  16.556  0.00  0.00    +0.000 S 
BRANCH  18  19
ATOM     19  C   UNL     1       5.328   4.326  17.427  0.00  0.00    +0.000 A 
ATOM     20  N   UNL     1       4.114   4.680  17.081  0.00  0.00    +0.000 NA
ATOM     21  C   UNL     1       3.312   4.244  18.105  0.00  0.00    +0.000 A 
ATOM     22  C   UNL     1       1.925   4.374  18.267  0.00  0.00    +0.000 A 
ATOM     23  C   UNL     1       1.329   3.836  19.416  0.00  0.00    +0.000 A 
ATOM     24  C   UNL     1       2.102   3.180  20.375  0.00  0.00    +0.000 A 
ATOM     25 CL   UNL     1       1.331   2.525  21.772  0.00  0.00    +0.000 Cl
ATOM     26  C   UNL     1       3.489   3.039  20.236  0.00  0.00    +0.000 A 
ATOM     27  C   UNL     1       4.057   3.590  19.083  0.00  0.00    +0.000 A 
ATOM     28  N   UNL     1       5.347   3.655  18.618  0.00  0.00    +0.000 N 
ATOM     29  H   UNL     1       6.172   3.289  19.070  0.00  0.00    +0.000 HD
ENDBRANCH  18  19
ENDBRANCH   4  18
TORSDOF 4
ENDMDL
MODEL 2
REMARK VINA RESULT:      -8.6      6.941     10.017
REMARK  Name = 
REMARK  6 active torsions:
REMARK  status: ('A' for Active; 'I' for Inactive)
REMARK    1  A    between atoms: C_1  and  C_2
REMARK    2  A    between atoms: C_2  and  C_3
REMARK    3  A    between atoms: C_2  and  N_4
REMARK    4  A    between atoms: C_9  and  C_10
REMARK    5  A    between atoms: C_13  and  S_14
REMARK    6  A    between atoms: S_14  and  C_15
REMARK                            x       y       z     vdW  Elec       q    Type
REMARK                         _______ _______ _______ _____ _____    ______ ____
ROOT
ATOM      1  C   UNL     1       1.514   8.546  20.380  0.00  0.00    +0.000 A 
ATOM      2  C   UNL     1       1.163   8.360  21.711  0.00  0.00    +0.000 A 
ATOM      3  C   UNL     1       0.496   9.531  22.151  0.00  0.00    +0.000 A 
ATOM      4  C   UNL     1       0.460  10.392  21.076  0.00  0.00    +0.000 A 
ATOM      5  O   UNL     1       1.091   9.805  20.019  0.00  0.00    +0.000 OA
ENDROOT
BRANCH   1  11
ATOM      6  N   UNL     1       2.920   4.154  19.571  0.00  0.00    +0.000 N 
ATOM      7  C   UNL     1       2.168   4.302  20.723  0.00  0.00    +0.000 C 
ATOM      8  O   UNL     1       1.870   3.447  21.540  0.00  0.00    +0.000 OA
ATOM      9  N   UNL     1       1.799   5.633  20.816  0.00  0.00    +0.000 N 
ATOM     10  C   UNL     1       2.286   6.336  19.754  0.00  0.00    +0.000 C 
ATOM     11  C   UNL     1       2.173   7.641  19.497  0.00  0.00    +0.000 C 
ATOM     12  C   UNL     1       3.023   5.354  18.902  0.00  0.00    +0.000 C 
ATOM     13  O   UNL     1       3.591   5.608  17.855  0.00  0.00    +0.000 OA
ATOM     14  H   UNL     1       1.257   6.029  21.573  0.00  0.00    +0.000 HD
BRANCH   6  16
ATOM     15  C   UNL     1       4.532   2.367  20.157  0.00  0.00    +0.000 C 
ATOM     16  C   UNL     1       3.554   2.919  19.120  0.00  0.00    +0.000 C 
ATOM     17  C   UNL     1       2.533   1.853  18.725  0.00  0.00    +0.000 C 
ENDBRANCH   6  16
ENDBRANCH   1  11
BRANCH   4  18
ATOM     18  S   UNL     1      -0.178  12.012  20.948  0.00  0.00    +0.000 S 
BRANCH  18  19
ATOM     19  C   UNL     1      -1.347  11.746  19.706  0.00  0.00    +0.000 A 
ATOM     20  N   UNL     1      -2.606  12.113  19.682  0.00  0.00    +0.000 NA
ATOM     21  C   UNL     1      -3.077  11.682  18.467  0.00  0.00    +0.000 A 
ATOM     22  C   UNL     1      -4.365  11.790  17.923  0.00  0.00    +0.000 A 
ATOM     23  C   UNL     1      -4.601  11.265  16.645  0.00  0.00    +0.000 A 
ATOM     24  C   UNL     1      -3.571  10.654  15.928  0.00  0.00    +0.000 A 
ATOM     25 CL   UNL     1      -3.899  10.027  14.355  0.00  0.00    +0.000 Cl
ATOM     26  C   UNL     1      -2.276  10.534  16.451  0.00  0.00    +0.000 A 
ATOM     27  C   UNL     1      -2.072  11.061  17.730  0.00  0.00    +0.000 A 
ATOM     28  N   UNL     1      -0.972  11.121  18.549  0.00  0.00    +0.000 N 
ATOM     29  H   UNL     1      -0.051  10.760  18.352  0.00  0.00    +0.000 HD
ENDBRANCH  18  19
ENDBRANCH   4  18
TORSDOF 4
ENDMDL
MODEL 3
REMARK VINA RESULT:      -8.6      6.288      8.936
REMARK  Name = 
REMARK  6 active torsions:
REMARK  status: ('A' for Active; 'I' for Inactive)
REMARK    1  A    between atoms: C_1  and  C_2
REMARK    2  A    between atoms: C_2  and  C_3
REMARK    3  A    between atoms: C_2  and  N_4
REMARK    4  A    between atoms: C_9  and  C_10
REMARK    5  A    between atoms: C_13  and  S_14
REMARK    6  A    between atoms: S_14  and  C_15
REMARK                            x       y       z     vdW  Elec       q    Type
REMARK                         _______ _______ _______ _____ _____    ______ ____
ROOT
ATOM      1  C   UNL     1       2.281   8.165  18.965  0.00  0.00    +0.000 A 
ATOM      2  C   UNL     1       1.919   7.392  20.061  0.00  0.00    +0.000 A 
ATOM      3  C   UNL     1       1.068   8.175  20.880  0.00  0.00    +0.000 A 
ATOM      4  C   UNL     1       0.937   9.398  20.260  0.00  0.00    +0.000 A 
ATOM      5  O   UNL     1       1.684   9.395  19.119  0.00  0.00    +0.000 OA
ENDROOT
BRANCH   1  11
ATOM      6  N   UNL     1       5.000   4.926  16.955  0.00  0.00    +0.000 N 
ATOM      7  C   UNL     1       4.388   4.503  18.122  0.00  0.00    +0.000 C 
ATOM      8  O   UNL     1       4.502   3.425  18.682  0.00  0.00    +0.000 OA
ATOM      9  N   UNL     1       3.599   5.543  18.583  0.00  0.00    +0.000 N 
ATOM     10  C   UNL     1       3.683   6.612  17.741  0.00  0.00    +0.000 C 
ATOM     11  C   UNL     1       3.098   7.807  17.852  0.00  0.00    +0.000 C 
ATOM     12  C   UNL     1       4.603   6.206  16.636  0.00  0.00    +0.000 C 
ATOM     13  O   UNL     1       4.918   6.898  15.685  0.00  0.00    +0.000 OA
ATOM     14  H   UNL     1       3.050   5.516  19.433  0.00  0.00    +0.000 HD
BRANCH   6  16
ATOM     15  C   UNL     1       5.603   4.151  14.681  0.00  0.00    +0.000 C 
ATOM     16  C   UNL     1       5.959   4.157  16.168  0.00  0.00    +0.000 C 
ATOM     17  C   UNL     1       7.395   4.635  16.374  0.00  0.00    +0.000 C 
ENDBRANCH   6  16
ENDBRANCH   1  11
BRANCH   4  18
ATOM     18  S   UNL     1       0.065  10.826  20.753  0.00  0.00    +0.000 S 
BRANCH  18  19
ATOM     19  C   UNL     1      -1.117  10.872  19.495  0.00  0.00    +0.000 A 
ATOM     20  N   UNL     1      -2.253  11.527  19.471  0.00  0.00    +0.000 NA
ATOM     21  C   UNL     1      -2.796  11.247  18.242  0.00  0.00    +0.000 A 
ATOM     22  C   UNL     1      -4.015  11.668  17.690  0.00  0.00    +0.000 A 
ATOM     23  C   UNL     1      -4.350  11.242  16.398  0.00  0.00    +0.000 A 
ATOM     24  C   UNL     1      -3.484  10.420  15.674  0.00  0.00    +0.000 A 
ATOM     25 CL   UNL     1      -3.929   9.924  14.084  0.00  0.00    +0.000 Cl
ATOM     26  C   UNL     1      -2.262   9.986  16.205  0.00  0.00    +0.000 A 
ATOM     27  C   UNL     1      -1.957  10.422  17.498  0.00  0.00    +0.000 A 
ATOM     28  N   UNL     1      -0.885  10.202  18.327  0.00  0.00    +0.000 N 
ATOM     29  H   UNL     1      -0.072   9.638  18.128  0.00  0.00    +0.000 HD
ENDBRANCH  18  19
ENDBRANCH   4  18
TORSDOF 4
ENDMDL
MODEL 4
REMARK VINA RESULT:      -8.5      5.647      7.352
REMARK  Name = 
REMARK  6 active torsions:
REMARK  status: ('A' for Active; 'I' for Inactive)
REMARK    1  A    between atoms: C_1  and  C_2
REMARK    2  A    between atoms: C_2  and  C_3
REMARK    3  A    between atoms: C_2  and  N_4
REMARK    4  A    between atoms: C_9  and  C_10
REMARK    5  A    between atoms: C_13  and  S_14
REMARK    6  A    between atoms: S_14  and  C_15
REMARK                            x       y       z     vdW  Elec       q    Type
REMARK                         _______ _______ _______ _____ _____    ______ ____
ROOT
ATOM      1  C   UNL     1       3.695   5.398  19.606  0.00  0.00    +0.000 A 
ATOM      2  C   UNL     1       3.689   4.041  19.308  0.00  0.00    +0.000 A 
ATOM      3  C   UNL     1       4.946   3.717  18.739  0.00  0.00    +0.000 A 
ATOM      4  C   UNL     1       5.679   4.883  18.709  0.00  0.00    +0.000 A 
ATOM      5  O   UNL     1       4.916   5.896  19.212  0.00  0.00    +0.000 OA
ENDROOT
BRANCH   1  11
ATOM      6  N   UNL     1       1.071   9.271  19.435  0.00  0.00    +0.000 N 
ATOM      7  C   UNL     1       1.883   9.091  18.329  0.00  0.00    +0.000 C 
ATOM      8  O   UNL     1       2.008   9.825  17.362  0.00  0.00    +0.000 OA
ATOM      9  N   UNL     1       2.570   7.902  18.502  0.00  0.00    +0.000 N 
ATOM     10  C   UNL     1       2.215   7.315  19.679  0.00  0.00    +0.000 C 
ATOM     11  C   UNL     1       2.673   6.181  20.217  0.00  0.00    +0.000 C 
ATOM     12  C   UNL     1       1.198   8.212  20.307  0.00  0.00    +0.000 C 
ATOM     13  O   UNL     1       0.637   8.015  21.370  0.00  0.00    +0.000 OA
ATOM     14  H   UNL     1       3.250   7.530  17.851  0.00  0.00    +0.000 HD
BRANCH   6  16
ATOM     15  C   UNL     1       1.016  11.727  19.756  0.00  0.00    +0.000 C 
ATOM     16  C   UNL     1       0.214  10.427  19.685  0.00  0.00    +0.000 C 
ATOM     17  C   UNL     1      -0.912  10.547  18.660  0.00  0.00    +0.000 C 
ENDBRANCH   6  16
ENDBRANCH   1  11
BRANCH   4  18
ATOM     18  S   UNL     1       7.285   5.192  18.100  0.00  0.00    +0.000 S 
BRANCH  18  19
ATOM     19  C   UNL     1       7.002   4.893  16.423  0.00  0.00    +0.000 A 
ATOM     20  N   UNL     1       7.784   5.165  15.406  0.00  0.00    +0.000 NA
ATOM     21  C   UNL     1       7.105   4.704  14.306  0.00  0.00    +0.000 A 
ATOM     22  C   UNL     1       7.467   4.753  12.951  0.00  0.00    +0.000 A 
ATOM     23  C   UNL     1       6.593   4.206  12.002  0.00  0.00    +0.000 A 
ATOM     24  C   UNL     1       5.390   3.620  12.399  0.00  0.00    +0.000 A 
ATOM     25 CL   UNL     1       4.345   2.952  11.202  0.00  0.00    +0.000 Cl
ATOM     26  C   UNL     1       5.006   3.561  13.746  0.00  0.00    +0.000 A 
ATOM     27  C   UNL     1       5.895   4.119  14.669  0.00  0.00    +0.000 A 
ATOM     28  N   UNL     1       5.859   4.252  16.036  0.00  0.00    +0.000 N 
ATOM     29  H   UNL     1       5.121   3.947  16.654  0.00  0.00    +0.000 HD
ENDBRANCH  18  19
ENDBRANCH   4  18
TORSDOF 4
ENDMDL
MODEL 5
REMARK VINA RESULT:      -8.5      6.725      8.251
REMARK  Name = 
REMARK  6 active torsions:
REMARK  status: ('A' for Active; 'I' for Inactive)
REMARK    1  A    between atoms: C_1  and  C_2
REMARK    2  A    between atoms: C_2  and  C_3
REMARK    3  A    between atoms: C_2  and  N_4
REMARK    4  A    between atoms: C_9  and  C_10
REMARK    5  A    between atoms: C_13  and  S_14
REMARK    6  A    between atoms: S_14  and  C_15
REMARK                            x       y       z     vdW  Elec       q    Type
REMARK                         _______ _______ _______ _____ _____    ______ ____
ROOT
ATOM      1  C   UNL     1       1.264   9.572  18.922  0.00  0.00    +0.000 A 
ATOM      2  C   UNL     1       1.962   9.404  17.733  0.00  0.00    +0.000 A 
ATOM      3  C   UNL     1       2.615   8.147  17.790  0.00  0.00    +0.000 A 
ATOM      4  C   UNL     1       2.295   7.589  19.008  0.00  0.00    +0.000 A 
ATOM      5  O   UNL     1       1.499   8.458  19.695  0.00  0.00    +0.000 OA
ENDROOT
BRANCH   1  11
ATOM      6  N   UNL     1      -1.176  11.609  22.360  0.00  0.00    +0.000 N 
ATOM      7  C   UNL     1      -0.455  10.498  22.762  0.00  0.00    +0.000 C 
ATOM      8  O   UNL     1      -0.414   9.990  23.871  0.00  0.00    +0.000 OA
ATOM      9  N   UNL     1       0.235  10.024  21.659  0.00  0.00    +0.000 N 
ATOM     10  C   UNL     1      -0.018  10.803  20.570  0.00  0.00    +0.000 C 
ATOM     11  C   UNL     1       0.432  10.660  19.321  0.00  0.00    +0.000 C 
ATOM     12  C   UNL     1      -0.946  11.880  21.029  0.00  0.00    +0.000 C 
ATOM     13  O   UNL     1      -1.391  12.777  20.336  0.00  0.00    +0.000 OA
ATOM     14  H   UNL     1       0.830   9.205  21.661  0.00  0.00    +0.000 HD
BRANCH   6  16
ATOM     15  C   UNL     1      -1.518  13.767  23.526  0.00  0.00    +0.000 C 
ATOM     16  C   UNL     1      -2.084  12.385  23.200  0.00  0.00    +0.000 C 
ATOM     17  C   UNL     1      -3.478  12.507  22.588  0.00  0.00    +0.000 C 
ENDBRANCH   6  16
ENDBRANCH   1  11
BRANCH   4  18
ATOM     18  S   UNL     1       2.797   6.080  19.726  0.00  0.00    +0.000 S 
BRANCH  18  19
ATOM     19  C   UNL     1       3.991   5.612  18.569  0.00  0.00    +0.000 A 
ATOM     20  N   UNL     1       5.289   5.523  18.732  0.00  0.00    +0.000 NA
ATOM     21  C   UNL     1       5.768   5.087  17.522  0.00  0.00    +0.000 A 
ATOM     22  C   UNL     1       7.090   4.839  17.124  0.00  0.00    +0.000 A 
ATOM     23  C   UNL     1       7.326   4.393  15.817  0.00  0.00    +0.000 A 
ATOM     24  C   UNL     1       6.265   4.195  14.932  0.00  0.00    +0.000 A 
ATOM     25 CL   UNL     1       6.596   3.637  13.334  0.00  0.00    +0.000 Cl
ATOM     26  C   UNL     1       4.936   4.436  15.306  0.00  0.00    +0.000 A 
ATOM     27  C   UNL     1       4.732   4.886  16.614  0.00  0.00    +0.000 A 
ATOM     28  N   UNL     1       3.602   5.228  17.316  0.00  0.00    +0.000 N 
ATOM     29  H   UNL     1       2.652   5.215  16.977  0.00  0.00    +0.000 HD
ENDBRANCH  18  19
ENDBRANCH   4  18
TORSDOF 4
ENDMDL
MODEL 6
REMARK VINA RESULT:      -8.4      4.248      9.270
REMARK  Name = 
REMARK  6 active torsions:
REMARK  status: ('A' for Active; 'I' for Inactive)
REMARK    1  A    between atoms: C_1  and  C_2
REMARK    2  A    between atoms: C_2  and  C_3
REMARK    3  A    between atoms: C_2  and  N_4
REMARK    4  A    between atoms: C_9  and  C_10
REMARK    5  A    between atoms: C_13  and  S_14
REMARK    6  A    between atoms: S_14  and  C_15
REMARK                            x       y       z     vdW  Elec       q    Type
REMARK                         _______ _______ _______ _____ _____    ______ ____
ROOT
ATOM      1  C   UNL     1       8.725  10.127  18.207  0.00  0.00    +0.000 A 
ATOM      2  C   UNL     1       9.401   9.976  19.411  0.00  0.00    +0.000 A 
ATOM      3  C   UNL     1      10.106  11.179  19.665  0.00  0.00    +0.000 A 
ATOM      4  C   UNL     1       9.837  12.025  18.612  0.00  0.00    +0.000 A 
ATOM      5  O   UNL     1       9.023  11.382  17.727  0.00  0.00    +0.000 OA
ENDROOT
BRANCH   1  11
ATOM      6  N   UNL     1       7.144   5.730  17.915  0.00  0.00    +0.000 N 
ATOM      7  C   UNL     1       8.006   5.950  18.975  0.00  0.00    +0.000 C 
ATOM      8  O   UNL     1       8.411   5.141  19.794  0.00  0.00    +0.000 OA
ATOM      9  N   UNL     1       8.364   7.287  18.954  0.00  0.00    +0.000 N 
ATOM     10  C   UNL     1       7.749   7.927  17.920  0.00  0.00    +0.000 C 
ATOM     11  C   UNL     1       7.859   9.205  17.548  0.00  0.00    +0.000 C 
ATOM     12  C   UNL     1       6.914   6.900  17.226  0.00  0.00    +0.000 C 
ATOM     13  O   UNL     1       6.208   7.099  16.254  0.00  0.00    +0.000 OA
ATOM     14  H   UNL     1       9.003   7.721  19.608  0.00  0.00    +0.000 HD
BRANCH   6  16
ATOM     15  C   UNL     1       5.098   4.333  17.948  0.00  0.00    +0.000 C 
ATOM     16  C   UNL     1       6.568   4.443  17.538  0.00  0.00    +0.000 C 
ATOM     17  C   UNL     1       6.732   4.147  16.048  0.00  0.00    +0.000 C 
ENDBRANCH   6  16
ENDBRANCH   1  11
BRANCH   4  18
ATOM     18  S   UNL     1      10.417  13.638  18.283  0.00  0.00    +0.000 S 
BRANCH  18  19
ATOM     19  C   UNL     1       8.926  14.497  18.425  0.00  0.00    +0.000 A 
ATOM     20  N   UNL     1       8.706  15.655  19.000  0.00  0.00    +0.000 NA
ATOM     21  C   UNL     1       7.368  15.895  18.812  0.00  0.00    +0.000 A 
ATOM     22  C   UNL     1       6.591  16.982  19.238  0.00  0.00    +0.000 A 
ATOM     23  C   UNL     1       5.227  16.999  18.916  0.00  0.00    +0.000 A 
ATOM     24  C   UNL     1       4.658  15.958  18.181  0.00  0.00    +0.000 A 
ATOM     25 CL   UNL     1       2.977  16.019  17.798  0.00  0.00    +0.000 Cl
ATOM     26  C   UNL     1       5.414  14.862  17.745  0.00  0.00    +0.000 A 
ATOM     27  C   UNL     1       6.770  14.869  18.086  0.00  0.00    +0.000 A 
ATOM     28  N   UNL     1       7.796  13.987  17.848  0.00  0.00    +0.000 N 
ATOM     29  H   UNL     1       7.738  13.111  17.351  0.00  0.00    +0.000 HD
ENDBRANCH  18  19
ENDBRANCH   4  18
TORSDOF 4
ENDMDL
MODEL 7
REMARK VINA RESULT:      -8.4      1.368      2.141
REMARK  Name = 
REMARK  6 active torsions:
REMARK  status: ('A' for Active; 'I' for Inactive)
REMARK    1  A    between atoms: C_1  and  C_2
REMARK    2  A    between atoms: C_2  and  C_3
REMARK    3  A    between atoms: C_2  and  N_4
REMARK    4  A    between atoms: C_9  and  C_10
REMARK    5  A    between atoms: C_13  and  S_14
REMARK    6  A    between atoms: S_14  and  C_15
REMARK                            x       y       z     vdW  Elec       q    Type
REMARK                         _______ _______ _______ _____ _____    ______ ____
ROOT
ATOM      1  C   UNL     1       8.165   7.760  18.482  0.00  0.00    +0.000 A 
ATOM      2  C   UNL     1       8.213   6.411  18.808  0.00  0.00    +0.000 A 
ATOM      3  C   UNL     1       7.174   5.758  18.098  0.00  0.00    +0.000 A 
ATOM      4  C   UNL     1       6.527   6.727  17.363  0.00  0.00    +0.000 A 
ATOM      5  O   UNL     1       7.113   7.933  17.612  0.00  0.00    +0.000 OA
ENDROOT
BRANCH   1  11
ATOM      6  N   UNL     1       9.283  12.299  18.202  0.00  0.00    +0.000 N 
ATOM      7  C   UNL     1       8.148  11.952  17.490  0.00  0.00    +0.000 C 
ATOM      8  O   UNL     1       7.449  12.672  16.795  0.00  0.00    +0.000 OA
ATOM      9  N   UNL     1       7.923  10.601  17.689  0.00  0.00    +0.000 N 
ATOM     10  C   UNL     1       8.875  10.078  18.512  0.00  0.00    +0.000 C 
ATOM     11  C   UNL     1       9.022   8.814  18.917  0.00  0.00    +0.000 C 
ATOM     12  C   UNL     1       9.782  11.207  18.878  0.00  0.00    +0.000 C 
ATOM     13  O   UNL     1      10.752  11.130  19.610  0.00  0.00    +0.000 OA
ATOM     14  H   UNL     1       7.167  10.076  17.270  0.00  0.00    +0.000 HD
BRANCH   6  16
ATOM     15  C   UNL     1      10.777  13.861  16.993  0.00  0.00    +0.000 C 
ATOM     16  C   UNL     1       9.905  13.619  18.225  0.00  0.00    +0.000 C 
ATOM     17  C   UNL     1       8.880  14.740  18.386  0.00  0.00    +0.000 C 
ENDBRANCH   6  16
ENDBRANCH   1  11
BRANCH   4  18
ATOM     18  S   UNL     1       5.142   6.607  16.308  0.00  0.00    +0.000 S 
BRANCH  18  19
ATOM     19  C   UNL     1       4.241   5.417  17.176  0.00  0.00    +0.000 A 
ATOM     20  N   UNL     1       3.890   4.216  16.782  0.00  0.00    +0.000 NA
ATOM     21  C   UNL     1       3.217   3.677  17.849  0.00  0.00    +0.000 A 
ATOM     22  C   UNL     1       2.605   2.421  17.972  0.00  0.00    +0.000 A 
ATOM     23  C   UNL     1       1.973   2.097  19.181  0.00  0.00    +0.000 A 
ATOM     24  C   UNL     1       1.960   3.006  20.241  0.00  0.00    +0.000 A 
ATOM     25 CL   UNL     1       1.180   2.567  21.714  0.00  0.00    +0.000 Cl
ATOM     26  C   UNL     1       2.565   4.266  20.141  0.00  0.00    +0.000 A 
ATOM     27  C   UNL     1       3.182   4.563  18.922  0.00  0.00    +0.000 A 
ATOM     28  N   UNL     1       3.851   5.670  18.461  0.00  0.00    +0.000 N 
ATOM     29  H   UNL     1       4.020   6.528  18.965  0.00  0.00    +0.000 HD
ENDBRANCH  18  19
ENDBRANCH   4  18
TORSDOF 4
ENDMDL
MODEL 8
REMARK VINA RESULT:      -8.4      6.728      9.306
REMARK  Name = 
REMARK  6 active torsions:
REMARK  status: ('A' for Active; 'I' for Inactive)
REMARK    1  A    between atoms: C_1  and  C_2
REMARK    2  A    between atoms: C_2  and  C_3
REMARK    3  A    between atoms: C_2  and  N_4
REMARK    4  A    between atoms: C_9  and  C_10
REMARK    5  A    between atoms: C_13  and  S_14
REMARK    6  A    between atoms: S_14  and  C_15
REMARK                            x       y       z     vdW  Elec       q    Type
REMARK                         _______ _______ _______ _____ _____    ______ ____
ROOT
ATOM      1  C   UNL     1       1.922   7.643  19.861  0.00  0.00    +0.000 A 
ATOM      2  C   UNL     1       1.093   7.985  20.921  0.00  0.00    +0.000 A 
ATOM      3  C   UNL     1       0.621   9.302  20.694  0.00  0.00    +0.000 A 
ATOM      4  C   UNL     1       1.175   9.720  19.504  0.00  0.00    +0.000 A 
ATOM      5  O   UNL     1       1.973   8.728  19.016  0.00  0.00    +0.000 OA
ENDROOT
BRANCH   1  11
ATOM      6  N   UNL     1       4.894   5.249  17.149  0.00  0.00    +0.000 N 
ATOM      7  C   UNL     1       4.746   6.576  16.788  0.00  0.00    +0.000 C 
ATOM      8  O   UNL     1       5.263   7.162  15.851  0.00  0.00    +0.000 OA
ATOM      9  N   UNL     1       3.871   7.161  17.687  0.00  0.00    +0.000 N 
ATOM     10  C   UNL     1       3.465   6.249  18.615  0.00  0.00    +0.000 C 
ATOM     11  C   UNL     1       2.607   6.414  19.625  0.00  0.00    +0.000 C 
ATOM     12  C   UNL     1       4.156   4.969  18.278  0.00  0.00    +0.000 C 
ATOM     13  O   UNL     1       4.050   3.921  18.890  0.00  0.00    +0.000 OA
ATOM     14  H   UNL     1       3.568   8.126  17.651  0.00  0.00    +0.000 HD
BRANCH   6  16
ATOM     15  C   UNL     1       5.364   4.232  14.939  0.00  0.00    +0.000 C 
ATOM     16  C   UNL     1       5.689   4.255  16.434  0.00  0.00    +0.000 C 
ATOM     17  C   UNL     1       7.188   4.442  16.654  0.00  0.00    +0.000 C 
ENDBRANCH   6  16
ENDBRANCH   1  11
BRANCH   4  18
ATOM     18  S   UNL     1       1.037  11.247  18.669  0.00  0.00    +0.000 S 
BRANCH  18  19
ATOM     19  C   UNL     1      -0.652  11.527  18.891  0.00  0.00    +0.000 A 
ATOM     20  N   UNL     1      -1.242  12.260  19.804  0.00  0.00    +0.000 NA
ATOM     21  C   UNL     1      -2.581  12.167  19.522  0.00  0.00    +0.000 A 
ATOM     22  C   UNL     1      -3.674  12.738  20.191  0.00  0.00    +0.000 A 
ATOM     23  C   UNL     1      -4.964  12.493  19.702  0.00  0.00    +0.000 A 
ATOM     24  C   UNL     1      -5.155  11.702  18.567  0.00  0.00    +0.000 A 
ATOM     25 CL   UNL     1      -6.758  11.432  17.991  0.00  0.00    +0.000 Cl
ATOM     26  C   UNL     1      -4.079  11.122  17.882  0.00  0.00    +0.000 A 
ATOM     27  C   UNL     1      -2.805  11.378  18.397  0.00  0.00    +0.000 A 
ATOM     28  N   UNL     1      -1.547  10.984  18.011  0.00  0.00    +0.000 N 
ATOM     29  H   UNL     1      -1.312  10.390  17.230  0.00  0.00    +0.000 HD
ENDBRANCH  18  19
ENDBRANCH   4  18
TORSDOF 4
ENDMDL
MODEL 9
REMARK VINA RESULT:      -8.4      6.209      9.000
REMARK  Name = 
REMARK  6 active torsions:
REMARK  status: ('A' for Active; 'I' for Inactive)
REMARK    1  A    between atoms: C_1  and  C_2
REMARK    2  A    between atoms: C_2  and  C_3
REMARK    3  A    between atoms: C_2  and  N_4
REMARK    4  A    between atoms: C_9  and  C_10
REMARK    5  A    between atoms: C_13  and  S_14
REMARK    6  A    between atoms: S_14  and  C_15
REMARK                            x       y       z     vdW  Elec       q    Type
REMARK                         _______ _______ _______ _____ _____    ______ ____
ROOT
ATOM      1  C   UNL     1       2.056   7.129  19.972  0.00  0.00    +0.000 A 
ATOM      2  C   UNL     1       1.176   7.309  21.031  0.00  0.00    +0.000 A 
ATOM      3  C   UNL     1       0.708   8.646  20.983  0.00  0.00    +0.000 A 
ATOM      4  C   UNL     1       1.315   9.239  19.898  0.00  0.00    +0.000 A 
ATOM      5  O   UNL     1       2.141   8.330  19.304  0.00  0.00    +0.000 OA
ENDROOT
BRANCH   1  11
ATOM      6  N   UNL     1       4.948   5.094  16.903  0.00  0.00    +0.000 N 
ATOM      7  C   UNL     1       4.751   6.446  16.681  0.00  0.00    +0.000 C 
ATOM      8  O   UNL     1       5.208   7.134  15.783  0.00  0.00    +0.000 OA
ATOM      9  N   UNL     1       3.907   6.916  17.673  0.00  0.00    +0.000 N 
ATOM     10  C   UNL     1       3.569   5.907  18.525  0.00  0.00    +0.000 C 
ATOM     11  C   UNL     1       2.757   5.949  19.585  0.00  0.00    +0.000 C 
ATOM     12  C   UNL     1       4.274   4.686  18.033  0.00  0.00    +0.000 C 
ATOM     13  O   UNL     1       4.222   3.581  18.544  0.00  0.00    +0.000 OA
ATOM     14  H   UNL     1       3.579   7.870  17.745  0.00  0.00    +0.000 HD
BRANCH   6  16
ATOM     15  C   UNL     1       5.380   4.356  14.579  0.00  0.00    +0.000 C 
ATOM     16  C   UNL     1       5.731   4.197  16.059  0.00  0.00    +0.000 C 
ATOM     17  C   UNL     1       7.234   4.360  16.274  0.00  0.00    +0.000 C 
ENDBRANCH   6  16
ENDBRANCH   1  11
BRANCH   4  18
ATOM     18  S   UNL     1       1.209  10.874  19.299  0.00  0.00    +0.000 S 
BRANCH  18  19
ATOM     19  C   UNL     1      -0.376  10.813  18.618  0.00  0.00    +0.000 A 
ATOM     20  N   UNL     1      -0.798  10.097  17.604  0.00  0.00    +0.000 NA
ATOM     21  C   UNL     1      -2.133  10.396  17.491  0.00  0.00    +0.000 A 
ATOM     22  C   UNL     1      -3.074   9.929  16.561  0.00  0.00    +0.000 A 
ATOM     23  C   UNL     1      -4.395  10.387  16.655  0.00  0.00    +0.000 A 
ATOM     24  C   UNL     1      -4.765  11.286  17.658  0.00  0.00    +0.000 A 
ATOM     25 CL   UNL     1      -6.402  11.820  17.745  0.00  0.00    +0.000 Cl
ATOM     26  C   UNL     1      -3.843  11.766  18.597  0.00  0.00    +0.000 A 
ATOM     27  C   UNL     1      -2.531  11.296  18.475  0.00  0.00    +0.000 A 
ATOM     28  N   UNL     1      -1.383  11.543  19.186  0.00  0.00    +0.000 N 
ATOM     29  H   UNL     1      -1.283  12.159  19.979  0.00  0.00    +0.000 HD
ENDBRANCH  18  19
ENDBRANCH   4  18
TORSDOF 4
ENDMDL
