MODEL 1
REMARK VINA RESULT:      -8.7      0.000      0.000
REMARK  Name = 
REMARK  10 active torsions:
REMARK  status: ('A' for Active; 'I' for Inactive)
REMARK    1  A    between atoms: C_1  and  C_2
REMARK    2  A    between atoms: N_4  and  C_5
REMARK    3  A    between atoms: C_11  and  C_12
REMARK    4  A    between atoms: C_13  and  N_14
REMARK    5  A    between atoms: C_15  and  C_17
REMARK    6  A    between atoms: C_17  and  O_18
REMARK    7  A    between atoms: O_18  and  C_19
REMARK    8  A    between atoms: C_19  and  C_21
REMARK    9  A    between atoms: C_21  and  C_22
REMARK   10  A    between atoms: C_23  and  C_24
REMARK                            x       y       z     vdW  Elec       q    Type
REMARK                         _______ _______ _______ _____ _____    ______ ____
ROOT
ATOM      1  N   UNL     1      -0.008   9.859  19.699  0.00  0.00    +0.000 N 
ATOM      2  C   UNL     1       1.031  10.222  18.848  0.00  0.00    +0.000 C 
ATOM      3  O   UNL     1       1.675  11.269  18.890  0.00  0.00    +0.000 OA
ATOM      4  H   UNL     1      -0.667   9.182  19.325  0.00  0.00    +0.000 HD
ENDROOT
BRANCH   1  11
ATOM      5  C   UNL     1       1.002   9.094  22.597  0.00  0.00    +0.000 C 
ATOM      6  C   UNL     1       0.102  10.194  22.173  0.00  0.00    +0.000 A 
ATOM      7  N   UNL     1      -0.349  11.060  23.090  0.00  0.00    +0.000 NA
ATOM      8  N   UNL     1      -1.256  11.821  22.433  0.00  0.00    +0.000 N 
ATOM      9  C   UNL     1      -1.209  11.600  21.059  0.00  0.00    +0.000 A 
ATOM     10  C   UNL     1      -1.854  12.508  20.070  0.00  0.00    +0.000 C 
ATOM     11  C   UNL     1      -0.385  10.503  20.874  0.00  0.00    +0.000 A 
BRANCH   8  12
ATOM     12  C   UNL     1      -2.065  12.742  23.163  0.00  0.00    +0.000 A 
ATOM     13  C   UNL     1      -1.519  13.966  23.573  0.00  0.00    +0.000 A 
ATOM     14  C   UNL     1      -2.330  14.916  24.199  0.00  0.00    +0.000 A 
ATOM     15  C   UNL     1      -3.673  14.635  24.455  0.00  0.00    +0.000 A 
ATOM     16  C   UNL     1      -4.202  13.394  24.109  0.00  0.00    +0.000 A 
ATOM     17  C   UNL     1      -3.400  12.446  23.470  0.00  0.00    +0.000 A 
ENDBRANCH   8  12
ENDBRANCH   1  11
BRANCH   2  18
ATOM     18  C   UNL     1       1.314   9.189  17.754  0.00  0.00    +0.000 C 
BRANCH  18  19
ATOM     19  O   UNL     1       2.486   8.399  17.965  0.00  0.00    +0.000 OA
BRANCH  19  20
ATOM     20  C   UNL     1       2.302   7.307  18.757  0.00  0.00    +0.000 C 
ATOM     21  O   UNL     1       2.031   7.381  19.967  0.00  0.00    +0.000 OA
BRANCH  20  22
ATOM     22  C   UNL     1       2.513   6.034  18.021  0.00  0.00    +0.000 C 
BRANCH  22  23
ATOM     23  C   UNL     1       3.812   5.340  18.303  0.00  0.00    +0.000 A 
ATOM     24  C   UNL     1       3.987   4.200  19.083  0.00  0.00    +0.000 A 
ATOM     25  C   UNL     1       3.103   3.485  20.036  0.00  0.00    +0.000 C 
ATOM     26  N   UNL     1       5.261   3.748  18.881  0.00  0.00    +0.000 N 
ATOM     27  C   UNL     1       5.952   4.639  18.115  0.00  0.00    +0.000 A 
ATOM     28  C   UNL     1       7.282   4.570  17.692  0.00  0.00    +0.000 A 
ATOM     29  C   UNL     1       7.870   5.814  17.904  0.00  0.00    +0.000 A 
ATOM     30  C   UNL     1       7.156   6.977  17.637  0.00  0.00    +0.000 A 
ATOM     31 CL   UNL     1       7.995   8.479  17.661  0.00  0.00    +0.000 Cl
ATOM     32  C   UNL     1       5.761   6.937  17.478  0.00  0.00    +0.000 A 
ATOM     33  C   UNL     1       5.137   5.755  17.925  0.00  0.00    +0.000 A 
ATOM     34  H   UNL     1       5.676   2.935  19.313  0.00  0.00    +0.000 HD
ENDBRANCH  22  23
ENDBRANCH  20  22
ENDBRANCH  19  20
ENDBRANCH  18  19
ENDBRANCH   2  18
TORSDOF 7
ENDMDL
MODEL 2
REMARK VINA RESULT:      -8.6      0.680      1.095
REMARK  Name = 
REMARK  10 active torsions:
REMARK  status: ('A' for Active; 'I' for Inactive)
REMARK    1  A    between atoms: C_1  and  C_2
REMARK    2  A    between atoms: N_4  and  C_5
REMARK    3  A    between atoms: C_11  and  C_12
REMARK    4  A    between atoms: C_13  and  N_14
REMARK    5  A    between atoms: C_15  and  C_17
REMARK    6  A    between atoms: C_17  and  O_18
REMARK    7  A    between atoms: O_18  and  C_19
REMARK    8  A    between atoms: C_19  and  C_21
REMARK    9  A    between atoms: C_21  and  C_22
REMARK   10  A    between atoms: C_23  and  C_24
REMARK                            x       y       z     vdW  Elec       q    Type
REMARK                         _______ _______ _______ _____ _____    ______ ____
ROOT
ATOM      1  N   UNL     1       0.038   9.831  19.669  0.00  0.00    +0.000 N 
ATOM      2  C   UNL     1       1.078  10.190  18.819  0.00  0.00    +0.000 C 
ATOM      3  O   UNL     1       1.732  11.231  18.866  0.00  0.00    +0.000 OA
ATOM      4  H   UNL     1      -0.628   9.163  19.292  0.00  0.00    +0.000 HD
ENDROOT
BRANCH   1  11
ATOM      5  C   UNL     1       1.049   9.044  22.561  0.00  0.00    +0.000 C 
ATOM      6  C   UNL     1       0.156  10.152  22.145  0.00  0.00    +0.000 A 
ATOM      7  N   UNL     1      -0.286  11.017  23.067  0.00  0.00    +0.000 NA
ATOM      8  N   UNL     1      -1.189  11.788  22.416  0.00  0.00    +0.000 N 
ATOM      9  C   UNL     1      -1.147  11.574  21.042  0.00  0.00    +0.000 A 
ATOM     10  C   UNL     1      -1.788  12.491  20.058  0.00  0.00    +0.000 C 
ATOM     11  C   UNL     1      -0.331  10.472  20.848  0.00  0.00    +0.000 A 
BRANCH   8  12
ATOM     12  C   UNL     1      -1.989  12.711  23.153  0.00  0.00    +0.000 A 
ATOM     13  C   UNL     1      -3.287  12.347  23.537  0.00  0.00    +0.000 A 
ATOM     14  C   UNL     1      -4.041  13.203  24.345  0.00  0.00    +0.000 A 
ATOM     15  C   UNL     1      -3.522  14.437  24.738  0.00  0.00    +0.000 A 
ATOM     16  C   UNL     1      -2.259  14.831  24.303  0.00  0.00    +0.000 A 
ATOM     17  C   UNL     1      -1.495  13.974  23.508  0.00  0.00    +0.000 A 
ENDBRANCH   8  12
ENDBRANCH   1  11
BRANCH   2  18
ATOM     18  C   UNL     1       1.351   9.160  17.719  0.00  0.00    +0.000 C 
BRANCH  18  19
ATOM     19  O   UNL     1       2.535   8.383  17.905  0.00  0.00    +0.000 OA
BRANCH  19  20
ATOM     20  C   UNL     1       2.365   7.255  18.648  0.00  0.00    +0.000 C 
ATOM     21  O   UNL     1       2.416   7.243  19.889  0.00  0.00    +0.000 OA
BRANCH  20  22
ATOM     22  C   UNL     1       2.167   6.048  17.804  0.00  0.00    +0.000 C 
BRANCH  22  23
ATOM     23  C   UNL     1       3.369   5.163  17.663  0.00  0.00    +0.000 A 
ATOM     24  C   UNL     1       3.436   3.805  17.965  0.00  0.00    +0.000 A 
ATOM     25  C   UNL     1       2.532   2.892  18.707  0.00  0.00    +0.000 C 
ATOM     26  N   UNL     1       4.612   3.323  17.463  0.00  0.00    +0.000 N 
ATOM     27  C   UNL     1       5.365   4.352  16.979  0.00  0.00    +0.000 A 
ATOM     28  C   UNL     1       6.635   4.298  16.398  0.00  0.00    +0.000 A 
ATOM     29  C   UNL     1       7.412   5.308  16.960  0.00  0.00    +0.000 A 
ATOM     30  C   UNL     1       6.856   6.557  17.208  0.00  0.00    +0.000 A 
ATOM     31 CL   UNL     1       7.903   7.848  17.655  0.00  0.00    +0.000 Cl
ATOM     32  C   UNL     1       5.462   6.730  17.218  0.00  0.00    +0.000 A 
ATOM     33  C   UNL     1       4.708   5.540  17.295  0.00  0.00    +0.000 A 
ATOM     34  H   UNL     1       4.936   2.368  17.527  0.00  0.00    +0.000 HD
ENDBRANCH  22  23
ENDBRANCH  20  22
ENDBRANCH  19  20
ENDBRANCH  18  19
ENDBRANCH   2  18
TORSDOF 7
ENDMDL
MODEL 3
REMARK VINA RESULT:      -8.3      1.931      3.012
REMARK  Name = 
REMARK  10 active torsions:
REMARK  status: ('A' for Active; 'I' for Inactive)
REMARK    1  A    between atoms: C_1  and  C_2
REMARK    2  A    between atoms: N_4  and  C_5
REMARK    3  A    between atoms: C_11  and  C_12
REMARK    4  A    between atoms: C_13  and  N_14
REMARK    5  A    between atoms: C_15  and  C_17
REMARK    6  A    between atoms: C_17  and  O_18
REMARK    7  A    between atoms: O_18  and  C_19
REMARK    8  A    between atoms: C_19  and  C_21
REMARK    9  A    between atoms: C_21  and  C_22
REMARK   10  A    between atoms: C_23  and  C_24
REMARK                            x       y       z     vdW  Elec       q    Type
REMARK                         _______ _______ _______ _____ _____    ______ ____
ROOT
ATOM      1  N   UNL     1       0.497   9.997  19.601  0.00  0.00    +0.000 N 
ATOM      2  C   UNL     1       1.415  10.585  18.737  0.00  0.00    +0.000 C 
ATOM      3  O   UNL     1       1.811  11.749  18.776  0.00  0.00    +0.000 OA
ATOM      4  H   UNL     1      -0.002   9.193  19.233  0.00  0.00    +0.000 HD
ENDROOT
BRANCH   1  11
ATOM      5  C   UNL     1       1.223   8.976  22.505  0.00  0.00    +0.000 C 
ATOM      6  C   UNL     1       0.366  10.114  22.094  0.00  0.00    +0.000 A 
ATOM      7  N   UNL     1      -0.175  10.899  23.035  0.00  0.00    +0.000 NA
ATOM      8  N   UNL     1      -1.016  11.719  22.363  0.00  0.00    +0.000 N 
ATOM      9  C   UNL     1      -0.836  11.619  20.987  0.00  0.00    +0.000 A 
ATOM     10  C   UNL     1      -1.385  12.614  20.022  0.00  0.00    +0.000 C 
ATOM     11  C   UNL     1       0.006  10.538  20.786  0.00  0.00    +0.000 A 
BRANCH   8  12
ATOM     12  C   UNL     1      -1.894  12.577  23.090  0.00  0.00    +0.000 A 
ATOM     13  C   UNL     1      -3.184  12.132  23.414  0.00  0.00    +0.000 A 
ATOM     14  C   UNL     1      -4.014  12.923  24.211  0.00  0.00    +0.000 A 
ATOM     15  C   UNL     1      -3.581  14.173  24.653  0.00  0.00    +0.000 A 
ATOM     16  C   UNL     1      -2.327  14.648  24.278  0.00  0.00    +0.000 A 
ATOM     17  C   UNL     1      -1.486  13.856  23.494  0.00  0.00    +0.000 A 
ENDBRANCH   8  12
ENDBRANCH   1  11
BRANCH   2  18
ATOM     18  C   UNL     1       1.902   9.643  17.632  0.00  0.00    +0.000 C 
BRANCH  18  19
ATOM     19  O   UNL     1       1.612   8.262  17.850  0.00  0.00    +0.000 OA
BRANCH  19  20
ATOM     20  C   UNL     1       2.571   7.578  18.531  0.00  0.00    +0.000 C 
ATOM     21  O   UNL     1       2.540   7.406  19.761  0.00  0.00    +0.000 OA
BRANCH  20  22
ATOM     22  C   UNL     1       3.671   7.116  17.646  0.00  0.00    +0.000 C 
BRANCH  22  23
ATOM     23  C   UNL     1       4.256   5.781  17.998  0.00  0.00    +0.000 A 
ATOM     24  C   UNL     1       5.560   5.360  17.751  0.00  0.00    +0.000 A 
ATOM     25  C   UNL     1       6.653   5.903  16.907  0.00  0.00    +0.000 C 
ATOM     26  N   UNL     1       5.761   4.199  18.443  0.00  0.00    +0.000 N 
ATOM     27  C   UNL     1       4.590   3.786  19.005  0.00  0.00    +0.000 A 
ATOM     28  C   UNL     1       4.353   2.645  19.776  0.00  0.00    +0.000 A 
ATOM     29  C   UNL     1       3.188   2.041  19.311  0.00  0.00    +0.000 A 
ATOM     30  C   UNL     1       2.099   2.821  18.942  0.00  0.00    +0.000 A 
ATOM     31 CL   UNL     1       0.598   2.040  18.623  0.00  0.00    +0.000 Cl
ATOM     32  C   UNL     1       2.252   4.199  18.712  0.00  0.00    +0.000 A 
ATOM     33  C   UNL     1       3.583   4.639  18.556  0.00  0.00    +0.000 A 
ATOM     34  H   UNL     1       6.616   3.659  18.459  0.00  0.00    +0.000 HD
ENDBRANCH  22  23
ENDBRANCH  20  22
ENDBRANCH  19  20
ENDBRANCH  18  19
ENDBRANCH   2  18
TORSDOF 7
ENDMDL
MODEL 4
REMARK VINA RESULT:      -8.2      6.904     10.244
REMARK  Name = 
REMARK  10 active torsions:
REMARK  status: ('A' for Active; 'I' for Inactive)
REMARK    1  A    between atoms: C_1  and  C_2
REMARK    2  A    between atoms: N_4  and  C_5
REMARK    3  A    between atoms: C_11  and  C_12
REMARK    4  A    between atoms: C_13  and  N_14
REMARK    5  A    between atoms: C_15  and  C_17
REMARK    6  A    between atoms: C_17  and  O_18
REMARK    7  A    between atoms: O_18  and  C_19
REMARK    8  A    between atoms: C_19  and  C_21
REMARK    9  A    between atoms: C_21  and  C_22
REMARK   10  A    between atoms: C_23  and  C_24
REMARK                            x       y       z     vdW  Elec       q    Type
REMARK                         _______ _______ _______ _____ _____    ______ ____
ROOT
ATOM      1  N   UNL     1       6.442   7.299  17.019  0.00  0.00    +0.000 N 
ATOM      2  C   UNL     1       7.595   7.498  17.772  0.00  0.00    +0.000 C 
ATOM      3  O   UNL     1       8.028   6.755  18.652  0.00  0.00    +0.000 OA
ATOM      4  H   UNL     1       6.022   8.138  16.629  0.00  0.00    +0.000 HD
ENDROOT
BRANCH   1  11
ATOM      5  C   UNL     1       6.568   5.136  14.716  0.00  0.00    +0.000 C 
ATOM      6  C   UNL     1       5.759   5.142  15.958  0.00  0.00    +0.000 A 
ATOM      7  N   UNL     1       4.981   4.089  16.238  0.00  0.00    +0.000 NA
ATOM      8  N   UNL     1       4.263   4.464  17.323  0.00  0.00    +0.000 N 
ATOM      9  C   UNL     1       4.748   5.648  17.871  0.00  0.00    +0.000 A 
ATOM     10  C   UNL     1       4.369   6.127  19.230  0.00  0.00    +0.000 C 
ATOM     11  C   UNL     1       5.673   6.141  16.966  0.00  0.00    +0.000 A 
BRANCH   8  12
ATOM     12  C   UNL     1       3.200   3.634  17.785  0.00  0.00    +0.000 A 
ATOM     13  C   UNL     1       3.479   2.331  18.220  0.00  0.00    +0.000 A 
ATOM     14  C   UNL     1       2.461   1.546  18.769  0.00  0.00    +0.000 A 
ATOM     15  C   UNL     1       1.159   2.040  18.850  0.00  0.00    +0.000 A 
ATOM     16  C   UNL     1       0.864   3.309  18.358  0.00  0.00    +0.000 A 
ATOM     17  C   UNL     1       1.879   4.104  17.822  0.00  0.00    +0.000 A 
ENDBRANCH   8  12
ENDBRANCH   1  11
BRANCH   2  18
ATOM     18  C   UNL     1       8.317   8.810  17.449  0.00  0.00    +0.000 C 
BRANCH  18  19
ATOM     19  O   UNL     1       8.242   9.803  18.473  0.00  0.00    +0.000 OA
BRANCH  19  20
ATOM     20  C   UNL     1       9.370  10.549  18.628  0.00  0.00    +0.000 C 
ATOM     21  O   UNL     1       9.937  11.129  17.687  0.00  0.00    +0.000 OA
BRANCH  20  22
ATOM     22  C   UNL     1       9.864  10.540  20.029  0.00  0.00    +0.000 C 
BRANCH  22  23
ATOM     23  C   UNL     1      10.017  11.891  20.661  0.00  0.00    +0.000 A 
ATOM     24  C   UNL     1      11.000  12.833  20.369  0.00  0.00    +0.000 A 
ATOM     25  C   UNL     1      12.275  12.759  19.613  0.00  0.00    +0.000 C 
ATOM     26  N   UNL     1      10.642  14.009  20.965  0.00  0.00    +0.000 N 
ATOM     27  C   UNL     1       9.542  13.815  21.747  0.00  0.00    +0.000 A 
ATOM     28  C   UNL     1       8.866  14.747  22.539  0.00  0.00    +0.000 A 
ATOM     29  C   UNL     1       8.621  14.165  23.781  0.00  0.00    +0.000 A 
ATOM     30  C   UNL     1       8.235  12.833  23.862  0.00  0.00    +0.000 A 
ATOM     31 CL   UNL     1       7.692  12.225  25.377  0.00  0.00    +0.000 Cl
ATOM     32  C   UNL     1       8.405  11.972  22.764  0.00  0.00    +0.000 A 
ATOM     33  C   UNL     1       9.263  12.449  21.751  0.00  0.00    +0.000 A 
ATOM     34  H   UNL     1      11.162  14.875  20.929  0.00  0.00    +0.000 HD
ENDBRANCH  22  23
ENDBRANCH  20  22
ENDBRANCH  19  20
ENDBRANCH  18  19
ENDBRANCH   2  18
TORSDOF 7
ENDMDL
MODEL 5
REMARK VINA RESULT:      -8.2      2.626      3.439
REMARK  Name = 
REMARK  10 active torsions:
REMARK  status: ('A' for Active; 'I' for Inactive)
REMARK    1  A    between atoms: C_1  and  C_2
REMARK    2  A    between atoms: N_4  and  C_5
REMARK    3  A    between atoms: C_11  and  C_12
REMARK    4  A    between atoms: C_13  and  N_14
REMARK    5  A    between atoms: C_15  and  C_17
REMARK    6  A    between atoms: C_17  and  O_18
REMARK    7  A    between atoms: O_18  and  C_19
REMARK    8  A    between atoms: C_19  and  C_21
REMARK    9  A    between atoms: C_21  and  C_22
REMARK   10  A    between atoms: C_23  and  C_24
REMARK                            x       y       z     vdW  Elec       q    Type
REMARK                         _______ _______ _______ _____ _____    ______ ____
ROOT
ATOM      1  N   UNL     1       0.214  10.468  18.204  0.00  0.00    +0.000 N 
ATOM      2  C   UNL     1       0.991   9.669  19.037  0.00  0.00    +0.000 C 
ATOM      3  O   UNL     1       0.871   9.551  20.255  0.00  0.00    +0.000 OA
ATOM      4  H   UNL     1       0.652  10.751  17.332  0.00  0.00    +0.000 HD
ENDROOT
BRANCH   1  11
ATOM      5  C   UNL     1       0.036  13.075  19.986  0.00  0.00    +0.000 C 
ATOM      6  C   UNL     1      -1.046  12.324  19.307  0.00  0.00    +0.000 A 
ATOM      7  N   UNL     1      -2.302  12.784  19.371  0.00  0.00    +0.000 NA
ATOM      8  N   UNL     1      -3.059  11.811  18.810  0.00  0.00    +0.000 N 
ATOM      9  C   UNL     1      -2.271  10.851  18.181  0.00  0.00    +0.000 A 
ATOM     10  C   UNL     1      -2.822   9.852  17.222  0.00  0.00    +0.000 C 
ATOM     11  C   UNL     1      -0.964  11.125  18.546  0.00  0.00    +0.000 A 
BRANCH   8  12
ATOM     12  C   UNL     1      -4.481  11.900  18.872  0.00  0.00    +0.000 A 
ATOM     13  C   UNL     1      -5.226  11.901  17.684  0.00  0.00    +0.000 A 
ATOM     14  C   UNL     1      -6.622  11.885  17.737  0.00  0.00    +0.000 A 
ATOM     15  C   UNL     1      -7.279  11.910  18.968  0.00  0.00    +0.000 A 
ATOM     16  C   UNL     1      -6.544  11.977  20.148  0.00  0.00    +0.000 A 
ATOM     17  C   UNL     1      -5.148  11.978  20.103  0.00  0.00    +0.000 A 
ENDBRANCH   8  12
ENDBRANCH   1  11
BRANCH   2  18
ATOM     18  C   UNL     1       2.110   8.926  18.300  0.00  0.00    +0.000 C 
BRANCH  18  19
ATOM     19  O   UNL     1       1.760   7.621  17.838  0.00  0.00    +0.000 OA
BRANCH  19  20
ATOM     20  C   UNL     1       2.250   6.599  18.592  0.00  0.00    +0.000 C 
ATOM     21  O   UNL     1       2.783   6.767  19.701  0.00  0.00    +0.000 OA
BRANCH  20  22
ATOM     22  C   UNL     1       2.120   5.284  17.913  0.00  0.00    +0.000 C 
BRANCH  22  23
ATOM     23  C   UNL     1       3.416   4.601  17.591  0.00  0.00    +0.000 A 
ATOM     24  C   UNL     1       3.693   3.244  17.737  0.00  0.00    +0.000 A 
ATOM     25  C   UNL     1       2.990   2.141  18.437  0.00  0.00    +0.000 C 
ATOM     26  N   UNL     1       4.876   2.989  17.102  0.00  0.00    +0.000 N 
ATOM     27  C   UNL     1       5.437   4.159  16.682  0.00  0.00    +0.000 A 
ATOM     28  C   UNL     1       6.647   4.348  16.010  0.00  0.00    +0.000 A 
ATOM     29  C   UNL     1       7.324   5.399  16.621  0.00  0.00    +0.000 A 
ATOM     30  C   UNL     1       6.627   6.524  17.044  0.00  0.00    +0.000 A 
ATOM     31 CL   UNL     1       7.522   7.903  17.553  0.00  0.00    +0.000 Cl
ATOM     32  C   UNL     1       5.228   6.491  17.172  0.00  0.00    +0.000 A 
ATOM     33  C   UNL     1       4.653   5.203  17.172  0.00  0.00    +0.000 A 
ATOM     34  H   UNL     1       5.332   2.090  17.038  0.00  0.00    +0.000 HD
ENDBRANCH  22  23
ENDBRANCH  20  22
ENDBRANCH  19  20
ENDBRANCH  18  19
ENDBRANCH   2  18
TORSDOF 7
ENDMDL
MODEL 6
REMARK VINA RESULT:      -8.1      1.904      2.610
REMARK  Name = 
REMARK  10 active torsions:
REMARK  status: ('A' for Active; 'I' for Inactive)
REMARK    1  A    between atoms: C_1  and  C_2
REMARK    2  A    between atoms: N_4  and  C_5
REMARK    3  A    between atoms: C_11  and  C_12
REMARK    4  A    between atoms: C_13  and  N_14
REMARK    5  A    between atoms: C_15  and  C_17
REMARK    6  A    between atoms: C_17  and  O_18
REMARK    7  A    between atoms: O_18  and  C_19
REMARK    8  A    between atoms: C_19  and  C_21
REMARK    9  A    between atoms: C_21  and  C_22
REMARK   10  A    between atoms: C_23  and  C_24
REMARK                            x       y       z     vdW  Elec       q    Type
REMARK                         _______ _______ _______ _____ _____    ______ ____
ROOT
ATOM      1  N   UNL     1       0.501   9.960  20.607  0.00  0.00    +0.000 N 
ATOM      2  C   UNL     1       0.420   8.675  21.134  0.00  0.00    +0.000 C 
ATOM      3  O   UNL     1      -0.566   8.166  21.664  0.00  0.00    +0.000 OA
ATOM      4  H   UNL     1       1.435  10.358  20.560  0.00  0.00    +0.000 HD
ENDROOT
BRANCH   1  11
ATOM      5  C   UNL     1      -1.081  10.271  17.886  0.00  0.00    +0.000 C 
ATOM      6  C   UNL     1      -1.301  10.949  19.186  0.00  0.00    +0.000 A 
ATOM      7  N   UNL     1      -2.332  11.794  19.317  0.00  0.00    +0.000 NA
ATOM      8  N   UNL     1      -2.165  12.362  20.535  0.00  0.00    +0.000 N 
ATOM      9  C   UNL     1      -1.175  11.714  21.269  0.00  0.00    +0.000 A 
ATOM     10  C   UNL     1      -0.994  11.909  22.735  0.00  0.00    +0.000 C 
ATOM     11  C   UNL     1      -0.556  10.839  20.392  0.00  0.00    +0.000 A 
BRANCH   8  12
ATOM     12  C   UNL     1      -3.000  13.450  20.926  0.00  0.00    +0.000 A 
ATOM     13  C   UNL     1      -4.292  13.192  21.405  0.00  0.00    +0.000 A 
ATOM     14  C   UNL     1      -5.080  14.241  21.885  0.00  0.00    +0.000 A 
ATOM     15  C   UNL     1      -4.602  15.551  21.853  0.00  0.00    +0.000 A 
ATOM     16  C   UNL     1      -3.345  15.820  21.316  0.00  0.00    +0.000 A 
ATOM     17  C   UNL     1      -2.546  14.774  20.849  0.00  0.00    +0.000 A 
ENDBRANCH   8  12
ENDBRANCH   1  11
BRANCH   2  18
ATOM     18  C   UNL     1       1.736   7.895  21.049  0.00  0.00    +0.000 C 
BRANCH  18  19
ATOM     19  O   UNL     1       2.051   7.394  19.749  0.00  0.00    +0.000 OA
BRANCH  19  20
ATOM     20  C   UNL     1       2.152   6.039  19.670  0.00  0.00    +0.000 C 
ATOM     21  O   UNL     1       2.296   5.308  20.665  0.00  0.00    +0.000 OA
BRANCH  20  22
ATOM     22  C   UNL     1       2.122   5.551  18.267  0.00  0.00    +0.000 C 
BRANCH  22  23
ATOM     23  C   UNL     1       3.326   4.766  17.839  0.00  0.00    +0.000 A 
ATOM     24  C   UNL     1       3.493   3.388  17.943  0.00  0.00    +0.000 A 
ATOM     25  C   UNL     1       2.750   2.334  18.677  0.00  0.00    +0.000 C 
ATOM     26  N   UNL     1       4.600   3.045  17.218  0.00  0.00    +0.000 N 
ATOM     27  C   UNL     1       5.228   4.171  16.774  0.00  0.00    +0.000 A 
ATOM     28  C   UNL     1       6.398   4.269  16.016  0.00  0.00    +0.000 A 
ATOM     29  C   UNL     1       7.208   5.245  16.591  0.00  0.00    +0.000 A 
ATOM     30  C   UNL     1       6.644   6.417  17.082  0.00  0.00    +0.000 A 
ATOM     31 CL   UNL     1       7.691   7.702  17.544  0.00  0.00    +0.000 Cl
ATOM     32  C   UNL     1       5.261   6.501  17.314  0.00  0.00    +0.000 A 
ATOM     33  C   UNL     1       4.577   5.268  17.337  0.00  0.00    +0.000 A 
ATOM     34  H   UNL     1       4.969   2.112  17.106  0.00  0.00    +0.000 HD
ENDBRANCH  22  23
ENDBRANCH  20  22
ENDBRANCH  19  20
ENDBRANCH  18  19
ENDBRANCH   2  18
TORSDOF 7
ENDMDL
MODEL 7
REMARK VINA RESULT:      -8.1      3.155     10.118
REMARK  Name = 
REMARK  10 active torsions:
REMARK  status: ('A' for Active; 'I' for Inactive)
REMARK    1  A    between atoms: C_1  and  C_2
REMARK    2  A    between atoms: N_4  and  C_5
REMARK    3  A    between atoms: C_11  and  C_12
REMARK    4  A    between atoms: C_13  and  N_14
REMARK    5  A    between atoms: C_15  and  C_17
REMARK    6  A    between atoms: C_17  and  O_18
REMARK    7  A    between atoms: O_18  and  C_19
REMARK    8  A    between atoms: C_19  and  C_21
REMARK    9  A    between atoms: C_21  and  C_22
REMARK   10  A    between atoms: C_23  and  C_24
REMARK                            x       y       z     vdW  Elec       q    Type
REMARK                         _______ _______ _______ _____ _____    ______ ____
ROOT
ATOM      1  N   UNL     1       1.123   9.154  21.029  0.00  0.00    +0.000 N 
ATOM      2  C   UNL     1      -0.005   8.879  21.795  0.00  0.00    +0.000 C 
ATOM      3  O   UNL     1      -0.867   8.037  21.547  0.00  0.00    +0.000 OA
ATOM      4  H   UNL     1       1.514  10.085  21.140  0.00  0.00    +0.000 HD
ENDROOT
BRANCH   1  11
ATOM      5  C   UNL     1       1.543  10.251  18.092  0.00  0.00    +0.000 C 
ATOM      6  C   UNL     1       1.837   8.908  18.647  0.00  0.00    +0.000 A 
ATOM      7  N   UNL     1       2.411   7.987  17.861  0.00  0.00    +0.000 NA
ATOM      8  N   UNL     1       2.394   6.847  18.591  0.00  0.00    +0.000 N 
ATOM      9  C   UNL     1       2.031   7.092  19.912  0.00  0.00    +0.000 A 
ATOM     10  C   UNL     1       2.231   6.099  21.005  0.00  0.00    +0.000 C 
ATOM     11  C   UNL     1       1.602   8.408  19.957  0.00  0.00    +0.000 A 
BRANCH   8  12
ATOM     12  C   UNL     1       2.776   5.614  17.983  0.00  0.00    +0.000 A 
ATOM     13  C   UNL     1       4.087   5.452  17.514  0.00  0.00    +0.000 A 
ATOM     14  C   UNL     1       4.499   4.216  17.010  0.00  0.00    +0.000 A 
ATOM     15  C   UNL     1       3.599   3.153  16.932  0.00  0.00    +0.000 A 
ATOM     16  C   UNL     1       2.277   3.330  17.334  0.00  0.00    +0.000 A 
ATOM     17  C   UNL     1       1.863   4.558  17.853  0.00  0.00    +0.000 A 
ENDBRANCH   8  12
ENDBRANCH   1  11
BRANCH   2  18
ATOM     18  C   UNL     1      -0.141   9.778  23.028  0.00  0.00    +0.000 C 
BRANCH  18  19
ATOM     19  O   UNL     1      -1.106  10.824  22.903  0.00  0.00    +0.000 OA
BRANCH  19  20
ATOM     20  C   UNL     1      -0.627  11.981  22.370  0.00  0.00    +0.000 C 
ATOM     21  O   UNL     1       0.506  12.081  21.869  0.00  0.00    +0.000 OA
BRANCH  20  22
ATOM     22  C   UNL     1      -1.587  13.106  22.507  0.00  0.00    +0.000 C 
BRANCH  22  23
ATOM     23  C   UNL     1      -2.993  12.800  22.087  0.00  0.00    +0.000 A 
ATOM     24  C   UNL     1      -4.086  12.618  22.931  0.00  0.00    +0.000 A 
ATOM     25  C   UNL     1      -4.206  12.412  24.395  0.00  0.00    +0.000 C 
ATOM     26  N   UNL     1      -5.214  12.614  22.159  0.00  0.00    +0.000 N 
ATOM     27  C   UNL     1      -4.871  12.640  20.839  0.00  0.00    +0.000 A 
ATOM     28  C   UNL     1      -5.713  12.629  19.725  0.00  0.00    +0.000 A 
ATOM     29  C   UNL     1      -5.213  11.706  18.811  0.00  0.00    +0.000 A 
ATOM     30  C   UNL     1      -3.843  11.609  18.599  0.00  0.00    +0.000 A 
ATOM     31 CL   UNL     1      -3.280  10.650  17.285  0.00  0.00    +0.000 Cl
ATOM     32  C   UNL     1      -2.937  12.176  19.510  0.00  0.00    +0.000 A 
ATOM     33  C   UNL     1      -3.483  12.531  20.761  0.00  0.00    +0.000 A 
ATOM     34  H   UNL     1      -6.160  12.501  22.494  0.00  0.00    +0.000 HD
ENDBRANCH  22  23
ENDBRANCH  20  22
ENDBRANCH  19  20
ENDBRANCH  18  19
ENDBRANCH   2  18
TORSDOF 7
ENDMDL
MODEL 8
REMARK VINA RESULT:      -8.0      2.353      3.062
REMARK  Name = 
REMARK  10 active torsions:
REMARK  status: ('A' for Active; 'I' for Inactive)
REMARK    1  A    between atoms: C_1  and  C_2
REMARK    2  A    between atoms: N_4  and  C_5
REMARK    3  A    between atoms: C_11  and  C_12
REMARK    4  A    between atoms: C_13  and  N_14
REMARK    5  A    between atoms: C_15  and  C_17
REMARK    6  A    between atoms: C_17  and  O_18
REMARK    7  A    between atoms: O_18  and  C_19
REMARK    8  A    between atoms: C_19  and  C_21
REMARK    9  A    between atoms: C_21  and  C_22
REMARK   10  A    between atoms: C_23  and  C_24
REMARK                            x       y       z     vdW  Elec       q    Type
REMARK                         _______ _______ _______ _____ _____    ______ ____
ROOT
ATOM      1  N   UNL     1       1.101  10.040  18.545  0.00  0.00    +0.000 N 
ATOM      2  C   UNL     1       1.385   9.009  19.434  0.00  0.00    +0.000 C 
ATOM      3  O   UNL     1       1.063   8.961  20.620  0.00  0.00    +0.000 OA
ATOM      4  H   UNL     1       1.729  10.121  17.750  0.00  0.00    +0.000 HD
ENDROOT
BRANCH   1  11
ATOM      5  C   UNL     1      -1.859  10.234  17.447  0.00  0.00    +0.000 C 
ATOM      6  C   UNL     1      -1.110  11.181  18.308  0.00  0.00    +0.000 A 
ATOM      7  N   UNL     1      -1.728  12.277  18.768  0.00  0.00    +0.000 NA
ATOM      8  N   UNL     1      -0.754  13.001  19.367  0.00  0.00    +0.000 N 
ATOM      9  C   UNL     1       0.422  12.267  19.496  0.00  0.00    +0.000 A 
ATOM     10  C   UNL     1       1.544  12.682  20.385  0.00  0.00    +0.000 C 
ATOM     11  C   UNL     1       0.237  11.109  18.759  0.00  0.00    +0.000 A 
BRANCH   8  12
ATOM     12  C   UNL     1      -1.035  14.325  19.818  0.00  0.00    +0.000 A 
ATOM     13  C   UNL     1      -1.889  14.514  20.913  0.00  0.00    +0.000 A 
ATOM     14  C   UNL     1      -2.090  15.799  21.425  0.00  0.00    +0.000 A 
ATOM     15  C   UNL     1      -1.477  16.899  20.825  0.00  0.00    +0.000 A 
ATOM     16  C   UNL     1      -0.682  16.723  19.696  0.00  0.00    +0.000 A 
ATOM     17  C   UNL     1      -0.464  15.440  19.189  0.00  0.00    +0.000 A 
ENDBRANCH   8  12
ENDBRANCH   1  11
BRANCH   2  18
ATOM     18  C   UNL     1       2.216   7.881  18.817  0.00  0.00    +0.000 C 
BRANCH  18  19
ATOM     19  O   UNL     1       2.607   6.855  19.731  0.00  0.00    +0.000 OA
BRANCH  19  20
ATOM     20  C   UNL     1       2.027   5.644  19.511  0.00  0.00    +0.000 C 
ATOM     21  O   UNL     1       1.532   4.952  20.416  0.00  0.00    +0.000 OA
BRANCH  20  22
ATOM     22  C   UNL     1       2.104   5.232  18.086  0.00  0.00    +0.000 C 
BRANCH  22  23
ATOM     23  C   UNL     1       3.366   4.522  17.693  0.00  0.00    +0.000 A 
ATOM     24  C   UNL     1       3.616   3.158  17.810  0.00  0.00    +0.000 A 
ATOM     25  C   UNL     1       2.921   2.063  18.530  0.00  0.00    +0.000 C 
ATOM     26  N   UNL     1       4.761   2.883  17.116  0.00  0.00    +0.000 N 
ATOM     27  C   UNL     1       5.330   4.044  16.683  0.00  0.00    +0.000 A 
ATOM     28  C   UNL     1       6.511   4.212  15.955  0.00  0.00    +0.000 A 
ATOM     29  C   UNL     1       7.242   5.239  16.546  0.00  0.00    +0.000 A 
ATOM     30  C   UNL     1       6.593   6.375  17.015  0.00  0.00    +0.000 A 
ATOM     31 CL   UNL     1       7.545   7.726  17.496  0.00  0.00    +0.000 Cl
ATOM     32  C   UNL     1       5.202   6.374  17.210  0.00  0.00    +0.000 A 
ATOM     33  C   UNL     1       4.596   5.100  17.222  0.00  0.00    +0.000 A 
ATOM     34  H   UNL     1       5.192   1.974  17.020  0.00  0.00    +0.000 HD
ENDBRANCH  22  23
ENDBRANCH  20  22
ENDBRANCH  19  20
ENDBRANCH  18  19
ENDBRANCH   2  18
TORSDOF 7
ENDMDL
MODEL 9
REMARK VINA RESULT:      -7.9      1.611      2.322
REMARK  Name = 
REMARK  10 active torsions:
REMARK  status: ('A' for Active; 'I' for Inactive)
REMARK    1  A    between atoms: C_1  and  C_2
REMARK    2  A    between atoms: N_4  and  C_5
REMARK    3  A    between atoms: C_11  and  C_12
REMARK    4  A    between atoms: C_13  and  N_14
REMARK    5  A    between atoms: C_15  and  C_17
REMARK    6  A    between atoms: C_17  and  O_18
REMARK    7  A    between atoms: O_18  and  C_19
REMARK    8  A    between atoms: C_19  and  C_21
REMARK    9  A    between atoms: C_21  and  C_22
REMARK   10  A    between atoms: C_23  and  C_24
REMARK                            x       y       z     vdW  Elec       q    Type
REMARK                         _______ _______ _______ _____ _____    ______ ____
ROOT
ATOM      1  N   UNL     1       0.097   9.592  18.756  0.00  0.00    +0.000 N 
ATOM      2  C   UNL     1       1.411   9.736  18.322  0.00  0.00    +0.000 C 
ATOM      3  O   UNL     1       1.989  10.796  18.086  0.00  0.00    +0.000 OA
ATOM      4  H   UNL     1      -0.341   8.700  18.544  0.00  0.00    +0.000 HD
ENDROOT
BRANCH   1  11
ATOM      5  C   UNL     1      -2.262  10.858  17.072  0.00  0.00    +0.000 C 
ATOM      6  C   UNL     1      -1.839  11.145  18.463  0.00  0.00    +0.000 A 
ATOM      7  N   UNL     1      -2.541  12.022  19.193  0.00  0.00    +0.000 NA
ATOM      8  N   UNL     1      -1.822  12.186  20.328  0.00  0.00    +0.000 N 
ATOM      9  C   UNL     1      -0.798  11.247  20.424  0.00  0.00    +0.000 A 
ATOM     10  C   UNL     1      -0.057  10.983  21.689  0.00  0.00    +0.000 C 
ATOM     11  C   UNL     1      -0.748  10.606  19.198  0.00  0.00    +0.000 A 
BRANCH   8  12
ATOM     12  C   UNL     1      -2.199  13.196  21.262  0.00  0.00    +0.000 A 
ATOM     13  C   UNL     1      -3.087  12.880  22.300  0.00  0.00    +0.000 A 
ATOM     14  C   UNL     1      -3.383  13.833  23.278  0.00  0.00    +0.000 A 
ATOM     15  C   UNL     1      -2.830  15.112  23.203  0.00  0.00    +0.000 A 
ATOM     16  C   UNL     1      -2.001  15.451  22.137  0.00  0.00    +0.000 A 
ATOM     17  C   UNL     1      -1.689  14.498  21.165  0.00  0.00    +0.000 A 
ENDBRANCH   8  12
ENDBRANCH   1  11
BRANCH   2  18
ATOM     18  C   UNL     1       2.130   8.402  18.100  0.00  0.00    +0.000 C 
BRANCH  18  19
ATOM     19  O   UNL     1       2.546   7.739  19.295  0.00  0.00    +0.000 OA
BRANCH  19  20
ATOM     20  C   UNL     1       2.236   6.415  19.349  0.00  0.00    +0.000 C 
ATOM     21  O   UNL     1       2.052   5.802  20.414  0.00  0.00    +0.000 OA
BRANCH  20  22
ATOM     22  C   UNL     1       2.198   5.788  18.003  0.00  0.00    +0.000 C 
BRANCH  22  23
ATOM     23  C   UNL     1       3.370   4.915  17.671  0.00  0.00    +0.000 A 
ATOM     24  C   UNL     1       3.397   3.523  17.698  0.00  0.00    +0.000 A 
ATOM     25  C   UNL     1       2.472   2.507  18.259  0.00  0.00    +0.000 C 
ATOM     26  N   UNL     1       4.552   3.115  17.092  0.00  0.00    +0.000 N 
ATOM     27  C   UNL     1       5.333   4.197  16.810  0.00  0.00    +0.000 A 
ATOM     28  C   UNL     1       6.595   4.223  16.210  0.00  0.00    +0.000 A 
ATOM     29  C   UNL     1       7.408   5.079  16.947  0.00  0.00    +0.000 A 
ATOM     30  C   UNL     1       6.894   6.270  17.446  0.00  0.00    +0.000 A 
ATOM     31 CL   UNL     1       7.986   7.417  18.122  0.00  0.00    +0.000 Cl
ATOM     32  C   UNL     1       5.506   6.477  17.512  0.00  0.00    +0.000 A 
ATOM     33  C   UNL     1       4.716   5.318  17.364  0.00  0.00    +0.000 A 
ATOM     34  H   UNL     1       4.847   2.158  16.961  0.00  0.00    +0.000 HD
ENDBRANCH  22  23
ENDBRANCH  20  22
ENDBRANCH  19  20
ENDBRANCH  18  19
ENDBRANCH   2  18
TORSDOF 7
ENDMDL
