MODEL 1
REMARK VINA RESULT:      -7.4      0.000      0.000
REMARK  Name = 
REMARK  5 active torsions:
REMARK  status: ('A' for Active; 'I' for Inactive)
REMARK    1  A    between atoms: C_1  and  C_2
REMARK    2  A    between atoms: C_2  and  O_3
REMARK    3  A    between atoms: O_3  and  C_4
REMARK    4  A    between atoms: C_4  and  C_6
REMARK    5  A    between atoms: C_22  and  C_24
REMARK                            x       y       z     vdW  Elec       q    Type
REMARK                         _______ _______ _______ _____ _____    ______ ____
ROOT
ATOM      1  C   UNL     1      -0.279  14.336  21.447  0.00  0.00    +0.000 C 
ATOM      2  C   UNL     1      -0.906  14.573  22.864  0.00  0.00    +0.000 A 
ATOM      3  C   UNL     1      -0.512  15.507  23.823  0.00  0.00    +0.000 A 
ATOM      4  C   UNL     1      -1.400  15.470  24.935  0.00  0.00    +0.000 A 
ATOM      5  C   UNL     1      -2.298  14.471  24.668  0.00  0.00    +0.000 A 
ATOM      6  N   UNL     1      -1.979  13.899  23.453  0.00  0.00    +0.000 N 
ATOM      7  S   UNL     1      -2.736  12.509  22.873  0.00  0.00    +0.000 S 
ATOM      8  O   UNL     1      -3.424  11.921  23.991  0.00  0.00    +0.000 OA
ATOM      9  O   UNL     1      -3.448  12.924  21.664  0.00  0.00    +0.000 OA
ATOM     10  C   UNL     1      -1.358  11.496  22.446  0.00  0.00    +0.000 A 
ATOM     11  C   UNL     1      -1.070  10.345  23.181  0.00  0.00    +0.000 A 
ATOM     12  C   UNL     1       0.065   9.599  22.863  0.00  0.00    +0.000 A 
ATOM     13  C   UNL     1       0.909  10.003  21.827  0.00  0.00    +0.000 A 
ATOM     14  C   UNL     1       0.611  11.149  21.093  0.00  0.00    +0.000 A 
ATOM     15  C   UNL     1      -0.537  11.892  21.401  0.00  0.00    +0.000 A 
ATOM     16  N   UNL     1      -0.799  13.101  20.711  0.00  0.00    +0.000 N 
ATOM     17  C   UNL     1      -0.895  13.011  19.298  0.00  0.00    +0.000 C 
ATOM     18  O   UNL     1      -0.488  13.923  18.582  0.00  0.00    +0.000 OA
ENDROOT
BRANCH  17  19
ATOM     19  C   UNL     1      -1.910  11.999  18.682  0.00  0.00    +0.000 A 
ATOM     20  C   UNL     1      -1.169  10.920  18.191  0.00  0.00    +0.000 A 
ATOM     21  C   UNL     1      -1.810   9.781  17.741  0.00  0.00    +0.000 A 
ATOM     22  C   UNL     1      -3.020   9.951  17.125  0.00  0.00    +0.000 A 
ATOM     23  C   UNL     1      -3.859  10.916  17.638  0.00  0.00    +0.000 A 
ATOM     24  C   UNL     1      -5.198  10.743  17.276  0.00  0.00    +0.000 A 
ATOM     25  C   UNL     1      -6.203  11.278  18.059  0.00  0.00    +0.000 A 
ATOM     26  C   UNL     1      -5.830  12.027  19.170  0.00  0.00    +0.000 A 
ATOM     27  C   UNL     1      -4.464  12.365  19.414  0.00  0.00    +0.000 A 
ATOM     28  C   UNL     1      -3.374  11.860  18.613  0.00  0.00    +0.000 A 
ENDBRANCH  17  19
BRANCH   1  29
ATOM     29  C   UNL     1      -0.068  15.759  20.785  0.00  0.00    +0.000 C 
ATOM     30  O   UNL     1      -0.998  16.513  20.506  0.00  0.00    +0.000 OA
BRANCH  29  31
ATOM     31  O   UNL     1       1.223  15.967  20.366  0.00  0.00    +0.000 OA
BRANCH  31  33
ATOM     32  C   UNL     1       2.953  14.387  19.679  0.00  0.00    +0.000 C 
ATOM     33  C   UNL     1       2.227  15.038  20.837  0.00  0.00    +0.000 C 
ENDBRANCH  31  33
ENDBRANCH  29  31
ENDBRANCH   1  29
TORSDOF 4
ENDMDL
MODEL 2
REMARK VINA RESULT:      -7.4      0.721      1.292
REMARK  Name = 
REMARK  5 active torsions:
REMARK  status: ('A' for Active; 'I' for Inactive)
REMARK    1  A    between atoms: C_1  and  C_2
REMARK    2  A    between atoms: C_2  and  O_3
REMARK    3  A    between atoms: O_3  and  C_4
REMARK    4  A    between atoms: C_4  and  C_6
REMARK    5  A    between atoms: C_22  and  C_24
REMARK                            x       y       z     vdW  Elec       q    Type
REMARK                         _______ _______ _______ _____ _____    ______ ____
ROOT
ATOM      1  C   UNL     1      -0.158  14.323  21.406  0.00  0.00    +0.000 C 
ATOM      2  C   UNL     1      -0.816  14.578  22.806  0.00  0.00    +0.000 A 
ATOM      3  C   UNL     1      -0.433  15.514  23.767  0.00  0.00    +0.000 A 
ATOM      4  C   UNL     1      -1.347  15.496  24.858  0.00  0.00    +0.000 A 
ATOM      5  C   UNL     1      -2.251  14.506  24.578  0.00  0.00    +0.000 A 
ATOM      6  N   UNL     1      -1.910  13.920  23.375  0.00  0.00    +0.000 N 
ATOM      7  S   UNL     1      -2.670  12.536  22.786  0.00  0.00    +0.000 S 
ATOM      8  O   UNL     1      -3.390  11.964  23.892  0.00  0.00    +0.000 OA
ATOM      9  O   UNL     1      -3.348  12.950  21.559  0.00  0.00    +0.000 OA
ATOM     10  C   UNL     1      -1.294  11.503  22.400  0.00  0.00    +0.000 A 
ATOM     11  C   UNL     1      -1.037  10.354  23.150  0.00  0.00    +0.000 A 
ATOM     12  C   UNL     1       0.097   9.592  22.865  0.00  0.00    +0.000 A 
ATOM     13  C   UNL     1       0.969   9.978  21.845  0.00  0.00    +0.000 A 
ATOM     14  C   UNL     1       0.702  11.123  21.096  0.00  0.00    +0.000 A 
ATOM     15  C   UNL     1      -0.444  11.881  21.372  0.00  0.00    +0.000 A 
ATOM     16  N   UNL     1      -0.676  13.088  20.667  0.00  0.00    +0.000 N 
ATOM     17  C   UNL     1      -0.739  12.989  19.253  0.00  0.00    +0.000 C 
ATOM     18  O   UNL     1      -0.304  13.890  18.539  0.00  0.00    +0.000 OA
ENDROOT
BRANCH  17  19
ATOM     19  C   UNL     1      -1.752  11.983  18.620  0.00  0.00    +0.000 A 
ATOM     20  C   UNL     1      -1.011  10.897  18.147  0.00  0.00    +0.000 A 
ATOM     21  C   UNL     1      -1.654   9.761  17.688  0.00  0.00    +0.000 A 
ATOM     22  C   UNL     1      -2.850   9.941  17.048  0.00  0.00    +0.000 A 
ATOM     23  C   UNL     1      -3.690  10.915  17.543  0.00  0.00    +0.000 A 
ATOM     24  C   UNL     1      -5.024  10.752  17.156  0.00  0.00    +0.000 A 
ATOM     25  C   UNL     1      -6.038  11.300  17.918  0.00  0.00    +0.000 A 
ATOM     26  C   UNL     1      -5.679  12.048  19.034  0.00  0.00    +0.000 A 
ATOM     27  C   UNL     1      -4.316  12.375  19.303  0.00  0.00    +0.000 A 
ATOM     28  C   UNL     1      -3.216  11.857  18.524  0.00  0.00    +0.000 A 
ENDBRANCH  17  19
BRANCH   1  29
ATOM     29  C   UNL     1       0.085  15.738  20.738  0.00  0.00    +0.000 C 
ATOM     30  O   UNL     1       1.183  16.290  20.719  0.00  0.00    +0.000 OA
BRANCH  29  31
ATOM     31  O   UNL     1      -1.081  16.367  20.381  0.00  0.00    +0.000 OA
BRANCH  31  33
ATOM     32  C   UNL     1      -0.886  17.372  18.165  0.00  0.00    +0.000 C 
ATOM     33  C   UNL     1      -0.965  17.614  19.658  0.00  0.00    +0.000 C 
ENDBRANCH  31  33
ENDBRANCH  29  31
ENDBRANCH   1  29
TORSDOF 4
ENDMDL
MODEL 3
REMARK VINA RESULT:      -7.1      2.736      6.159
REMARK  Name = 
REMARK  5 active torsions:
REMARK  status: ('A' for Active; 'I' for Inactive)
REMARK    1  A    between atoms: C_1  and  C_2
REMARK    2  A    between atoms: C_2  and  O_3
REMARK    3  A    between atoms: O_3  and  C_4
REMARK    4  A    between atoms: C_4  and  C_6
REMARK    5  A    between atoms: C_22  and  C_24
REMARK                            x       y       z     vdW  Elec       q    Type
REMARK                         _______ _______ _______ _____ _____    ______ ____
ROOT
ATOM      1  C   UNL     1      -5.597  12.951  20.627  0.00  0.00    +0.000 C 
ATOM      2  C   UNL     1      -6.198  12.929  22.074  0.00  0.00    +0.000 A 
ATOM      3  C   UNL     1      -7.546  12.923  22.435  0.00  0.00    +0.000 A 
ATOM      4  C   UNL     1      -7.674  12.802  23.848  0.00  0.00    +0.000 A 
ATOM      5  C   UNL     1      -6.397  12.792  24.343  0.00  0.00    +0.000 A 
ATOM      6  N   UNL     1      -5.511  12.917  23.291  0.00  0.00    +0.000 N 
ATOM      7  S   UNL     1      -3.855  13.139  23.514  0.00  0.00    +0.000 S 
ATOM      8  O   UNL     1      -3.676  13.516  24.891  0.00  0.00    +0.000 OA
ATOM      9  O   UNL     1      -3.219  11.946  22.955  0.00  0.00    +0.000 OA
ATOM     10  C   UNL     1      -3.534  14.535  22.488  0.00  0.00    +0.000 A 
ATOM     11  C   UNL     1      -3.199  15.767  23.051  0.00  0.00    +0.000 A 
ATOM     12  C   UNL     1      -3.016  16.872  22.218  0.00  0.00    +0.000 A 
ATOM     13  C   UNL     1      -3.174  16.748  20.836  0.00  0.00    +0.000 A 
ATOM     14  C   UNL     1      -3.502  15.513  20.280  0.00  0.00    +0.000 A 
ATOM     15  C   UNL     1      -3.672  14.400  21.114  0.00  0.00    +0.000 A 
ATOM     16  N   UNL     1      -4.084  13.162  20.561  0.00  0.00    +0.000 N 
ATOM     17  C   UNL     1      -3.260  12.623  19.540  0.00  0.00    +0.000 C 
ATOM     18  O   UNL     1      -3.750  12.003  18.598  0.00  0.00    +0.000 OA
ENDROOT
BRANCH  17  19
ATOM     19  C   UNL     1      -1.742  12.415  19.838  0.00  0.00    +0.000 A 
ATOM     20  C   UNL     1      -1.549  11.048  20.055  0.00  0.00    +0.000 A 
ATOM     21  C   UNL     1      -0.270  10.534  20.171  0.00  0.00    +0.000 A 
ATOM     22  C   UNL     1       0.667  11.331  20.772  0.00  0.00    +0.000 A 
ATOM     23  C   UNL     1       0.613  12.681  20.501  0.00  0.00    +0.000 A 
ATOM     24  C   UNL     1       1.813  13.351  20.762  0.00  0.00    +0.000 A 
ATOM     25  C   UNL     1       2.099  14.537  20.114  0.00  0.00    +0.000 A 
ATOM     26  C   UNL     1       1.140  15.052  19.248  0.00  0.00    +0.000 A 
ATOM     27  C   UNL     1      -0.158  14.466  19.145  0.00  0.00    +0.000 A 
ATOM     28  C   UNL     1      -0.525  13.244  19.822  0.00  0.00    +0.000 A 
ENDBRANCH  17  19
BRANCH   1  29
ATOM     29  C   UNL     1      -6.397  11.884  19.772  0.00  0.00    +0.000 C 
ATOM     30  O   UNL     1      -7.039  12.177  18.765  0.00  0.00    +0.000 OA
BRANCH  29  31
ATOM     31  O   UNL     1      -6.474  10.658  20.385  0.00  0.00    +0.000 OA
BRANCH  31  33
ATOM     32  C   UNL     1      -7.583   8.492  20.577  0.00  0.00    +0.000 C 
ATOM     33  C   UNL     1      -7.112   9.590  19.648  0.00  0.00    +0.000 C 
ENDBRANCH  31  33
ENDBRANCH  29  31
ENDBRANCH   1  29
TORSDOF 4
ENDMDL
MODEL 4
REMARK VINA RESULT:      -6.8      3.068      6.137
REMARK  Name = 
REMARK  5 active torsions:
REMARK  status: ('A' for Active; 'I' for Inactive)
REMARK    1  A    between atoms: C_1  and  C_2
REMARK    2  A    between atoms: C_2  and  O_3
REMARK    3  A    between atoms: O_3  and  C_4
REMARK    4  A    between atoms: C_4  and  C_6
REMARK    5  A    between atoms: C_22  and  C_24
REMARK                            x       y       z     vdW  Elec       q    Type
REMARK                         _______ _______ _______ _____ _____    ______ ____
ROOT
ATOM      1  C   UNL     1      -6.402  14.053  22.416  0.00  0.00    +0.000 C 
ATOM      2  C   UNL     1      -5.650  15.298  23.001  0.00  0.00    +0.000 A 
ATOM      3  C   UNL     1      -5.890  15.942  24.216  0.00  0.00    +0.000 A 
ATOM      4  C   UNL     1      -4.926  16.969  24.424  0.00  0.00    +0.000 A 
ATOM      5  C   UNL     1      -4.138  16.979  23.303  0.00  0.00    +0.000 A 
ATOM      6  N   UNL     1      -4.596  16.014  22.428  0.00  0.00    +0.000 N 
ATOM      7  S   UNL     1      -4.004  15.853  20.859  0.00  0.00    +0.000 S 
ATOM      8  O   UNL     1      -3.285  17.063  20.566  0.00  0.00    +0.000 OA
ATOM      9  O   UNL     1      -3.354  14.543  20.815  0.00  0.00    +0.000 OA
ATOM     10  C   UNL     1      -5.491  15.823  19.912  0.00  0.00    +0.000 A 
ATOM     11  C   UNL     1      -5.818  16.888  19.071  0.00  0.00    +0.000 A 
ATOM     12  C   UNL     1      -7.033  16.868  18.385  0.00  0.00    +0.000 A 
ATOM     13  C   UNL     1      -7.917  15.798  18.543  0.00  0.00    +0.000 A 
ATOM     14  C   UNL     1      -7.580  14.735  19.379  0.00  0.00    +0.000 A 
ATOM     15  C   UNL     1      -6.354  14.746  20.058  0.00  0.00    +0.000 A 
ATOM     16  N   UNL     1      -6.044  13.707  20.970  0.00  0.00    +0.000 N 
ATOM     17  C   UNL     1      -6.064  12.387  20.450  0.00  0.00    +0.000 C 
ATOM     18  O   UNL     1      -6.447  11.446  21.141  0.00  0.00    +0.000 OA
ENDROOT
BRANCH  17  19
ATOM     19  C   UNL     1      -5.188  12.064  19.200  0.00  0.00    +0.000 A 
ATOM     20  C   UNL     1      -5.979  12.296  18.071  0.00  0.00    +0.000 A 
ATOM     21  C   UNL     1      -5.418  12.262  16.808  0.00  0.00    +0.000 A 
ATOM     22  C   UNL     1      -4.404  11.366  16.602  0.00  0.00    +0.000 A 
ATOM     23  C   UNL     1      -3.508  11.181  17.632  0.00  0.00    +0.000 A 
ATOM     24  C   UNL     1      -2.291  10.626  17.221  0.00  0.00    +0.000 A 
ATOM     25  C   UNL     1      -1.150  10.826  17.975  0.00  0.00    +0.000 A 
ATOM     26  C   UNL     1      -1.272  11.541  19.161  0.00  0.00    +0.000 A 
ATOM     27  C   UNL     1      -2.550  11.926  19.668  0.00  0.00    +0.000 A 
ATOM     28  C   UNL     1      -3.780  11.718  18.941  0.00  0.00    +0.000 A 
ENDBRANCH  17  19
BRANCH   1  29
ATOM     29  C   UNL     1      -6.542  12.997  23.587  0.00  0.00    +0.000 C 
ATOM     30  O   UNL     1      -7.504  12.969  24.353  0.00  0.00    +0.000 OA
BRANCH  29  31
ATOM     31  O   UNL     1      -5.396  12.269  23.790  0.00  0.00    +0.000 OA
BRANCH  31  33
ATOM     32  C   UNL     1      -3.372  13.289  24.697  0.00  0.00    +0.000 C 
ATOM     33  C   UNL     1      -4.649  12.535  25.000  0.00  0.00    +0.000 C 
ENDBRANCH  31  33
ENDBRANCH  29  31
ENDBRANCH   1  29
TORSDOF 4
ENDMDL
MODEL 5
REMARK VINA RESULT:      -6.8      2.293      4.439
REMARK  Name = 
REMARK  5 active torsions:
REMARK  status: ('A' for Active; 'I' for Inactive)
REMARK    1  A    between atoms: C_1  and  C_2
REMARK    2  A    between atoms: C_2  and  O_3
REMARK    3  A    between atoms: O_3  and  C_4
REMARK    4  A    between atoms: C_4  and  C_6
REMARK    5  A    between atoms: C_22  and  C_24
REMARK                            x       y       z     vdW  Elec       q    Type
REMARK                         _______ _______ _______ _____ _____    ______ ____
ROOT
ATOM      1  C   UNL     1       0.428  11.975  20.690  0.00  0.00    +0.000 C 
ATOM      2  C   UNL     1       1.325  13.233  20.427  0.00  0.00    +0.000 A 
ATOM      3  C   UNL     1       2.572  13.520  20.984  0.00  0.00    +0.000 A 
ATOM      4  C   UNL     1       3.100  14.712  20.413  0.00  0.00    +0.000 A 
ATOM      5  C   UNL     1       2.142  15.174  19.550  0.00  0.00    +0.000 A 
ATOM      6  N   UNL     1       1.058  14.320  19.590  0.00  0.00    +0.000 N 
ATOM      7  S   UNL     1      -0.398  14.658  18.811  0.00  0.00    +0.000 S 
ATOM      8  O   UNL     1      -0.366  16.055  18.474  0.00  0.00    +0.000 OA
ATOM      9  O   UNL     1      -0.546  13.623  17.788  0.00  0.00    +0.000 OA
ATOM     10  C   UNL     1      -1.568  14.403  20.104  0.00  0.00    +0.000 A 
ATOM     11  C   UNL     1      -2.267  15.481  20.651  0.00  0.00    +0.000 A 
ATOM     12  C   UNL     1      -3.138  15.260  21.719  0.00  0.00    +0.000 A 
ATOM     13  C   UNL     1      -3.303  13.975  22.241  0.00  0.00    +0.000 A 
ATOM     14  C   UNL     1      -2.608  12.903  21.685  0.00  0.00    +0.000 A 
ATOM     15  C   UNL     1      -1.745  13.121  20.603  0.00  0.00    +0.000 A 
ATOM     16  N   UNL     1      -0.976  12.048  20.089  0.00  0.00    +0.000 N 
ATOM     17  C   UNL     1      -1.700  10.912  19.644  0.00  0.00    +0.000 C 
ATOM     18  O   UNL     1      -1.244   9.780  19.790  0.00  0.00    +0.000 OA
ENDROOT
BRANCH  17  19
ATOM     19  C   UNL     1      -2.824  11.113  18.580  0.00  0.00    +0.000 A 
ATOM     20  C   UNL     1      -2.400  10.481  17.408  0.00  0.00    +0.000 A 
ATOM     21  C   UNL     1      -3.266  10.340  16.339  0.00  0.00    +0.000 A 
ATOM     22  C   UNL     1      -4.166  11.350  16.132  0.00  0.00    +0.000 A 
ATOM     23  C   UNL     1      -4.723  11.937  17.248  0.00  0.00    +0.000 A 
ATOM     24  C   UNL     1      -5.918  12.615  16.986  0.00  0.00    +0.000 A 
ATOM     25  C   UNL     1      -6.834  12.821  17.999  0.00  0.00    +0.000 A 
ATOM     26  C   UNL     1      -6.500  12.381  19.276  0.00  0.00    +0.000 A 
ATOM     27  C   UNL     1      -5.198  11.874  19.570  0.00  0.00    +0.000 A 
ATOM     28  C   UNL     1      -4.189  11.665  18.558  0.00  0.00    +0.000 A 
ENDBRANCH  17  19
BRANCH   1  29
ATOM     29  C   UNL     1       1.373  10.705  20.624  0.00  0.00    +0.000 C 
ATOM     30  O   UNL     1       1.680  10.152  19.570  0.00  0.00    +0.000 OA
BRANCH  29  31
ATOM     31  O   UNL     1       1.633  10.169  21.860  0.00  0.00    +0.000 OA
BRANCH  31  33
ATOM     32  C   UNL     1      -0.311   9.627  23.234  0.00  0.00    +0.000 C 
ATOM     33  C   UNL     1       0.769   9.101  22.312  0.00  0.00    +0.000 C 
ENDBRANCH  31  33
ENDBRANCH  29  31
ENDBRANCH   1  29
TORSDOF 4
ENDMDL
MODEL 6
REMARK VINA RESULT:      -6.8      2.609      5.384
REMARK  Name = 
REMARK  5 active torsions:
REMARK  status: ('A' for Active; 'I' for Inactive)
REMARK    1  A    between atoms: C_1  and  C_2
REMARK    2  A    between atoms: C_2  and  O_3
REMARK    3  A    between atoms: O_3  and  C_4
REMARK    4  A    between atoms: C_4  and  C_6
REMARK    5  A    between atoms: C_22  and  C_24
REMARK                            x       y       z     vdW  Elec       q    Type
REMARK                         _______ _______ _______ _____ _____    ______ ____
ROOT
ATOM      1  C   UNL     1      -3.963  14.741  21.580  0.00  0.00    +0.000 C 
ATOM      2  C   UNL     1      -3.872  15.427  22.987  0.00  0.00    +0.000 A 
ATOM      3  C   UNL     1      -4.843  16.207  23.616  0.00  0.00    +0.000 A 
ATOM      4  C   UNL     1      -4.412  16.562  24.926  0.00  0.00    +0.000 A 
ATOM      5  C   UNL     1      -3.154  16.039  25.064  0.00  0.00    +0.000 A 
ATOM      6  N   UNL     1      -2.806  15.400  23.890  0.00  0.00    +0.000 N 
ATOM      7  S   UNL     1      -1.258  14.799  23.603  0.00  0.00    +0.000 S 
ATOM      8  O   UNL     1      -0.399  15.393  24.592  0.00  0.00    +0.000 OA
ATOM      9  O   UNL     1      -1.413  13.349  23.491  0.00  0.00    +0.000 OA
ATOM     10  C   UNL     1      -0.886  15.492  22.026  0.00  0.00    +0.000 A 
ATOM     11  C   UNL     1       0.091  16.481  21.898  0.00  0.00    +0.000 A 
ATOM     12  C   UNL     1       0.318  17.059  20.649  0.00  0.00    +0.000 A 
ATOM     13  C   UNL     1      -0.430  16.660  19.539  0.00  0.00    +0.000 A 
ATOM     14  C   UNL     1      -1.399  15.667  19.673  0.00  0.00    +0.000 A 
ATOM     15  C   UNL     1      -1.618  15.075  20.924  0.00  0.00    +0.000 A 
ATOM     16  N   UNL     1      -2.656  14.124  21.080  0.00  0.00    +0.000 N 
ATOM     17  C   UNL     1      -2.598  12.984  20.237  0.00  0.00    +0.000 C 
ATOM     18  O   UNL     1      -3.627  12.470  19.804  0.00  0.00    +0.000 OA
ENDROOT
BRANCH  17  19
ATOM     19  C   UNL     1      -1.297  12.123  20.235  0.00  0.00    +0.000 A 
ATOM     20  C   UNL     1      -0.492  12.595  19.195  0.00  0.00    +0.000 A 
ATOM     21  C   UNL     1       0.806  12.140  19.055  0.00  0.00    +0.000 A 
ATOM     22  C   UNL     1       1.047  10.837  19.398  0.00  0.00    +0.000 A 
ATOM     23  C   UNL     1       0.380  10.340  20.496  0.00  0.00    +0.000 A 
ATOM     24  C   UNL     1       0.980   9.203  21.048  0.00  0.00    +0.000 A 
ATOM     25  C   UNL     1       0.764   8.880  22.374  0.00  0.00    +0.000 A 
ATOM     26  C   UNL     1      -0.101   9.687  23.106  0.00  0.00    +0.000 A 
ATOM     27  C   UNL     1      -0.861  10.721  22.480  0.00  0.00    +0.000 A 
ATOM     28  C   UNL     1      -0.700  11.084  21.091  0.00  0.00    +0.000 A 
ENDBRANCH  17  19
BRANCH   1  29
ATOM     29  C   UNL     1      -5.382  14.044  21.490  0.00  0.00    +0.000 C 
ATOM     30  O   UNL     1      -6.295  14.471  20.787  0.00  0.00    +0.000 OA
BRANCH  29  31
ATOM     31  O   UNL     1      -5.552  13.056  22.428  0.00  0.00    +0.000 OA
BRANCH  31  33
ATOM     32  C   UNL     1      -7.298  13.430  24.093  0.00  0.00    +0.000 C 
ATOM     33  C   UNL     1      -6.910  12.732  22.807  0.00  0.00    +0.000 C 
ENDBRANCH  31  33
ENDBRANCH  29  31
ENDBRANCH   1  29
TORSDOF 4
ENDMDL
MODEL 7
REMARK VINA RESULT:      -6.8      2.418      4.105
REMARK  Name = 
REMARK  5 active torsions:
REMARK  status: ('A' for Active; 'I' for Inactive)
REMARK    1  A    between atoms: C_1  and  C_2
REMARK    2  A    between atoms: C_2  and  O_3
REMARK    3  A    between atoms: O_3  and  C_4
REMARK    4  A    between atoms: C_4  and  C_6
REMARK    5  A    between atoms: C_22  and  C_24
REMARK                            x       y       z     vdW  Elec       q    Type
REMARK                         _______ _______ _______ _____ _____    ______ ____
ROOT
ATOM      1  C   UNL     1       1.556  14.925  21.515  0.00  0.00    +0.000 C 
ATOM      2  C   UNL     1       1.574  16.397  20.978  0.00  0.00    +0.000 A 
ATOM      3  C   UNL     1       2.437  17.428  21.351  0.00  0.00    +0.000 A 
ATOM      4  C   UNL     1       2.190  18.585  20.560  0.00  0.00    +0.000 A 
ATOM      5  C   UNL     1       1.135  18.266  19.746  0.00  0.00    +0.000 A 
ATOM      6  N   UNL     1       0.731  16.976  20.025  0.00  0.00    +0.000 N 
ATOM      7  S   UNL     1      -0.661  16.293  19.365  0.00  0.00    +0.000 S 
ATOM      8  O   UNL     1      -1.434  17.380  18.826  0.00  0.00    +0.000 OA
ATOM      9  O   UNL     1      -0.199  15.189  18.525  0.00  0.00    +0.000 OA
ATOM     10  C   UNL     1      -1.472  15.665  20.798  0.00  0.00    +0.000 A 
ATOM     11  C   UNL     1      -2.658  16.244  21.253  0.00  0.00    +0.000 A 
ATOM     12  C   UNL     1      -3.242  15.770  22.429  0.00  0.00    +0.000 A 
ATOM     13  C   UNL     1      -2.644  14.733  23.147  0.00  0.00    +0.000 A 
ATOM     14  C   UNL     1      -1.464  14.154  22.682  0.00  0.00    +0.000 A 
ATOM     15  C   UNL     1      -0.884  14.620  21.494  0.00  0.00    +0.000 A 
ATOM     16  N   UNL     1       0.357  14.089  21.062  0.00  0.00    +0.000 N 
ATOM     17  C   UNL     1       0.408  12.685  20.867  0.00  0.00    +0.000 C 
ATOM     18  O   UNL     1       1.428  12.051  21.127  0.00  0.00    +0.000 OA
ENDROOT
BRANCH  17  19
ATOM     19  C   UNL     1      -0.636  12.026  19.911  0.00  0.00    +0.000 A 
ATOM     20  C   UNL     1       0.036  11.038  19.187  0.00  0.00    +0.000 A 
ATOM     21  C   UNL     1      -0.669  10.163  18.381  0.00  0.00    +0.000 A 
ATOM     22  C   UNL     1      -1.781  10.656  17.752  0.00  0.00    +0.000 A 
ATOM     23  C   UNL     1      -2.563  11.544  18.459  0.00  0.00    +0.000 A 
ATOM     24  C   UNL     1      -3.867  11.656  17.964  0.00  0.00    +0.000 A 
ATOM     25  C   UNL     1      -4.888  12.082  18.792  0.00  0.00    +0.000 A 
ATOM     26  C   UNL     1      -4.560  12.436  20.096  0.00  0.00    +0.000 A 
ATOM     27  C   UNL     1      -3.201  12.510  20.527  0.00  0.00    +0.000 A 
ATOM     28  C   UNL     1      -2.090  12.107  19.697  0.00  0.00    +0.000 A 
ENDBRANCH  17  19
BRANCH   1  29
ATOM     29  C   UNL     1       3.055  14.415  21.534  0.00  0.00    +0.000 C 
ATOM     30  O   UNL     1       3.715  14.312  22.565  0.00  0.00    +0.000 OA
BRANCH  29  31
ATOM     31  O   UNL     1       3.598  14.308  20.277  0.00  0.00    +0.000 OA
BRANCH  31  33
ATOM     32  C   UNL     1       4.759  15.818  18.750  0.00  0.00    +0.000 C 
ATOM     33  C   UNL     1       4.836  15.015  20.031  0.00  0.00    +0.000 C 
ENDBRANCH  31  33
ENDBRANCH  29  31
ENDBRANCH   1  29
TORSDOF 4
ENDMDL
MODEL 8
REMARK VINA RESULT:      -6.7      2.303      6.746
REMARK  Name = 
REMARK  5 active torsions:
REMARK  status: ('A' for Active; 'I' for Inactive)
REMARK    1  A    between atoms: C_1  and  C_2
REMARK    2  A    between atoms: C_2  and  O_3
REMARK    3  A    between atoms: O_3  and  C_4
REMARK    4  A    between atoms: C_4  and  C_6
REMARK    5  A    between atoms: C_22  and  C_24
REMARK                            x       y       z     vdW  Elec       q    Type
REMARK                         _______ _______ _______ _____ _____    ______ ____
ROOT
ATOM      1  C   UNL     1      -4.426  12.363  19.611  0.00  0.00    +0.000 C 
ATOM      2  C   UNL     1      -3.610  11.450  18.632  0.00  0.00    +0.000 A 
ATOM      3  C   UNL     1      -4.090  10.393  17.857  0.00  0.00    +0.000 A 
ATOM      4  C   UNL     1      -3.051   9.883  17.029  0.00  0.00    +0.000 A 
ATOM      5  C   UNL     1      -1.928  10.599  17.347  0.00  0.00    +0.000 A 
ATOM      6  N   UNL     1      -2.245  11.506  18.339  0.00  0.00    +0.000 N 
ATOM      7  S   UNL     1      -1.083  12.435  19.131  0.00  0.00    +0.000 S 
ATOM      8  O   UNL     1       0.191  11.837  18.833  0.00  0.00    +0.000 OA
ATOM      9  O   UNL     1      -1.382  13.823  18.780  0.00  0.00    +0.000 OA
ATOM     10  C   UNL     1      -1.475  12.141  20.824  0.00  0.00    +0.000 A 
ATOM     11  C   UNL     1      -0.612  11.400  21.634  0.00  0.00    +0.000 A 
ATOM     12  C   UNL     1      -0.980  11.125  22.952  0.00  0.00    +0.000 A 
ATOM     13  C   UNL     1      -2.200  11.580  23.454  0.00  0.00    +0.000 A 
ATOM     14  C   UNL     1      -3.053  12.326  22.642  0.00  0.00    +0.000 A 
ATOM     15  C   UNL     1      -2.679  12.614  21.323  0.00  0.00    +0.000 A 
ATOM     16  N   UNL     1      -3.579  13.302  20.471  0.00  0.00    +0.000 N 
ATOM     17  C   UNL     1      -4.025  14.572  20.920  0.00  0.00    +0.000 C 
ATOM     18  O   UNL     1      -5.169  14.954  20.688  0.00  0.00    +0.000 OA
ENDROOT
BRANCH  17  19
ATOM     19  C   UNL     1      -2.958  15.649  21.289  0.00  0.00    +0.000 A 
ATOM     20  C   UNL     1      -3.029  16.649  20.316  0.00  0.00    +0.000 A 
ATOM     21  C   UNL     1      -2.321  17.827  20.472  0.00  0.00    +0.000 A 
ATOM     22  C   UNL     1      -1.105  17.742  21.095  0.00  0.00    +0.000 A 
ATOM     23  C   UNL     1      -0.998  16.863  22.151  0.00  0.00    +0.000 A 
ATOM     24  C   UNL     1       0.079  17.138  23.000  0.00  0.00    +0.000 A 
ATOM     25  C   UNL     1       0.054  16.708  24.313  0.00  0.00    +0.000 A 
ATOM     26  C   UNL     1      -1.042  15.960  24.729  0.00  0.00    +0.000 A 
ATOM     27  C   UNL     1      -2.033  15.515  23.804  0.00  0.00    +0.000 A 
ATOM     28  C   UNL     1      -2.043  15.907  22.414  0.00  0.00    +0.000 A 
ENDBRANCH  17  19
BRANCH   1  29
ATOM     29  C   UNL     1      -5.757  12.780  18.862  0.00  0.00    +0.000 C 
ATOM     30  O   UNL     1      -5.764  13.424  17.815  0.00  0.00    +0.000 OA
BRANCH  29  31
ATOM     31  O   UNL     1      -6.886  12.539  19.606  0.00  0.00    +0.000 OA
BRANCH  31  33
ATOM     32  C   UNL     1      -7.253  10.171  20.075  0.00  0.00    +0.000 C 
ATOM     33  C   UNL     1      -6.801  11.510  20.619  0.00  0.00    +0.000 C 
ENDBRANCH  31  33
ENDBRANCH  29  31
ENDBRANCH   1  29
TORSDOF 4
ENDMDL
MODEL 9
REMARK VINA RESULT:      -6.7      2.668      6.007
REMARK  Name = 
REMARK  5 active torsions:
REMARK  status: ('A' for Active; 'I' for Inactive)
REMARK    1  A    between atoms: C_1  and  C_2
REMARK    2  A    between atoms: C_2  and  O_3
REMARK    3  A    between atoms: O_3  and  C_4
REMARK    4  A    between atoms: C_4  and  C_6
REMARK    5  A    between atoms: C_22  and  C_24
REMARK                            x       y       z     vdW  Elec       q    Type
REMARK                         _______ _______ _______ _____ _____    ______ ____
ROOT
ATOM      1  C   UNL     1      -0.534  12.789  22.434  0.00  0.00    +0.000 C 
ATOM      2  C   UNL     1       0.311  13.403  21.265  0.00  0.00    +0.000 A 
ATOM      3  C   UNL     1       1.548  12.967  20.791  0.00  0.00    +0.000 A 
ATOM      4  C   UNL     1       1.934  13.733  19.654  0.00  0.00    +0.000 A 
ATOM      5  C   UNL     1       0.951  14.670  19.480  0.00  0.00    +0.000 A 
ATOM      6  N   UNL     1       0.002  14.509  20.469  0.00  0.00    +0.000 N 
ATOM      7  S   UNL     1      -1.264  15.597  20.704  0.00  0.00    +0.000 S 
ATOM      8  O   UNL     1      -0.922  16.786  19.971  0.00  0.00    +0.000 OA
ATOM      9  O   UNL     1      -2.487  14.846  20.423  0.00  0.00    +0.000 OA
ATOM     10  C   UNL     1      -1.141  15.929  22.431  0.00  0.00    +0.000 A 
ATOM     11  C   UNL     1      -0.732  17.185  22.885  0.00  0.00    +0.000 A 
ATOM     12  C   UNL     1      -0.578  17.398  24.255  0.00  0.00    +0.000 A 
ATOM     13  C   UNL     1      -0.823  16.367  25.163  0.00  0.00    +0.000 A 
ATOM     14  C   UNL     1      -1.239  15.118  24.703  0.00  0.00    +0.000 A 
ATOM     15  C   UNL     1      -1.407  14.906  23.329  0.00  0.00    +0.000 A 
ATOM     16  N   UNL     1      -1.750  13.616  22.852  0.00  0.00    +0.000 N 
ATOM     17  C   UNL     1      -2.944  13.051  23.371  0.00  0.00    +0.000 C 
ATOM     18  O   UNL     1      -3.029  11.842  23.577  0.00  0.00    +0.000 OA
ENDROOT
BRANCH  17  19
ATOM     19  C   UNL     1      -4.270  13.864  23.246  0.00  0.00    +0.000 A 
ATOM     20  C   UNL     1      -5.220  13.016  22.670  0.00  0.00    +0.000 A 
ATOM     21  C   UNL     1      -6.545  13.402  22.593  0.00  0.00    +0.000 A 
ATOM     22  C   UNL     1      -6.793  14.733  22.392  0.00  0.00    +0.000 A 
ATOM     23  C   UNL     1      -5.969  15.632  23.035  0.00  0.00    +0.000 A 
ATOM     24  C   UNL     1      -6.523  16.910  23.155  0.00  0.00    +0.000 A 
ATOM     25  C   UNL     1      -6.092  17.760  24.156  0.00  0.00    +0.000 A 
ATOM     26  C   UNL     1      -5.069  17.318  24.987  0.00  0.00    +0.000 A 
ATOM     27  C   UNL     1      -4.376  16.097  24.727  0.00  0.00    +0.000 A 
ATOM     28  C   UNL     1      -4.761  15.183  23.678  0.00  0.00    +0.000 A 
ENDBRANCH  17  19
BRANCH   1  29
ATOM     29  C   UNL     1      -0.538  11.218  22.233  0.00  0.00    +0.000 C 
ATOM     30  O   UNL     1       0.042  10.444  22.992  0.00  0.00    +0.000 OA
BRANCH  29  31
ATOM     31  O   UNL     1      -1.065  10.836  21.024  0.00  0.00    +0.000 OA
BRANCH  31  33
ATOM     32  C   UNL     1      -0.218  10.242  18.813  0.00  0.00    +0.000 C 
ATOM     33  C   UNL     1      -0.333   9.843  20.269  0.00  0.00    +0.000 C 
ENDBRANCH  31  33
ENDBRANCH  29  31
ENDBRANCH   1  29
TORSDOF 4
ENDMDL
