MODEL 1
REMARK VINA RESULT:      -7.9      0.000      0.000
REMARK  Name = 
REMARK  10 active torsions:
REMARK  status: ('A' for Active; 'I' for Inactive)
REMARK    1  A    between atoms: C_2  and  O_19
REMARK    2  A    between atoms: N_3  and  C_4
REMARK    3  A    between atoms: C_4  and  C_5
REMARK    4  A    between atoms: C_4  and  C_12
REMARK    5  A    between atoms: C_5  and  C_6
REMARK    6  A    between atoms: N_14  and  C_15
REMARK    7  A    between atoms: C_15  and  C_16
REMARK    8  A    between atoms: N_17  and  O_18
REMARK    9  A    between atoms: O_19  and  C_20
REMARK   10  A    between atoms: C_20  and  C_21
REMARK                            x       y       z     vdW  Elec       q    Type
REMARK                         _______ _______ _______ _____ _____    ______ ____
ROOT
ATOM      1  C   UNL     1       3.315   6.546  18.443  0.00  0.00    +0.000 C 
ENDROOT
BRANCH   1   4
ATOM      2  O   UNL     1       2.140   9.653  17.104  0.00  0.00    +0.000 OA
ATOM      3  C   UNL     1       2.346   8.846  18.007  0.00  0.00    +0.000 C 
ATOM      4  N   UNL     1       3.335   7.922  17.917  0.00  0.00    +0.000 N 
ATOM      5  H   UNL     1       3.933   8.060  17.112  0.00  0.00    +0.000 HD
BRANCH   3   6
ATOM      6  O   UNL     1       1.653   8.770  19.157  0.00  0.00    +0.000 OA
BRANCH   6   7
ATOM      7  C   UNL     1       0.383   9.436  19.140  0.00  0.00    +0.000 C 
BRANCH   7   8
ATOM      8  C   UNL     1       0.091   9.744  20.580  0.00  0.00    +0.000 A 
ATOM      9  C   UNL     1      -0.001   8.717  21.529  0.00  0.00    +0.000 A 
ATOM     10  C   UNL     1      -0.409   8.998  22.827  0.00  0.00    +0.000 A 
ATOM     11  C   UNL     1      -0.734  10.307  23.189  0.00  0.00    +0.000 A 
ATOM     12  C   UNL     1      -0.637  11.338  22.254  0.00  0.00    +0.000 A 
ATOM     13  C   UNL     1      -0.223  11.058  20.954  0.00  0.00    +0.000 A 
ENDBRANCH   7   8
ENDBRANCH   6   7
ENDBRANCH   3   6
ENDBRANCH   1   4
BRANCH   1  14
ATOM     14  C   UNL     1       4.662   5.911  17.991  0.00  0.00    +0.000 C 
ATOM     15  O   UNL     1       4.755   4.720  17.678  0.00  0.00    +0.000 OA
ATOM     16  N   UNL     1       5.759   6.746  17.888  0.00  0.00    +0.000 N 
ATOM     17  H   UNL     1       5.744   7.671  18.302  0.00  0.00    +0.000 HD
BRANCH  16  18
ATOM     18  C   UNL     1       7.082   6.174  17.701  0.00  0.00    +0.000 C 
BRANCH  18  19
ATOM     19  C   UNL     1       7.822   6.004  19.008  0.00  0.00    +0.000 C 
ATOM     20  N   UNL     1       7.402   5.214  19.948  0.00  0.00    +0.000 NA
BRANCH  20  21
ATOM     21  O   UNL     1       8.314   5.269  21.010  0.00  0.00    +0.000 OA
ATOM     22  H   UNL     1       8.221   4.392  21.425  0.00  0.00    +0.000 HD
ENDBRANCH  20  21
ENDBRANCH  18  19
ENDBRANCH  16  18
ENDBRANCH   1  14
BRANCH   1  23
ATOM     23  C   UNL     1       2.075   5.759  17.942  0.00  0.00    +0.000 C 
BRANCH  23  24
ATOM     24  C   UNL     1       1.678   4.589  18.826  0.00  0.00    +0.000 A 
ATOM     25  C   UNL     1       1.664   4.711  20.223  0.00  0.00    +0.000 A 
ATOM     26  C   UNL     1       1.456   3.592  21.031  0.00  0.00    +0.000 A 
ATOM     27  C   UNL     1       1.258   2.339  20.455  0.00  0.00    +0.000 A 
ATOM     28  C   UNL     1       1.206   2.215  19.072  0.00  0.00    +0.000 A 
ATOM     29  C   UNL     1       1.380   3.338  18.267  0.00  0.00    +0.000 A 
ENDBRANCH  23  24
ENDBRANCH   1  23
TORSDOF 10
ENDMDL
MODEL 2
REMARK VINA RESULT:      -7.9      2.559      5.804
REMARK  Name = 
REMARK  10 active torsions:
REMARK  status: ('A' for Active; 'I' for Inactive)
REMARK    1  A    between atoms: C_2  and  O_19
REMARK    2  A    between atoms: N_3  and  C_4
REMARK    3  A    between atoms: C_4  and  C_5
REMARK    4  A    between atoms: C_4  and  C_12
REMARK    5  A    between atoms: C_5  and  C_6
REMARK    6  A    between atoms: N_14  and  C_15
REMARK    7  A    between atoms: C_15  and  C_16
REMARK    8  A    between atoms: N_17  and  O_18
REMARK    9  A    between atoms: O_19  and  C_20
REMARK   10  A    between atoms: C_20  and  C_21
REMARK                            x       y       z     vdW  Elec       q    Type
REMARK                         _______ _______ _______ _____ _____    ______ ____
ROOT
ATOM      1  C   UNL     1       4.526   6.017  17.303  0.00  0.00    +0.000 C 
ENDROOT
BRANCH   1   4
ATOM      2  O   UNL     1       6.520   5.092  20.130  0.00  0.00    +0.000 OA
ATOM      3  C   UNL     1       5.909   4.869  19.088  0.00  0.00    +0.000 C 
ATOM      4  N   UNL     1       5.708   5.842  18.164  0.00  0.00    +0.000 N 
ATOM      5  H   UNL     1       6.211   6.695  18.373  0.00  0.00    +0.000 HD
BRANCH   3   6
ATOM      6  O   UNL     1       5.380   3.685  18.734  0.00  0.00    +0.000 OA
BRANCH   6   7
ATOM      7  C   UNL     1       4.946   2.867  19.828  0.00  0.00    +0.000 C 
BRANCH   7   8
ATOM      8  C   UNL     1       3.448   2.847  19.723  0.00  0.00    +0.000 A 
ATOM      9  C   UNL     1       2.816   2.929  18.475  0.00  0.00    +0.000 A 
ATOM     10  C   UNL     1       1.433   3.050  18.398  0.00  0.00    +0.000 A 
ATOM     11  C   UNL     1       0.670   3.097  19.566  0.00  0.00    +0.000 A 
ATOM     12  C   UNL     1       1.290   3.006  20.813  0.00  0.00    +0.000 A 
ATOM     13  C   UNL     1       2.674   2.879  20.891  0.00  0.00    +0.000 A 
ENDBRANCH   7   8
ENDBRANCH   6   7
ENDBRANCH   3   6
ENDBRANCH   1   4
BRANCH   1  14
ATOM     14  C   UNL     1       5.030   5.762  15.853  0.00  0.00    +0.000 C 
ATOM     15  O   UNL     1       5.032   6.648  14.992  0.00  0.00    +0.000 OA
ATOM     16  N   UNL     1       5.540   4.511  15.565  0.00  0.00    +0.000 N 
ATOM     17  H   UNL     1       5.386   3.733  16.196  0.00  0.00    +0.000 HD
BRANCH  16  18
ATOM     18  C   UNL     1       5.805   4.143  14.184  0.00  0.00    +0.000 C 
BRANCH  18  19
ATOM     19  C   UNL     1       6.925   4.957  13.580  0.00  0.00    +0.000 C 
ATOM     20  N   UNL     1       8.027   5.207  14.218  0.00  0.00    +0.000 NA
BRANCH  20  21
ATOM     21  O   UNL     1       8.859   5.963  13.382  0.00  0.00    +0.000 OA
ATOM     22  H   UNL     1       8.308   6.739  13.166  0.00  0.00    +0.000 HD
ENDBRANCH  20  21
ENDBRANCH  18  19
ENDBRANCH  16  18
ENDBRANCH   1  14
BRANCH   1  23
ATOM     23  C   UNL     1       3.886   7.419  17.485  0.00  0.00    +0.000 C 
BRANCH  23  24
ATOM     24  C   UNL     1       2.833   7.489  18.579  0.00  0.00    +0.000 A 
ATOM     25  C   UNL     1       2.046   8.637  18.750  0.00  0.00    +0.000 A 
ATOM     26  C   UNL     1       1.198   8.757  19.852  0.00  0.00    +0.000 A 
ATOM     27  C   UNL     1       1.124   7.733  20.795  0.00  0.00    +0.000 A 
ATOM     28  C   UNL     1       1.851   6.565  20.603  0.00  0.00    +0.000 A 
ATOM     29  C   UNL     1       2.671   6.432  19.486  0.00  0.00    +0.000 A 
ENDBRANCH  23  24
ENDBRANCH   1  23
TORSDOF 10
ENDMDL
MODEL 3
REMARK VINA RESULT:      -7.9      2.362      6.479
REMARK  Name = 
REMARK  10 active torsions:
REMARK  status: ('A' for Active; 'I' for Inactive)
REMARK    1  A    between atoms: C_2  and  O_19
REMARK    2  A    between atoms: N_3  and  C_4
REMARK    3  A    between atoms: C_4  and  C_5
REMARK    4  A    between atoms: C_4  and  C_12
REMARK    5  A    between atoms: C_5  and  C_6
REMARK    6  A    between atoms: N_14  and  C_15
REMARK    7  A    between atoms: C_15  and  C_16
REMARK    8  A    between atoms: N_17  and  O_18
REMARK    9  A    between atoms: O_19  and  C_20
REMARK   10  A    between atoms: C_20  and  C_21
REMARK                            x       y       z     vdW  Elec       q    Type
REMARK                         _______ _______ _______ _____ _____    ______ ____
ROOT
ATOM      1  C   UNL     1       2.728   7.321  18.054  0.00  0.00    +0.000 C 
ENDROOT
BRANCH   1   4
ATOM      2  O   UNL     1       6.142   7.162  16.984  0.00  0.00    +0.000 OA
ATOM      3  C   UNL     1       4.955   6.847  16.944  0.00  0.00    +0.000 C 
ATOM      4  N   UNL     1       3.985   7.689  17.380  0.00  0.00    +0.000 N 
ATOM      5  H   UNL     1       4.335   8.611  17.609  0.00  0.00    +0.000 HD
BRANCH   3   6
ATOM      6  O   UNL     1       4.476   5.679  16.483  0.00  0.00    +0.000 OA
BRANCH   6   7
ATOM      7  C   UNL     1       5.402   4.586  16.529  0.00  0.00    +0.000 C 
BRANCH   7   8
ATOM      8  C   UNL     1       4.841   3.649  17.559  0.00  0.00    +0.000 A 
ATOM      9  C   UNL     1       5.191   3.775  18.910  0.00  0.00    +0.000 A 
ATOM     10  C   UNL     1       4.779   2.820  19.832  0.00  0.00    +0.000 A 
ATOM     11  C   UNL     1       4.018   1.727  19.412  0.00  0.00    +0.000 A 
ATOM     12  C   UNL     1       3.656   1.598  18.071  0.00  0.00    +0.000 A 
ATOM     13  C   UNL     1       4.064   2.557  17.147  0.00  0.00    +0.000 A 
ENDBRANCH   7   8
ENDBRANCH   6   7
ENDBRANCH   3   6
ENDBRANCH   1   4
BRANCH   1  14
ATOM     14  C   UNL     1       1.983   8.665  18.301  0.00  0.00    +0.000 C 
ATOM     15  O   UNL     1       1.840   9.511  17.412  0.00  0.00    +0.000 OA
ATOM     16  N   UNL     1       1.422   8.864  19.548  0.00  0.00    +0.000 N 
ATOM     17  H   UNL     1       1.676   8.271  20.329  0.00  0.00    +0.000 HD
BRANCH  16  18
ATOM     18  C   UNL     1       0.923  10.181  19.909  0.00  0.00    +0.000 C 
BRANCH  18  19
ATOM     19  C   UNL     1       0.328  10.206  21.298  0.00  0.00    +0.000 C 
ATOM     20  N   UNL     1       0.174  11.307  21.969  0.00  0.00    +0.000 NA
BRANCH  20  21
ATOM     21  O   UNL     1      -0.416  10.993  23.200  0.00  0.00    +0.000 OA
ATOM     22  H   UNL     1      -1.080  11.698  23.312  0.00  0.00    +0.000 HD
ENDBRANCH  20  21
ENDBRANCH  18  19
ENDBRANCH  16  18
ENDBRANCH   1  14
BRANCH   1  23
ATOM     23  C   UNL     1       2.989   6.524  19.359  0.00  0.00    +0.000 C 
BRANCH  23  24
ATOM     24  C   UNL     1       2.093   5.310  19.541  0.00  0.00    +0.000 A 
ATOM     25  C   UNL     1       1.903   4.735  20.806  0.00  0.00    +0.000 A 
ATOM     26  C   UNL     1       1.213   3.530  20.941  0.00  0.00    +0.000 A 
ATOM     27  C   UNL     1       0.703   2.884  19.817  0.00  0.00    +0.000 A 
ATOM     28  C   UNL     1       0.829   3.475  18.565  0.00  0.00    +0.000 A 
ATOM     29  C   UNL     1       1.488   4.695  18.435  0.00  0.00    +0.000 A 
ENDBRANCH  23  24
ENDBRANCH   1  23
TORSDOF 10
ENDMDL
MODEL 4
REMARK VINA RESULT:      -7.7      3.895      6.490
REMARK  Name = 
REMARK  10 active torsions:
REMARK  status: ('A' for Active; 'I' for Inactive)
REMARK    1  A    between atoms: C_2  and  O_19
REMARK    2  A    between atoms: N_3  and  C_4
REMARK    3  A    between atoms: C_4  and  C_5
REMARK    4  A    between atoms: C_4  and  C_12
REMARK    5  A    between atoms: C_5  and  C_6
REMARK    6  A    between atoms: N_14  and  C_15
REMARK    7  A    between atoms: C_15  and  C_16
REMARK    8  A    between atoms: N_17  and  O_18
REMARK    9  A    between atoms: O_19  and  C_20
REMARK   10  A    between atoms: C_20  and  C_21
REMARK                            x       y       z     vdW  Elec       q    Type
REMARK                         _______ _______ _______ _____ _____    ______ ____
ROOT
ATOM      1  C   UNL     1       7.071   5.038  16.695  0.00  0.00    +0.000 C 
ENDROOT
BRANCH   1   4
ATOM      2  O   UNL     1       6.548   4.833  20.232  0.00  0.00    +0.000 OA
ATOM      3  C   UNL     1       6.202   4.742  19.057  0.00  0.00    +0.000 C 
ATOM      4  N   UNL     1       7.106   4.512  18.071  0.00  0.00    +0.000 N 
ATOM      5  H   UNL     1       8.032   4.306  18.423  0.00  0.00    +0.000 HD
BRANCH   3   6
ATOM      6  O   UNL     1       4.941   4.852  18.606  0.00  0.00    +0.000 OA
BRANCH   6   7
ATOM      7  C   UNL     1       4.044   5.544  19.484  0.00  0.00    +0.000 C 
BRANCH   7   8
ATOM      8  C   UNL     1       2.810   4.690  19.525  0.00  0.00    +0.000 A 
ATOM      9  C   UNL     1       2.224   4.336  20.748  0.00  0.00    +0.000 A 
ATOM     10  C   UNL     1       1.168   3.433  20.781  0.00  0.00    +0.000 A 
ATOM     11  C   UNL     1       0.691   2.871  19.596  0.00  0.00    +0.000 A 
ATOM     12  C   UNL     1       1.262   3.225  18.373  0.00  0.00    +0.000 A 
ATOM     13  C   UNL     1       2.317   4.133  18.337  0.00  0.00    +0.000 A 
ENDBRANCH   7   8
ENDBRANCH   6   7
ENDBRANCH   3   6
ENDBRANCH   1   4
BRANCH   1  14
ATOM     14  C   UNL     1       6.840   6.570  16.845  0.00  0.00    +0.000 C 
ATOM     15  O   UNL     1       5.865   7.140  16.345  0.00  0.00    +0.000 OA
ATOM     16  N   UNL     1       7.740   7.279  17.618  0.00  0.00    +0.000 N 
ATOM     17  H   UNL     1       8.627   6.868  17.886  0.00  0.00    +0.000 HD
BRANCH  16  18
ATOM     18  C   UNL     1       7.712   8.732  17.603  0.00  0.00    +0.000 C 
BRANCH  18  19
ATOM     19  C   UNL     1       8.718   9.334  18.556  0.00  0.00    +0.000 C 
ATOM     20  N   UNL     1       9.149  10.553  18.435  0.00  0.00    +0.000 NA
BRANCH  20  21
ATOM     21  O   UNL     1      10.050  10.807  19.477  0.00  0.00    +0.000 OA
ATOM     22  H   UNL     1       9.486  11.209  20.163  0.00  0.00    +0.000 HD
ENDBRANCH  20  21
ENDBRANCH  18  19
ENDBRANCH  16  18
ENDBRANCH   1  14
BRANCH   1  23
ATOM     23  C   UNL     1       5.980   4.341  15.842  0.00  0.00    +0.000 C 
BRANCH  23  24
ATOM     24  C   UNL     1       6.278   4.307  14.352  0.00  0.00    +0.000 A 
ATOM     25  C   UNL     1       5.537   3.489  13.486  0.00  0.00    +0.000 A 
ATOM     26  C   UNL     1       5.919   3.340  12.152  0.00  0.00    +0.000 A 
ATOM     27  C   UNL     1       7.042   4.005  11.665  0.00  0.00    +0.000 A 
ATOM     28  C   UNL     1       7.747   4.867  12.496  0.00  0.00    +0.000 A 
ATOM     29  C   UNL     1       7.346   5.042  13.818  0.00  0.00    +0.000 A 
ENDBRANCH  23  24
ENDBRANCH   1  23
TORSDOF 10
ENDMDL
MODEL 5
REMARK VINA RESULT:      -7.6      2.323      6.742
REMARK  Name = 
REMARK  10 active torsions:
REMARK  status: ('A' for Active; 'I' for Inactive)
REMARK    1  A    between atoms: C_2  and  O_19
REMARK    2  A    between atoms: N_3  and  C_4
REMARK    3  A    between atoms: C_4  and  C_5
REMARK    4  A    between atoms: C_4  and  C_12
REMARK    5  A    between atoms: C_5  and  C_6
REMARK    6  A    between atoms: N_14  and  C_15
REMARK    7  A    between atoms: C_15  and  C_16
REMARK    8  A    between atoms: N_17  and  O_18
REMARK    9  A    between atoms: O_19  and  C_20
REMARK   10  A    between atoms: C_20  and  C_21
REMARK                            x       y       z     vdW  Elec       q    Type
REMARK                         _______ _______ _______ _____ _____    ______ ____
ROOT
ATOM      1  C   UNL     1       2.651   7.563  18.025  0.00  0.00    +0.000 C 
ENDROOT
BRANCH   1   4
ATOM      2  O   UNL     1       6.093   7.127  17.138  0.00  0.00    +0.000 OA
ATOM      3  C   UNL     1       4.894   6.870  17.071  0.00  0.00    +0.000 C 
ATOM      4  N   UNL     1       3.954   7.799  17.379  0.00  0.00    +0.000 N 
ATOM      5  H   UNL     1       4.345   8.719  17.536  0.00  0.00    +0.000 HD
BRANCH   3   6
ATOM      6  O   UNL     1       4.370   5.688  16.701  0.00  0.00    +0.000 OA
BRANCH   6   7
ATOM      7  C   UNL     1       5.297   4.595  16.688  0.00  0.00    +0.000 C 
BRANCH   7   8
ATOM      8  C   UNL     1       4.758   3.622  17.696  0.00  0.00    +0.000 A 
ATOM      9  C   UNL     1       5.036   3.775  19.061  0.00  0.00    +0.000 A 
ATOM     10  C   UNL     1       4.652   2.794  19.968  0.00  0.00    +0.000 A 
ATOM     11  C   UNL     1       3.992   1.649  19.519  0.00  0.00    +0.000 A 
ATOM     12  C   UNL     1       3.702   1.492  18.163  0.00  0.00    +0.000 A 
ATOM     13  C   UNL     1       4.082   2.476  17.255  0.00  0.00    +0.000 A 
ENDBRANCH   7   8
ENDBRANCH   6   7
ENDBRANCH   3   6
ENDBRANCH   1   4
BRANCH   1  14
ATOM     14  C   UNL     1       2.008   8.971  18.184  0.00  0.00    +0.000 C 
ATOM     15  O   UNL     1       2.236   9.892  17.392  0.00  0.00    +0.000 OA
ATOM     16  N   UNL     1       1.110   9.150  19.219  0.00  0.00    +0.000 N 
ATOM     17  H   UNL     1       1.046   8.472  19.970  0.00  0.00    +0.000 HD
BRANCH  16  18
ATOM     18  C   UNL     1       0.662  10.490  19.558  0.00  0.00    +0.000 C 
BRANCH  18  19
ATOM     19  C   UNL     1      -0.393  10.999  18.604  0.00  0.00    +0.000 C 
ATOM     20  N   UNL     1      -0.594  12.265  18.400  0.00  0.00    +0.000 NA
BRANCH  20  21
ATOM     21  O   UNL     1      -1.619  12.402  17.455  0.00  0.00    +0.000 OA
ATOM     22  H   UNL     1      -1.159  12.782  16.684  0.00  0.00    +0.000 HD
ENDBRANCH  20  21
ENDBRANCH  18  19
ENDBRANCH  16  18
ENDBRANCH   1  14
BRANCH   1  23
ATOM     23  C   UNL     1       2.806   6.812  19.372  0.00  0.00    +0.000 C 
BRANCH  23  24
ATOM     24  C   UNL     1       1.990   5.533  19.474  0.00  0.00    +0.000 A 
ATOM     25  C   UNL     1       1.727   4.942  20.719  0.00  0.00    +0.000 A 
ATOM     26  C   UNL     1       1.118   3.688  20.793  0.00  0.00    +0.000 A 
ATOM     27  C   UNL     1       0.764   3.011  19.628  0.00  0.00    +0.000 A 
ATOM     28  C   UNL     1       0.961   3.614  18.392  0.00  0.00    +0.000 A 
ATOM     29  C   UNL     1       1.537   4.879  18.320  0.00  0.00    +0.000 A 
ENDBRANCH  23  24
ENDBRANCH   1  23
TORSDOF 10
ENDMDL
MODEL 6
REMARK VINA RESULT:      -7.5      3.142      5.057
REMARK  Name = 
REMARK  10 active torsions:
REMARK  status: ('A' for Active; 'I' for Inactive)
REMARK    1  A    between atoms: C_2  and  O_19
REMARK    2  A    between atoms: N_3  and  C_4
REMARK    3  A    between atoms: C_4  and  C_5
REMARK    4  A    between atoms: C_4  and  C_12
REMARK    5  A    between atoms: C_5  and  C_6
REMARK    6  A    between atoms: N_14  and  C_15
REMARK    7  A    between atoms: C_15  and  C_16
REMARK    8  A    between atoms: N_17  and  O_18
REMARK    9  A    between atoms: O_19  and  C_20
REMARK   10  A    between atoms: C_20  and  C_21
REMARK                            x       y       z     vdW  Elec       q    Type
REMARK                         _______ _______ _______ _____ _____    ______ ____
ROOT
ATOM      1  C   UNL     1       5.311   5.514  17.045  0.00  0.00    +0.000 C 
ENDROOT
BRANCH   1   4
ATOM      2  O   UNL     1       2.898   8.154  17.233  0.00  0.00    +0.000 OA
ATOM      3  C   UNL     1       3.661   7.319  17.710  0.00  0.00    +0.000 C 
ATOM      4  N   UNL     1       4.742   6.873  17.022  0.00  0.00    +0.000 N 
ATOM      5  H   UNL     1       4.903   7.386  16.164  0.00  0.00    +0.000 HD
BRANCH   3   6
ATOM      6  O   UNL     1       3.538   6.756  18.925  0.00  0.00    +0.000 OA
BRANCH   6   7
ATOM      7  C   UNL     1       2.211   6.778  19.468  0.00  0.00    +0.000 C 
BRANCH   7   8
ATOM      8  C   UNL     1       1.948   5.365  19.900  0.00  0.00    +0.000 A 
ATOM      9  C   UNL     1       1.188   4.501  19.101  0.00  0.00    +0.000 A 
ATOM     10  C   UNL     1       0.833   3.242  19.573  0.00  0.00    +0.000 A 
ATOM     11  C   UNL     1       1.229   2.838  20.849  0.00  0.00    +0.000 A 
ATOM     12  C   UNL     1       1.995   3.688  21.648  0.00  0.00    +0.000 A 
ATOM     13  C   UNL     1       2.356   4.946  21.174  0.00  0.00    +0.000 A 
ENDBRANCH   7   8
ENDBRANCH   6   7
ENDBRANCH   3   6
ENDBRANCH   1   4
BRANCH   1  14
ATOM     14  C   UNL     1       6.382   5.496  15.917  0.00  0.00    +0.000 C 
ATOM     15  O   UNL     1       7.358   6.254  15.923  0.00  0.00    +0.000 OA
ATOM     16  N   UNL     1       6.243   4.550  14.918  0.00  0.00    +0.000 N 
ATOM     17  H   UNL     1       5.371   4.047  14.802  0.00  0.00    +0.000 HD
BRANCH  16  18
ATOM     18  C   UNL     1       7.070   4.636  13.727  0.00  0.00    +0.000 C 
BRANCH  18  19
ATOM     19  C   UNL     1       6.516   3.815  12.585  0.00  0.00    +0.000 C 
ATOM     20  N   UNL     1       5.326   3.299  12.613  0.00  0.00    +0.000 NA
BRANCH  20  21
ATOM     21  O   UNL     1       5.112   2.619  11.407  0.00  0.00    +0.000 OA
ATOM     22  H   UNL     1       4.626   3.271  10.869  0.00  0.00    +0.000 HD
ENDBRANCH  20  21
ENDBRANCH  18  19
ENDBRANCH  16  18
ENDBRANCH   1  14
BRANCH   1  23
ATOM     23  C   UNL     1       4.216   4.432  16.859  0.00  0.00    +0.000 C 
BRANCH  23  24
ATOM     24  C   UNL     1       4.296   3.283  17.851  0.00  0.00    +0.000 A 
ATOM     25  C   UNL     1       3.658   2.061  17.595  0.00  0.00    +0.000 A 
ATOM     26  C   UNL     1       3.599   1.072  18.577  0.00  0.00    +0.000 A 
ATOM     27  C   UNL     1       4.178   1.289  19.826  0.00  0.00    +0.000 A 
ATOM     28  C   UNL     1       4.868   2.470  20.071  0.00  0.00    +0.000 A 
ATOM     29  C   UNL     1       4.955   3.443  19.079  0.00  0.00    +0.000 A 
ENDBRANCH  23  24
ENDBRANCH   1  23
TORSDOF 10
ENDMDL
MODEL 7
REMARK VINA RESULT:      -7.5      3.152      6.733
REMARK  Name = 
REMARK  10 active torsions:
REMARK  status: ('A' for Active; 'I' for Inactive)
REMARK    1  A    between atoms: C_2  and  O_19
REMARK    2  A    between atoms: N_3  and  C_4
REMARK    3  A    between atoms: C_4  and  C_5
REMARK    4  A    between atoms: C_4  and  C_12
REMARK    5  A    between atoms: C_5  and  C_6
REMARK    6  A    between atoms: N_14  and  C_15
REMARK    7  A    between atoms: C_15  and  C_16
REMARK    8  A    between atoms: N_17  and  O_18
REMARK    9  A    between atoms: O_19  and  C_20
REMARK   10  A    between atoms: C_20  and  C_21
REMARK                            x       y       z     vdW  Elec       q    Type
REMARK                         _______ _______ _______ _____ _____    ______ ____
ROOT
ATOM      1  C   UNL     1       6.718   5.573  16.615  0.00  0.00    +0.000 C 
ENDROOT
BRANCH   1   4
ATOM      2  O   UNL     1       7.144   5.303  20.160  0.00  0.00    +0.000 OA
ATOM      3  C   UNL     1       6.584   5.065  19.093  0.00  0.00    +0.000 C 
ATOM      4  N   UNL     1       7.252   5.130  17.914  0.00  0.00    +0.000 N 
ATOM      5  H   UNL     1       8.249   5.265  18.032  0.00  0.00    +0.000 HD
BRANCH   3   6
ATOM      6  O   UNL     1       5.292   4.723  18.951  0.00  0.00    +0.000 OA
BRANCH   6   7
ATOM      7  C   UNL     1       4.975   3.384  19.355  0.00  0.00    +0.000 C 
BRANCH   7   8
ATOM      8  C   UNL     1       3.477   3.357  19.456  0.00  0.00    +0.000 A 
ATOM      9  C   UNL     1       2.845   3.031  20.663  0.00  0.00    +0.000 A 
ATOM     10  C   UNL     1       1.465   2.871  20.710  0.00  0.00    +0.000 A 
ATOM     11  C   UNL     1       0.704   3.030  19.550  0.00  0.00    +0.000 A 
ATOM     12  C   UNL     1       1.324   3.364  18.345  0.00  0.00    +0.000 A 
ATOM     13  C   UNL     1       2.705   3.529  18.298  0.00  0.00    +0.000 A 
ENDBRANCH   7   8
ENDBRANCH   6   7
ENDBRANCH   3   6
ENDBRANCH   1   4
BRANCH   1  14
ATOM     14  C   UNL     1       5.797   6.785  16.938  0.00  0.00    +0.000 C 
ATOM     15  O   UNL     1       6.246   7.921  17.126  0.00  0.00    +0.000 OA
ATOM     16  N   UNL     1       4.433   6.565  16.951  0.00  0.00    +0.000 N 
ATOM     17  H   UNL     1       4.063   5.622  16.974  0.00  0.00    +0.000 HD
BRANCH  16  18
ATOM     18  C   UNL     1       3.544   7.591  17.471  0.00  0.00    +0.000 C 
BRANCH  18  19
ATOM     19  C   UNL     1       2.596   7.050  18.515  0.00  0.00    +0.000 C 
ATOM     20  N   UNL     1       2.928   6.934  19.765  0.00  0.00    +0.000 NA
BRANCH  20  21
ATOM     21  O   UNL     1       1.829   6.423  20.467  0.00  0.00    +0.000 OA
ATOM     22  H   UNL     1       2.173   6.326  21.374  0.00  0.00    +0.000 HD
ENDBRANCH  20  21
ENDBRANCH  18  19
ENDBRANCH  16  18
ENDBRANCH   1  14
BRANCH   1  23
ATOM     23  C   UNL     1       5.976   4.428  15.878  0.00  0.00    +0.000 C 
BRANCH  23  24
ATOM     24  C   UNL     1       6.386   4.248  14.426  0.00  0.00    +0.000 A 
ATOM     25  C   UNL     1       7.435   4.998  13.874  0.00  0.00    +0.000 A 
ATOM     26  C   UNL     1       7.699   4.946  12.504  0.00  0.00    +0.000 A 
ATOM     27  C   UNL     1       6.921   4.146  11.670  0.00  0.00    +0.000 A 
ATOM     28  C   UNL     1       5.920   3.350  12.214  0.00  0.00    +0.000 A 
ATOM     29  C   UNL     1       5.680   3.376  13.585  0.00  0.00    +0.000 A 
ENDBRANCH  23  24
ENDBRANCH   1  23
TORSDOF 10
ENDMDL
MODEL 8
REMARK VINA RESULT:      -7.4      1.282      1.989
REMARK  Name = 
REMARK  10 active torsions:
REMARK  status: ('A' for Active; 'I' for Inactive)
REMARK    1  A    between atoms: C_2  and  O_19
REMARK    2  A    between atoms: N_3  and  C_4
REMARK    3  A    between atoms: C_4  and  C_5
REMARK    4  A    between atoms: C_4  and  C_12
REMARK    5  A    between atoms: C_5  and  C_6
REMARK    6  A    between atoms: N_14  and  C_15
REMARK    7  A    between atoms: C_15  and  C_16
REMARK    8  A    between atoms: N_17  and  O_18
REMARK    9  A    between atoms: O_19  and  C_20
REMARK   10  A    between atoms: C_20  and  C_21
REMARK                            x       y       z     vdW  Elec       q    Type
REMARK                         _______ _______ _______ _____ _____    ______ ____
ROOT
ATOM      1  C   UNL     1       3.234   6.576  18.612  0.00  0.00    +0.000 C 
ENDROOT
BRANCH   1   4
ATOM      2  O   UNL     1       2.138   9.628  17.093  0.00  0.00    +0.000 OA
ATOM      3  C   UNL     1       2.290   8.855  18.036  0.00  0.00    +0.000 C 
ATOM      4  N   UNL     1       3.284   7.932  18.039  0.00  0.00    +0.000 N 
ATOM      5  H   UNL     1       3.928   8.042  17.266  0.00  0.00    +0.000 HD
BRANCH   3   6
ATOM      6  O   UNL     1       1.530   8.820  19.144  0.00  0.00    +0.000 OA
BRANCH   6   7
ATOM      7  C   UNL     1       0.465   9.779  19.176  0.00  0.00    +0.000 C 
BRANCH   7   8
ATOM      8  C   UNL     1       0.158   9.965  20.634  0.00  0.00    +0.000 A 
ATOM      9  C   UNL     1       0.435   8.951  21.560  0.00  0.00    +0.000 A 
ATOM     10  C   UNL     1       0.020   9.077  22.880  0.00  0.00    +0.000 A 
ATOM     11  C   UNL     1      -0.681  10.214  23.287  0.00  0.00    +0.000 A 
ATOM     12  C   UNL     1      -0.953  11.233  22.373  0.00  0.00    +0.000 A 
ATOM     13  C   UNL     1      -0.533  11.111  21.052  0.00  0.00    +0.000 A 
ENDBRANCH   7   8
ENDBRANCH   6   7
ENDBRANCH   3   6
ENDBRANCH   1   4
BRANCH   1  14
ATOM     14  C   UNL     1       4.616   5.939  18.289  0.00  0.00    +0.000 C 
ATOM     15  O   UNL     1       5.167   5.140  19.052  0.00  0.00    +0.000 OA
ATOM     16  N   UNL     1       5.194   6.251  17.073  0.00  0.00    +0.000 N 
ATOM     17  H   UNL     1       4.849   7.028  16.521  0.00  0.00    +0.000 HD
BRANCH  16  18
ATOM     18  C   UNL     1       6.576   5.879  16.817  0.00  0.00    +0.000 C 
BRANCH  18  19
ATOM     19  C   UNL     1       6.688   4.713  15.863  0.00  0.00    +0.000 C 
ATOM     20  N   UNL     1       5.999   4.644  14.765  0.00  0.00    +0.000 NA
BRANCH  20  21
ATOM     21  O   UNL     1       6.343   3.459  14.103  0.00  0.00    +0.000 OA
ATOM     22  H   UNL     1       6.503   2.836  14.835  0.00  0.00    +0.000 HD
ENDBRANCH  20  21
ENDBRANCH  18  19
ENDBRANCH  16  18
ENDBRANCH   1  14
BRANCH   1  23
ATOM     23  C   UNL     1       2.043   5.758  18.048  0.00  0.00    +0.000 C 
BRANCH  23  24
ATOM     24  C   UNL     1       1.689   4.524  18.861  0.00  0.00    +0.000 A 
ATOM     25  C   UNL     1       1.464   4.611  20.243  0.00  0.00    +0.000 A 
ATOM     26  C   UNL     1       1.300   3.455  21.008  0.00  0.00    +0.000 A 
ATOM     27  C   UNL     1       1.357   2.200  20.404  0.00  0.00    +0.000 A 
ATOM     28  C   UNL     1       1.516   2.104  19.027  0.00  0.00    +0.000 A 
ATOM     29  C   UNL     1       1.646   3.258  18.260  0.00  0.00    +0.000 A 
ENDBRANCH  23  24
ENDBRANCH   1  23
TORSDOF 10
ENDMDL
MODEL 9
REMARK VINA RESULT:      -7.4      0.840      1.308
REMARK  Name = 
REMARK  10 active torsions:
REMARK  status: ('A' for Active; 'I' for Inactive)
REMARK    1  A    between atoms: C_2  and  O_19
REMARK    2  A    between atoms: N_3  and  C_4
REMARK    3  A    between atoms: C_4  and  C_5
REMARK    4  A    between atoms: C_4  and  C_12
REMARK    5  A    between atoms: C_5  and  C_6
REMARK    6  A    between atoms: N_14  and  C_15
REMARK    7  A    between atoms: C_15  and  C_16
REMARK    8  A    between atoms: N_17  and  O_18
REMARK    9  A    between atoms: O_19  and  C_20
REMARK   10  A    between atoms: C_20  and  C_21
REMARK                            x       y       z     vdW  Elec       q    Type
REMARK                         _______ _______ _______ _____ _____    ______ ____
ROOT
ATOM      1  C   UNL     1       3.052   6.909  18.184  0.00  0.00    +0.000 C 
ENDROOT
BRANCH   1   4
ATOM      2  O   UNL     1       0.878   9.684  17.557  0.00  0.00    +0.000 OA
ATOM      3  C   UNL     1       1.670   9.032  18.231  0.00  0.00    +0.000 C 
ATOM      4  N   UNL     1       2.568   8.195  17.653  0.00  0.00    +0.000 N 
ATOM      5  H   UNL     1       2.587   8.272  16.644  0.00  0.00    +0.000 HD
BRANCH   3   6
ATOM      6  O   UNL     1       1.756   9.056  19.573  0.00  0.00    +0.000 OA
BRANCH   6   7
ATOM      7  C   UNL     1       0.663   8.431  20.258  0.00  0.00    +0.000 C 
BRANCH   7   8
ATOM      8  C   UNL     1       0.109   9.500  21.155  0.00  0.00    +0.000 A 
ATOM      9  C   UNL     1      -0.088   9.259  22.521  0.00  0.00    +0.000 A 
ATOM     10  C   UNL     1      -0.729  10.203  23.313  0.00  0.00    +0.000 A 
ATOM     11  C   UNL     1      -1.187  11.395  22.747  0.00  0.00    +0.000 A 
ATOM     12  C   UNL     1      -0.987  11.648  21.390  0.00  0.00    +0.000 A 
ATOM     13  C   UNL     1      -0.340  10.705  20.596  0.00  0.00    +0.000 A 
ENDBRANCH   7   8
ENDBRANCH   6   7
ENDBRANCH   3   6
ENDBRANCH   1   4
BRANCH   1  14
ATOM     14  C   UNL     1       4.445   6.688  17.526  0.00  0.00    +0.000 C 
ATOM     15  O   UNL     1       4.598   6.669  16.301  0.00  0.00    +0.000 OA
ATOM     16  N   UNL     1       5.537   6.572  18.366  0.00  0.00    +0.000 N 
ATOM     17  H   UNL     1       5.410   6.411  19.358  0.00  0.00    +0.000 HD
BRANCH  16  18
ATOM     18  C   UNL     1       6.814   6.135  17.827  0.00  0.00    +0.000 C 
BRANCH  18  19
ATOM     19  C   UNL     1       7.811   5.806  18.914  0.00  0.00    +0.000 C 
ATOM     20  N   UNL     1       7.452   5.327  20.066  0.00  0.00    +0.000 NA
BRANCH  20  21
ATOM     21  O   UNL     1       8.605   5.116  20.834  0.00  0.00    +0.000 OA
ATOM     22  H   UNL     1       8.976   4.299  20.453  0.00  0.00    +0.000 HD
ENDBRANCH  20  21
ENDBRANCH  18  19
ENDBRANCH  16  18
ENDBRANCH   1  14
BRANCH   1  23
ATOM     23  C   UNL     1       2.055   5.757  17.894  0.00  0.00    +0.000 C 
BRANCH  23  24
ATOM     24  C   UNL     1       1.942   4.731  19.009  0.00  0.00    +0.000 A 
ATOM     25  C   UNL     1       1.285   3.509  18.802  0.00  0.00    +0.000 A 
ATOM     26  C   UNL     1       1.044   2.644  19.871  0.00  0.00    +0.000 A 
ATOM     27  C   UNL     1       1.457   2.986  21.157  0.00  0.00    +0.000 A 
ATOM     28  C   UNL     1       2.165   4.164  21.364  0.00  0.00    +0.000 A 
ATOM     29  C   UNL     1       2.435   5.011  20.292  0.00  0.00    +0.000 A 
ENDBRANCH  23  24
ENDBRANCH   1  23
TORSDOF 10
ENDMDL
