MODEL 1
REMARK VINA RESULT:      -6.9      0.000      0.000
REMARK  Name = 
REMARK  14 active torsions:
REMARK  status: ('A' for Active; 'I' for Inactive)
REMARK    1  A    between atoms: C_1  and  C_2
REMARK    2  A    between atoms: C_11  and  O_12
REMARK    3  A    between atoms: O_12  and  C_13
REMARK    4  A    between atoms: C_13  and  C_15
REMARK    5  A    between atoms: C_15  and  C_16
REMARK    6  A    between atoms: C_16  and  C_17
REMARK    7  A    between atoms: C_17  and  C_18
REMARK    8  A    between atoms: C_18  and  C_19
REMARK    9  A    between atoms: C_19  and  C_20
REMARK   10  A    between atoms: C_20  and  C_21
REMARK   11  A    between atoms: C_21  and  C_22
REMARK   12  A    between atoms: C_22  and  C_23
REMARK   13  A    between atoms: C_23  and  O_25
REMARK   14  A    between atoms: C_28  and  C_29
REMARK                            x       y       z     vdW  Elec       q    Type
REMARK                         _______ _______ _______ _____ _____    ______ ____
ROOT
ATOM      1  C   UNL     1      -3.339  13.644  20.926  0.00  0.00    +0.000 C 
ATOM      2  C   UNL     1      -1.916  13.929  21.436  0.00  0.00    +0.000 C 
ATOM      3  C   UNL     1      -0.911  14.003  20.292  0.00  0.00    +0.000 C 
ATOM      4  C   UNL     1      -0.672  12.611  19.693  0.00  0.00    +0.000 C 
ATOM      5  C   UNL     1      -0.282  11.537  20.745  0.00  0.00    +0.000 C 
ATOM      6  C   UNL     1      -1.275  11.511  21.945  0.00  0.00    +0.000 C 
ATOM      7  C   UNL     1      -0.786  10.543  23.033  0.00  0.00    +0.000 C 
ATOM      8  C   UNL     1      -0.232   9.260  22.497  0.00  0.00    +0.000 C 
ATOM      9  C   UNL     1       0.097   9.040  21.212  0.00  0.00    +0.000 C 
ATOM     10  C   UNL     1       0.653   7.695  20.779  0.00  0.00    +0.000 C 
ATOM     11  C   UNL     1       1.950   7.812  19.958  0.00  0.00    +0.000 C 
ATOM     12  C   UNL     1       1.748   8.801  18.801  0.00  0.00    +0.000 C 
ATOM     13  C   UNL     1       1.285  10.164  19.313  0.00  0.00    +0.000 C 
ATOM     14  C   UNL     1      -0.043  10.110  20.123  0.00  0.00    +0.000 C 
ATOM     15  C   UNL     1      -1.214   9.694  19.203  0.00  0.00    +0.000 C 
ATOM     16  C   UNL     1      -1.378  12.943  22.490  0.00  0.00    +0.000 C 
ATOM     17  C   UNL     1      -2.200  13.239  23.741  0.00  0.00    +0.000 C 
ATOM     18  C   UNL     1      -2.230  14.777  23.772  0.00  0.00    +0.000 C 
ATOM     19  C   UNL     1      -2.013  15.158  22.317  0.00  0.00    +0.000 C 
ATOM     20  O   UNL     1      -1.960  16.311  21.912  0.00  0.00    +0.000 OA
ENDROOT
BRANCH  11  21
ATOM     21  O   UNL     1       2.300   6.541  19.389  0.00  0.00    +0.000 OA
BRANCH  21  22
ATOM     22  C   UNL     1       2.048   5.426  20.119  0.00  0.00    +0.000 C 
ATOM     23  O   UNL     1       2.333   5.271  21.285  0.00  0.00    +0.000 OA
BRANCH  22  24
ATOM     24  C   UNL     1       1.351   4.343  19.297  0.00  0.00    +0.000 C 
BRANCH  24  25
ATOM     25  C   UNL     1       2.294   3.225  18.880  0.00  0.00    +0.000 C 
BRANCH  25  26
ATOM     26  C   UNL     1       2.679   3.352  17.415  0.00  0.00    +0.000 C 
BRANCH  26  27
ATOM     27  C   UNL     1       4.187   3.513  17.269  0.00  0.00    +0.000 C 
BRANCH  27  28
ATOM     28  C   UNL     1       4.536   4.878  16.678  0.00  0.00    +0.000 C 
BRANCH  28  29
ATOM     29  C   UNL     1       4.992   5.868  17.756  0.00  0.00    +0.000 C 
BRANCH  29  30
ATOM     30  C   UNL     1       5.968   5.201  18.721  0.00  0.00    +0.000 C 
BRANCH  30  31
ATOM     31  C   UNL     1       7.412   5.260  18.237  0.00  0.00    +0.000 C 
BRANCH  31  32
ATOM     32  C   UNL     1       7.707   6.622  17.651  0.00  0.00    +0.000 C 
ATOM     33  O   UNL     1       7.982   7.625  18.299  0.00  0.00    +0.000 OA
BRANCH  32  34
ATOM     34  O   UNL     1       7.637   6.643  16.307  0.00  0.00    +0.000 OA
ATOM     35  H   UNL     1       8.159   7.355  15.889  0.00  0.00    +0.000 HD
ENDBRANCH  32  34
ENDBRANCH  31  32
ENDBRANCH  30  31
ENDBRANCH  29  30
ENDBRANCH  28  29
ENDBRANCH  27  28
ENDBRANCH  26  27
ENDBRANCH  25  26
ENDBRANCH  24  25
ENDBRANCH  22  24
ENDBRANCH  21  22
ENDBRANCH  11  21
TORSDOF 12
ENDMDL
MODEL 2
REMARK VINA RESULT:      -6.9      1.624      2.855
REMARK  Name = 
REMARK  14 active torsions:
REMARK  status: ('A' for Active; 'I' for Inactive)
REMARK    1  A    between atoms: C_1  and  C_2
REMARK    2  A    between atoms: C_11  and  O_12
REMARK    3  A    between atoms: O_12  and  C_13
REMARK    4  A    between atoms: C_13  and  C_15
REMARK    5  A    between atoms: C_15  and  C_16
REMARK    6  A    between atoms: C_16  and  C_17
REMARK    7  A    between atoms: C_17  and  C_18
REMARK    8  A    between atoms: C_18  and  C_19
REMARK    9  A    between atoms: C_19  and  C_20
REMARK   10  A    between atoms: C_20  and  C_21
REMARK   11  A    between atoms: C_21  and  C_22
REMARK   12  A    between atoms: C_22  and  C_23
REMARK   13  A    between atoms: C_23  and  O_25
REMARK   14  A    between atoms: C_28  and  C_29
REMARK                            x       y       z     vdW  Elec       q    Type
REMARK                         _______ _______ _______ _____ _____    ______ ____
ROOT
ATOM      1  C   UNL     1      -0.837  13.404  22.769  0.00  0.00    +0.000 C 
ATOM      2  C   UNL     1      -1.896  12.347  22.409  0.00  0.00    +0.000 C 
ATOM      3  C   UNL     1      -1.694  11.057  23.197  0.00  0.00    +0.000 C 
ATOM      4  C   UNL     1      -0.443  10.315  22.705  0.00  0.00    +0.000 C 
ATOM      5  C   UNL     1      -0.423  10.073  21.171  0.00  0.00    +0.000 C 
ATOM      6  C   UNL     1      -0.696  11.382  20.373  0.00  0.00    +0.000 C 
ATOM      7  C   UNL     1      -0.811  11.087  18.870  0.00  0.00    +0.000 C 
ATOM      8  C   UNL     1       0.201  10.104  18.367  0.00  0.00    +0.000 C 
ATOM      9  C   UNL     1       0.961   9.315  19.145  0.00  0.00    +0.000 C 
ATOM     10  C   UNL     1       1.957   8.352  18.524  0.00  0.00    +0.000 C 
ATOM     11  C   UNL     1       1.829   6.916  19.064  0.00  0.00    +0.000 C 
ATOM     12  C   UNL     1       1.855   6.931  20.600  0.00  0.00    +0.000 C 
ATOM     13  C   UNL     1       0.763   7.840  21.162  0.00  0.00    +0.000 C 
ATOM     14  C   UNL     1       0.865   9.316  20.675  0.00  0.00    +0.000 C 
ATOM     15  C   UNL     1       2.151   9.973  21.226  0.00  0.00    +0.000 C 
ATOM     16  C   UNL     1      -1.998  11.991  20.914  0.00  0.00    +0.000 C 
ATOM     17  C   UNL     1      -2.599  13.235  20.268  0.00  0.00    +0.000 C 
ATOM     18  C   UNL     1      -3.714  13.626  21.255  0.00  0.00    +0.000 C 
ATOM     19  C   UNL     1      -3.245  13.019  22.566  0.00  0.00    +0.000 C 
ATOM     20  O   UNL     1      -3.866  13.096  23.617  0.00  0.00    +0.000 OA
ENDROOT
BRANCH  11  21
ATOM     21  O   UNL     1       2.931   6.111  18.618  0.00  0.00    +0.000 OA
BRANCH  21  22
ATOM     22  C   UNL     1       2.765   4.764  18.596  0.00  0.00    +0.000 C 
ATOM     23  O   UNL     1       2.322   4.097  19.503  0.00  0.00    +0.000 OA
BRANCH  22  24
ATOM     24  C   UNL     1       3.215   4.148  17.272  0.00  0.00    +0.000 C 
BRANCH  24  25
ATOM     25  C   UNL     1       4.725   4.006  17.174  0.00  0.00    +0.000 C 
BRANCH  25  26
ATOM     26  C   UNL     1       5.203   4.206  15.745  0.00  0.00    +0.000 C 
BRANCH  26  27
ATOM     27  C   UNL     1       5.868   5.567  15.586  0.00  0.00    +0.000 C 
BRANCH  27  28
ATOM     28  C   UNL     1       5.062   6.654  16.295  0.00  0.00    +0.000 C 
BRANCH  28  29
ATOM     29  C   UNL     1       5.952   7.556  17.157  0.00  0.00    +0.000 C 
BRANCH  29  30
ATOM     30  C   UNL     1       7.393   7.053  17.153  0.00  0.00    +0.000 C 
BRANCH  30  31
ATOM     31  C   UNL     1       7.950   6.843  18.556  0.00  0.00    +0.000 C 
BRANCH  31  32
ATOM     32  C   UNL     1       7.743   5.408  18.986  0.00  0.00    +0.000 C 
ATOM     33  O   UNL     1       8.020   4.422  18.314  0.00  0.00    +0.000 OA
BRANCH  32  34
ATOM     34  O   UNL     1       7.205   5.300  20.216  0.00  0.00    +0.000 OA
ATOM     35  H   UNL     1       7.494   5.992  20.841  0.00  0.00    +0.000 HD
ENDBRANCH  32  34
ENDBRANCH  31  32
ENDBRANCH  30  31
ENDBRANCH  29  30
ENDBRANCH  28  29
ENDBRANCH  27  28
ENDBRANCH  26  27
ENDBRANCH  25  26
ENDBRANCH  24  25
ENDBRANCH  22  24
ENDBRANCH  21  22
ENDBRANCH  11  21
TORSDOF 12
ENDMDL
MODEL 3
REMARK VINA RESULT:      -6.8      2.051      2.591
REMARK  Name = 
REMARK  14 active torsions:
REMARK  status: ('A' for Active; 'I' for Inactive)
REMARK    1  A    between atoms: C_1  and  C_2
REMARK    2  A    between atoms: C_11  and  O_12
REMARK    3  A    between atoms: O_12  and  C_13
REMARK    4  A    between atoms: C_13  and  C_15
REMARK    5  A    between atoms: C_15  and  C_16
REMARK    6  A    between atoms: C_16  and  C_17
REMARK    7  A    between atoms: C_17  and  C_18
REMARK    8  A    between atoms: C_18  and  C_19
REMARK    9  A    between atoms: C_19  and  C_20
REMARK   10  A    between atoms: C_20  and  C_21
REMARK   11  A    between atoms: C_21  and  C_22
REMARK   12  A    between atoms: C_22  and  C_23
REMARK   13  A    between atoms: C_23  and  O_25
REMARK   14  A    between atoms: C_28  and  C_29
REMARK                            x       y       z     vdW  Elec       q    Type
REMARK                         _______ _______ _______ _____ _____    ______ ____
ROOT
ATOM      1  C   UNL     1      -0.226  14.255  18.648  0.00  0.00    +0.000 C 
ATOM      2  C   UNL     1       1.194  14.067  19.207  0.00  0.00    +0.000 C 
ATOM      3  C   UNL     1       2.123  13.422  18.183  0.00  0.00    +0.000 C 
ATOM      4  C   UNL     1       1.753  11.947  17.974  0.00  0.00    +0.000 C 
ATOM      5  C   UNL     1       1.679  11.129  19.292  0.00  0.00    +0.000 C 
ATOM      6  C   UNL     1       0.783  11.825  20.359  0.00  0.00    +0.000 C 
ATOM      7  C   UNL     1       0.843  11.070  21.695  0.00  0.00    +0.000 C 
ATOM      8  C   UNL     1       0.806   9.580  21.549  0.00  0.00    +0.000 C 
ATOM      9  C   UNL     1       0.995   8.913  20.397  0.00  0.00    +0.000 C 
ATOM     10  C   UNL     1       0.937   7.396  20.367  0.00  0.00    +0.000 C 
ATOM     11  C   UNL     1       2.153   6.758  19.672  0.00  0.00    +0.000 C 
ATOM     12  C   UNL     1       2.361   7.398  18.291  0.00  0.00    +0.000 C 
ATOM     13  C   UNL     1       2.514   8.914  18.403  0.00  0.00    +0.000 C 
ATOM     14  C   UNL     1       1.295   9.618  19.069  0.00  0.00    +0.000 C 
ATOM     15  C   UNL     1       0.044   9.482  18.171  0.00  0.00    +0.000 C 
ATOM     16  C   UNL     1       1.290  13.266  20.520  0.00  0.00    +0.000 C 
ATOM     17  C   UNL     1       0.685  14.189  21.572  0.00  0.00    +0.000 C 
ATOM     18  C   UNL     1       1.296  15.556  21.218  0.00  0.00    +0.000 C 
ATOM     19  C   UNL     1       1.629  15.416  19.743  0.00  0.00    +0.000 C 
ATOM     20  O   UNL     1       2.149  16.296  19.072  0.00  0.00    +0.000 OA
ENDROOT
BRANCH  11  21
ATOM     21  O   UNL     1       1.936   5.352  19.471  0.00  0.00    +0.000 OA
BRANCH  21  22
ATOM     22  C   UNL     1       2.092   4.527  20.537  0.00  0.00    +0.000 C 
ATOM     23  O   UNL     1       2.634   4.820  21.578  0.00  0.00    +0.000 OA
BRANCH  22  24
ATOM     24  C   UNL     1       1.504   3.140  20.284  0.00  0.00    +0.000 C 
BRANCH  24  25
ATOM     25  C   UNL     1       0.967   2.979  18.870  0.00  0.00    +0.000 C 
BRANCH  25  26
ATOM     26  C   UNL     1       1.906   2.139  18.020  0.00  0.00    +0.000 C 
BRANCH  26  27
ATOM     27  C   UNL     1       3.335   2.242  18.537  0.00  0.00    +0.000 C 
BRANCH  27  28
ATOM     28  C   UNL     1       4.273   2.768  17.452  0.00  0.00    +0.000 C 
BRANCH  28  29
ATOM     29  C   UNL     1       3.752   4.067  16.827  0.00  0.00    +0.000 C 
BRANCH  29  30
ATOM     30  C   UNL     1       4.786   5.182  16.961  0.00  0.00    +0.000 C 
BRANCH  30  31
ATOM     31  C   UNL     1       5.963   4.794  17.848  0.00  0.00    +0.000 C 
BRANCH  31  32
ATOM     32  C   UNL     1       7.262   4.977  17.094  0.00  0.00    +0.000 C 
ATOM     33  O   UNL     1       7.474   5.842  16.252  0.00  0.00    +0.000 OA
BRANCH  32  34
ATOM     34  O   UNL     1       8.200   4.075  17.437  0.00  0.00    +0.000 OA
ATOM     35  H   UNL     1       8.256   3.307  16.837  0.00  0.00    +0.000 HD
ENDBRANCH  32  34
ENDBRANCH  31  32
ENDBRANCH  30  31
ENDBRANCH  29  30
ENDBRANCH  28  29
ENDBRANCH  27  28
ENDBRANCH  26  27
ENDBRANCH  25  26
ENDBRANCH  24  25
ENDBRANCH  22  24
ENDBRANCH  21  22
ENDBRANCH  11  21
TORSDOF 12
ENDMDL
MODEL 4
REMARK VINA RESULT:      -6.6      2.748      3.916
REMARK  Name = 
REMARK  14 active torsions:
REMARK  status: ('A' for Active; 'I' for Inactive)
REMARK    1  A    between atoms: C_1  and  C_2
REMARK    2  A    between atoms: C_11  and  O_12
REMARK    3  A    between atoms: O_12  and  C_13
REMARK    4  A    between atoms: C_13  and  C_15
REMARK    5  A    between atoms: C_15  and  C_16
REMARK    6  A    between atoms: C_16  and  C_17
REMARK    7  A    between atoms: C_17  and  C_18
REMARK    8  A    between atoms: C_18  and  C_19
REMARK    9  A    between atoms: C_19  and  C_20
REMARK   10  A    between atoms: C_20  and  C_21
REMARK   11  A    between atoms: C_21  and  C_22
REMARK   12  A    between atoms: C_22  and  C_23
REMARK   13  A    between atoms: C_23  and  O_25
REMARK   14  A    between atoms: C_28  and  C_29
REMARK                            x       y       z     vdW  Elec       q    Type
REMARK                         _______ _______ _______ _____ _____    ______ ____
ROOT
ATOM      1  C   UNL     1      -1.700  14.302  22.888  0.00  0.00    +0.000 C 
ATOM      2  C   UNL     1      -2.580  13.048  22.745  0.00  0.00    +0.000 C 
ATOM      3  C   UNL     1      -1.946  11.835  23.419  0.00  0.00    +0.000 C 
ATOM      4  C   UNL     1      -0.722  11.357  22.627  0.00  0.00    +0.000 C 
ATOM      5  C   UNL     1      -1.011  11.104  21.122  0.00  0.00    +0.000 C 
ATOM      6  C   UNL     1      -1.718  12.321  20.454  0.00  0.00    +0.000 C 
ATOM      7  C   UNL     1      -2.119  11.990  19.009  0.00  0.00    +0.000 C 
ATOM      8  C   UNL     1      -1.076  11.226  18.252  0.00  0.00    +0.000 C 
ATOM      9  C   UNL     1      -0.014  10.617  18.806  0.00  0.00    +0.000 C 
ATOM     10  C   UNL     1       0.983   9.868  17.939  0.00  0.00    +0.000 C 
ATOM     11  C   UNL     1       1.273   8.444  18.443  0.00  0.00    +0.000 C 
ATOM     12  C   UNL     1       1.653   8.483  19.931  0.00  0.00    +0.000 C 
ATOM     13  C   UNL     1       0.562   9.159  20.761  0.00  0.00    +0.000 C 
ATOM     14  C   UNL     1       0.251  10.618  20.316  0.00  0.00    +0.000 C 
ATOM     15  C   UNL     1       1.472  11.529  20.579  0.00  0.00    +0.000 C 
ATOM     16  C   UNL     1      -2.953  12.660  21.301  0.00  0.00    +0.000 C 
ATOM     17  C   UNL     1      -3.925  13.748  20.856  0.00  0.00    +0.000 C 
ATOM     18  C   UNL     1      -4.834  13.917  22.086  0.00  0.00    +0.000 C 
ATOM     19  C   UNL     1      -3.962  13.434  23.231  0.00  0.00    +0.000 C 
ATOM     20  O   UNL     1      -4.324  13.397  24.399  0.00  0.00    +0.000 OA
ENDROOT
BRANCH  11  21
ATOM     21  O   UNL     1       2.379   7.872  17.727  0.00  0.00    +0.000 OA
BRANCH  21  22
ATOM     22  C   UNL     1       2.743   6.601  18.030  0.00  0.00    +0.000 C 
ATOM     23  O   UNL     1       1.997   5.650  18.079  0.00  0.00    +0.000 OA
BRANCH  22  24
ATOM     24  C   UNL     1       4.239   6.482  18.321  0.00  0.00    +0.000 C 
BRANCH  24  25
ATOM     25  C   UNL     1       4.610   5.151  18.955  0.00  0.00    +0.000 C 
BRANCH  25  26
ATOM     26  C   UNL     1       5.534   4.352  18.052  0.00  0.00    +0.000 C 
BRANCH  26  27
ATOM     27  C   UNL     1       4.814   3.942  16.774  0.00  0.00    +0.000 C 
BRANCH  27  28
ATOM     28  C   UNL     1       5.810   3.519  15.696  0.00  0.00    +0.000 C 
BRANCH  28  29
ATOM     29  C   UNL     1       5.636   4.330  14.407  0.00  0.00    +0.000 C 
BRANCH  29  30
ATOM     30  C   UNL     1       6.626   3.868  13.341  0.00  0.00    +0.000 C 
BRANCH  30  31
ATOM     31  C   UNL     1       6.072   3.986  11.927  0.00  0.00    +0.000 C 
BRANCH  31  32
ATOM     32  C   UNL     1       5.224   2.777  11.600  0.00  0.00    +0.000 C 
ATOM     33  O   UNL     1       5.647   1.637  11.449  0.00  0.00    +0.000 OA
BRANCH  32  34
ATOM     34  O   UNL     1       3.915   3.070  11.484  0.00  0.00    +0.000 OA
ATOM     35  H   UNL     1       3.491   2.698  10.686  0.00  0.00    +0.000 HD
ENDBRANCH  32  34
ENDBRANCH  31  32
ENDBRANCH  30  31
ENDBRANCH  29  30
ENDBRANCH  28  29
ENDBRANCH  27  28
ENDBRANCH  26  27
ENDBRANCH  25  26
ENDBRANCH  24  25
ENDBRANCH  22  24
ENDBRANCH  21  22
ENDBRANCH  11  21
TORSDOF 12
ENDMDL
MODEL 5
REMARK VINA RESULT:      -6.6      2.726      4.152
REMARK  Name = 
REMARK  14 active torsions:
REMARK  status: ('A' for Active; 'I' for Inactive)
REMARK    1  A    between atoms: C_1  and  C_2
REMARK    2  A    between atoms: C_11  and  O_12
REMARK    3  A    between atoms: O_12  and  C_13
REMARK    4  A    between atoms: C_13  and  C_15
REMARK    5  A    between atoms: C_15  and  C_16
REMARK    6  A    between atoms: C_16  and  C_17
REMARK    7  A    between atoms: C_17  and  C_18
REMARK    8  A    between atoms: C_18  and  C_19
REMARK    9  A    between atoms: C_19  and  C_20
REMARK   10  A    between atoms: C_20  and  C_21
REMARK   11  A    between atoms: C_21  and  C_22
REMARK   12  A    between atoms: C_22  and  C_23
REMARK   13  A    between atoms: C_23  and  O_25
REMARK   14  A    between atoms: C_28  and  C_29
REMARK                            x       y       z     vdW  Elec       q    Type
REMARK                         _______ _______ _______ _____ _____    ______ ____
ROOT
ATOM      1  C   UNL     1      -1.851  11.519  19.275  0.00  0.00    +0.000 C 
ATOM      2  C   UNL     1      -0.494  11.916  19.880  0.00  0.00    +0.000 C 
ATOM      3  C   UNL     1       0.579  12.067  18.807  0.00  0.00    +0.000 C 
ATOM      4  C   UNL     1       0.966  10.696  18.235  0.00  0.00    +0.000 C 
ATOM      5  C   UNL     1       1.366   9.657  19.318  0.00  0.00    +0.000 C 
ATOM      6  C   UNL     1       0.297   9.555  20.447  0.00  0.00    +0.000 C 
ATOM      7  C   UNL     1       0.783   8.630  21.573  0.00  0.00    +0.000 C 
ATOM      8  C   UNL     1       1.471   7.393  21.084  0.00  0.00    +0.000 C 
ATOM      9  C   UNL     1       1.904   7.198  19.827  0.00  0.00    +0.000 C 
ATOM     10  C   UNL     1       2.592   5.900  19.442  0.00  0.00    +0.000 C 
ATOM     11  C   UNL     1       3.929   6.117  18.711  0.00  0.00    +0.000 C 
ATOM     12  C   UNL     1       3.731   7.086  17.536  0.00  0.00    +0.000 C 
ATOM     13  C   UNL     1       3.130   8.409  18.007  0.00  0.00    +0.000 C 
ATOM     14  C   UNL     1       1.757   8.253  18.724  0.00  0.00    +0.000 C 
ATOM     15  C   UNL     1       0.689   7.746  17.728  0.00  0.00    +0.000 C 
ATOM     16  C   UNL     1       0.045  10.975  20.975  0.00  0.00    +0.000 C 
ATOM     17  C   UNL     1      -0.882  11.208  22.164  0.00  0.00    +0.000 C 
ATOM     18  C   UNL     1      -1.033  12.739  22.183  0.00  0.00    +0.000 C 
ATOM     19  C   UNL     1      -0.747  13.134  20.744  0.00  0.00    +0.000 C 
ATOM     20  O   UNL     1      -0.756  14.287  20.336  0.00  0.00    +0.000 OA
ENDROOT
BRANCH  11  21
ATOM     21  O   UNL     1       4.416   4.877  18.175  0.00  0.00    +0.000 OA
BRANCH  21  22
ATOM     22  C   UNL     1       5.308   4.171  18.916  0.00  0.00    +0.000 C 
ATOM     23  O   UNL     1       5.058   3.173  19.552  0.00  0.00    +0.000 OA
BRANCH  22  24
ATOM     24  C   UNL     1       6.707   4.785  18.873  0.00  0.00    +0.000 C 
BRANCH  24  25
ATOM     25  C   UNL     1       7.338   4.709  17.492  0.00  0.00    +0.000 C 
BRANCH  25  26
ATOM     26  C   UNL     1       7.228   6.040  16.766  0.00  0.00    +0.000 C 
BRANCH  26  27
ATOM     27  C   UNL     1       6.976   5.821  15.279  0.00  0.00    +0.000 C 
BRANCH  27  28
ATOM     28  C   UNL     1       5.490   5.604  15.002  0.00  0.00    +0.000 C 
BRANCH  28  29
ATOM     29  C   UNL     1       5.232   4.289  14.260  0.00  0.00    +0.000 C 
BRANCH  29  30
ATOM     30  C   UNL     1       6.546   3.665  13.797  0.00  0.00    +0.000 C 
BRANCH  30  31
ATOM     31  C   UNL     1       6.732   3.729  12.286  0.00  0.00    +0.000 C 
BRANCH  31  32
ATOM     32  C   UNL     1       6.198   2.468  11.645  0.00  0.00    +0.000 C 
ATOM     33  O   UNL     1       5.014   2.223  11.446  0.00  0.00    +0.000 OA
BRANCH  32  34
ATOM     34  O   UNL     1       7.169   1.602  11.299  0.00  0.00    +0.000 OA
ATOM     35  H   UNL     1       7.664   1.855  10.496  0.00  0.00    +0.000 HD
ENDBRANCH  32  34
ENDBRANCH  31  32
ENDBRANCH  30  31
ENDBRANCH  29  30
ENDBRANCH  28  29
ENDBRANCH  27  28
ENDBRANCH  26  27
ENDBRANCH  25  26
ENDBRANCH  24  25
ENDBRANCH  22  24
ENDBRANCH  21  22
ENDBRANCH  11  21
TORSDOF 12
ENDMDL
MODEL 6
REMARK VINA RESULT:      -6.6      3.387      5.347
REMARK  Name = 
REMARK  14 active torsions:
REMARK  status: ('A' for Active; 'I' for Inactive)
REMARK    1  A    between atoms: C_1  and  C_2
REMARK    2  A    between atoms: C_11  and  O_12
REMARK    3  A    between atoms: O_12  and  C_13
REMARK    4  A    between atoms: C_13  and  C_15
REMARK    5  A    between atoms: C_15  and  C_16
REMARK    6  A    between atoms: C_16  and  C_17
REMARK    7  A    between atoms: C_17  and  C_18
REMARK    8  A    between atoms: C_18  and  C_19
REMARK    9  A    between atoms: C_19  and  C_20
REMARK   10  A    between atoms: C_20  and  C_21
REMARK   11  A    between atoms: C_21  and  C_22
REMARK   12  A    between atoms: C_22  and  C_23
REMARK   13  A    between atoms: C_23  and  O_25
REMARK   14  A    between atoms: C_28  and  C_29
REMARK                            x       y       z     vdW  Elec       q    Type
REMARK                         _______ _______ _______ _____ _____    ______ ____
ROOT
ATOM      1  C   UNL     1      -1.732  10.651  19.157  0.00  0.00    +0.000 C 
ATOM      2  C   UNL     1      -0.386  11.212  19.646  0.00  0.00    +0.000 C 
ATOM      3  C   UNL     1       0.595  11.408  18.495  0.00  0.00    +0.000 C 
ATOM      4  C   UNL     1       1.082  10.053  17.965  0.00  0.00    +0.000 C 
ATOM      5  C   UNL     1       1.655   9.120  19.068  0.00  0.00    +0.000 C 
ATOM      6  C   UNL     1       0.677   8.977  20.272  0.00  0.00    +0.000 C 
ATOM      7  C   UNL     1       1.326   8.168  21.405  0.00  0.00    +0.000 C 
ATOM      8  C   UNL     1       2.104   6.979  20.931  0.00  0.00    +0.000 C 
ATOM      9  C   UNL     1       2.473   6.758  19.657  0.00  0.00    +0.000 C 
ATOM     10  C   UNL     1       3.264   5.515  19.289  0.00  0.00    +0.000 C 
ATOM     11  C   UNL     1       4.522   5.822  18.458  0.00  0.00    +0.000 C 
ATOM     12  C   UNL     1       4.151   6.700  17.253  0.00  0.00    +0.000 C 
ATOM     13  C   UNL     1       3.449   7.981  17.700  0.00  0.00    +0.000 C 
ATOM     14  C   UNL     1       2.148   7.730  18.517  0.00  0.00    +0.000 C 
ATOM     15  C   UNL     1       1.076   7.066  17.624  0.00  0.00    +0.000 C 
ATOM     16  C   UNL     1       0.315  10.392  20.746  0.00  0.00    +0.000 C 
ATOM     17  C   UNL     1      -0.552  10.598  21.983  0.00  0.00    +0.000 C 
ATOM     18  C   UNL     1      -0.858  12.105  21.938  0.00  0.00    +0.000 C 
ATOM     19  C   UNL     1      -0.707  12.445  20.465  0.00  0.00    +0.000 C 
ATOM     20  O   UNL     1      -0.859  13.568  20.003  0.00  0.00    +0.000 OA
ENDROOT
BRANCH  11  21
ATOM     21  O   UNL     1       5.098   4.608  17.951  0.00  0.00    +0.000 OA
BRANCH  21  22
ATOM     22  C   UNL     1       6.291   4.690  17.311  0.00  0.00    +0.000 C 
ATOM     23  O   UNL     1       6.556   4.173  16.250  0.00  0.00    +0.000 OA
BRANCH  22  24
ATOM     24  C   UNL     1       7.309   5.523  18.090  0.00  0.00    +0.000 C 
BRANCH  24  25
ATOM     25  C   UNL     1       7.525   6.902  17.485  0.00  0.00    +0.000 C 
BRANCH  25  26
ATOM     26  C   UNL     1       8.298   7.802  18.435  0.00  0.00    +0.000 C 
BRANCH  26  27
ATOM     27  C   UNL     1       8.185   9.259  18.005  0.00  0.00    +0.000 C 
BRANCH  27  28
ATOM     28  C   UNL     1       9.034  10.160  18.899  0.00  0.00    +0.000 C 
BRANCH  28  29
ATOM     29  C   UNL     1      10.148  10.860  18.113  0.00  0.00    +0.000 C 
BRANCH  29  30
ATOM     30  C   UNL     1      10.188  12.349  18.445  0.00  0.00    +0.000 C 
BRANCH  30  31
ATOM     31  C   UNL     1       9.230  13.173  17.593  0.00  0.00    +0.000 C 
BRANCH  31  32
ATOM     32  C   UNL     1       9.275  14.623  18.019  0.00  0.00    +0.000 C 
ATOM     33  O   UNL     1       8.789  15.071  19.050  0.00  0.00    +0.000 OA
BRANCH  32  34
ATOM     34  O   UNL     1       9.915  15.411  17.135  0.00  0.00    +0.000 OA
ATOM     35  H   UNL     1      10.848  15.167  16.983  0.00  0.00    +0.000 HD
ENDBRANCH  32  34
ENDBRANCH  31  32
ENDBRANCH  30  31
ENDBRANCH  29  30
ENDBRANCH  28  29
ENDBRANCH  27  28
ENDBRANCH  26  27
ENDBRANCH  25  26
ENDBRANCH  24  25
ENDBRANCH  22  24
ENDBRANCH  21  22
ENDBRANCH  11  21
TORSDOF 12
ENDMDL
MODEL 7
REMARK VINA RESULT:      -6.6      2.416      3.903
REMARK  Name = 
REMARK  14 active torsions:
REMARK  status: ('A' for Active; 'I' for Inactive)
REMARK    1  A    between atoms: C_1  and  C_2
REMARK    2  A    between atoms: C_11  and  O_12
REMARK    3  A    between atoms: O_12  and  C_13
REMARK    4  A    between atoms: C_13  and  C_15
REMARK    5  A    between atoms: C_15  and  C_16
REMARK    6  A    between atoms: C_16  and  C_17
REMARK    7  A    between atoms: C_17  and  C_18
REMARK    8  A    between atoms: C_18  and  C_19
REMARK    9  A    between atoms: C_19  and  C_20
REMARK   10  A    between atoms: C_20  and  C_21
REMARK   11  A    between atoms: C_21  and  C_22
REMARK   12  A    between atoms: C_22  and  C_23
REMARK   13  A    between atoms: C_23  and  O_25
REMARK   14  A    between atoms: C_28  and  C_29
REMARK                            x       y       z     vdW  Elec       q    Type
REMARK                         _______ _______ _______ _____ _____    ______ ____
ROOT
ATOM      1  C   UNL     1      -1.079  13.362  22.774  0.00  0.00    +0.000 C 
ATOM      2  C   UNL     1      -1.994  12.148  22.540  0.00  0.00    +0.000 C 
ATOM      3  C   UNL     1      -1.457  10.897  23.226  0.00  0.00    +0.000 C 
ATOM      4  C   UNL     1      -0.198  10.387  22.511  0.00  0.00    +0.000 C 
ATOM      5  C   UNL     1      -0.389  10.179  20.983  0.00  0.00    +0.000 C 
ATOM      6  C   UNL     1      -1.000  11.437  20.298  0.00  0.00    +0.000 C 
ATOM      7  C   UNL     1      -1.310  11.153  18.820  0.00  0.00    +0.000 C 
ATOM      8  C   UNL     1      -0.246  10.366  18.119  0.00  0.00    +0.000 C 
ATOM      9  C   UNL     1       0.750   9.703  18.731  0.00  0.00    +0.000 C 
ATOM     10  C   UNL     1       1.777   8.934  17.918  0.00  0.00    +0.000 C 
ATOM     11  C   UNL     1       1.976   7.488  18.407  0.00  0.00    +0.000 C 
ATOM     12  C   UNL     1       2.250   7.480  19.918  0.00  0.00    +0.000 C 
ATOM     13  C   UNL     1       1.130   8.181  20.685  0.00  0.00    +0.000 C 
ATOM     14  C   UNL     1       0.907   9.660  20.256  0.00  0.00    +0.000 C 
ATOM     15  C   UNL     1       2.140  10.516  20.626  0.00  0.00    +0.000 C 
ATOM     16  C   UNL     1      -2.278  11.807  21.064  0.00  0.00    +0.000 C 
ATOM     17  C   UNL     1      -3.174  12.942  20.579  0.00  0.00    +0.000 C 
ATOM     18  C   UNL     1      -4.161  13.120  21.746  0.00  0.00    +0.000 C 
ATOM     19  C   UNL     1      -3.391  12.578  22.937  0.00  0.00    +0.000 C 
ATOM     20  O   UNL     1      -3.836  12.530  24.076  0.00  0.00    +0.000 OA
ENDROOT
BRANCH  11  21
ATOM     21  O   UNL     1       3.107   6.889  17.756  0.00  0.00    +0.000 OA
BRANCH  21  22
ATOM     22  C   UNL     1       3.272   5.548  17.875  0.00  0.00    +0.000 C 
ATOM     23  O   UNL     1       2.378   4.736  17.959  0.00  0.00    +0.000 OA
BRANCH  22  24
ATOM     24  C   UNL     1       4.746   5.146  17.899  0.00  0.00    +0.000 C 
BRANCH  24  25
ATOM     25  C   UNL     1       5.681   6.345  17.896  0.00  0.00    +0.000 C 
BRANCH  25  26
ATOM     26  C   UNL     1       6.974   6.034  18.631  0.00  0.00    +0.000 C 
BRANCH  26  27
ATOM     27  C   UNL     1       8.021   7.104  18.351  0.00  0.00    +0.000 C 
BRANCH  27  28
ATOM     28  C   UNL     1       7.415   8.273  17.577  0.00  0.00    +0.000 C 
BRANCH  28  29
ATOM     29  C   UNL     1       8.206   9.569  17.787  0.00  0.00    +0.000 C 
BRANCH  29  30
ATOM     30  C   UNL     1       9.160   9.433  18.970  0.00  0.00    +0.000 C 
BRANCH  30  31
ATOM     31  C   UNL     1       9.197  10.678  19.847  0.00  0.00    +0.000 C 
BRANCH  31  32
ATOM     32  C   UNL     1      10.151  11.695  19.262  0.00  0.00    +0.000 C 
ATOM     33  O   UNL     1       9.949  12.903  19.205  0.00  0.00    +0.000 OA
BRANCH  32  34
ATOM     34  O   UNL     1      11.284  11.142  18.789  0.00  0.00    +0.000 OA
ATOM     35  H   UNL     1      12.073  11.315  19.337  0.00  0.00    +0.000 HD
ENDBRANCH  32  34
ENDBRANCH  31  32
ENDBRANCH  30  31
ENDBRANCH  29  30
ENDBRANCH  28  29
ENDBRANCH  27  28
ENDBRANCH  26  27
ENDBRANCH  25  26
ENDBRANCH  24  25
ENDBRANCH  22  24
ENDBRANCH  21  22
ENDBRANCH  11  21
TORSDOF 12
ENDMDL
MODEL 8
REMARK VINA RESULT:      -6.6      2.067      3.920
REMARK  Name = 
REMARK  14 active torsions:
REMARK  status: ('A' for Active; 'I' for Inactive)
REMARK    1  A    between atoms: C_1  and  C_2
REMARK    2  A    between atoms: C_11  and  O_12
REMARK    3  A    between atoms: O_12  and  C_13
REMARK    4  A    between atoms: C_13  and  C_15
REMARK    5  A    between atoms: C_15  and  C_16
REMARK    6  A    between atoms: C_16  and  C_17
REMARK    7  A    between atoms: C_17  and  C_18
REMARK    8  A    between atoms: C_18  and  C_19
REMARK    9  A    between atoms: C_19  and  C_20
REMARK   10  A    between atoms: C_20  and  C_21
REMARK   11  A    between atoms: C_21  and  C_22
REMARK   12  A    between atoms: C_22  and  C_23
REMARK   13  A    between atoms: C_23  and  O_25
REMARK   14  A    between atoms: C_28  and  C_29
REMARK                            x       y       z     vdW  Elec       q    Type
REMARK                         _______ _______ _______ _____ _____    ______ ____
ROOT
ATOM      1  C   UNL     1      -2.325  15.132  21.559  0.00  0.00    +0.000 C 
ATOM      2  C   UNL     1      -3.131  13.875  21.930  0.00  0.00    +0.000 C 
ATOM      3  C   UNL     1      -2.512  13.137  23.113  0.00  0.00    +0.000 C 
ATOM      4  C   UNL     1      -1.197  12.462  22.698  0.00  0.00    +0.000 C 
ATOM      5  C   UNL     1      -1.331  11.551  21.446  0.00  0.00    +0.000 C 
ATOM      6  C   UNL     1      -2.025  12.289  20.263  0.00  0.00    +0.000 C 
ATOM      7  C   UNL     1      -2.271  11.326  19.092  0.00  0.00    +0.000 C 
ATOM      8  C   UNL     1      -1.129  10.396  18.823  0.00  0.00    +0.000 C 
ATOM      9  C   UNL     1      -0.098  10.181  19.658  0.00  0.00    +0.000 C 
ATOM     10  C   UNL     1       1.009   9.211  19.282  0.00  0.00    +0.000 C 
ATOM     11  C   UNL     1       1.313   8.182  20.384  0.00  0.00    +0.000 C 
ATOM     12  C   UNL     1       1.548   8.901  21.721  0.00  0.00    +0.000 C 
ATOM     13  C   UNL     1       0.354   9.781  22.091  0.00  0.00    +0.000 C 
ATOM     14  C   UNL     1       0.022  10.865  21.025  0.00  0.00    +0.000 C 
ATOM     15  C   UNL     1       1.171  11.896  20.935  0.00  0.00    +0.000 C 
ATOM     16  C   UNL     1      -3.348  12.864  20.788  0.00  0.00    +0.000 C 
ATOM     17  C   UNL     1      -4.320  13.563  19.844  0.00  0.00    +0.000 C 
ATOM     18  C   UNL     1      -5.349  14.179  20.808  0.00  0.00    +0.000 C 
ATOM     19  C   UNL     1      -4.569  14.321  22.103  0.00  0.00    +0.000 C 
ATOM     20  O   UNL     1      -5.038  14.771  23.140  0.00  0.00    +0.000 OA
ENDROOT
BRANCH  11  21
ATOM     21  O   UNL     1       2.506   7.447  20.070  0.00  0.00    +0.000 OA
BRANCH  21  22
ATOM     22  C   UNL     1       2.627   6.936  18.819  0.00  0.00    +0.000 C 
ATOM     23  O   UNL     1       1.739   6.867  18.000  0.00  0.00    +0.000 OA
BRANCH  22  24
ATOM     24  C   UNL     1       4.042   6.431  18.536  0.00  0.00    +0.000 C 
BRANCH  24  25
ATOM     25  C   UNL     1       4.287   6.172  17.058  0.00  0.00    +0.000 C 
BRANCH  25  26
ATOM     26  C   UNL     1       4.659   4.719  16.811  0.00  0.00    +0.000 C 
BRANCH  26  27
ATOM     27  C   UNL     1       4.418   3.883  18.061  0.00  0.00    +0.000 C 
BRANCH  27  28
ATOM     28  C   UNL     1       3.513   2.691  17.756  0.00  0.00    +0.000 C 
BRANCH  28  29
ATOM     29  C   UNL     1       2.055   3.117  17.554  0.00  0.00    +0.000 C 
BRANCH  29  30
ATOM     30  C   UNL     1       1.391   3.420  18.894  0.00  0.00    +0.000 C 
BRANCH  30  31
ATOM     31  C   UNL     1       1.858   2.493  20.010  0.00  0.00    +0.000 C 
BRANCH  31  32
ATOM     32  C   UNL     1       1.853   3.229  21.330  0.00  0.00    +0.000 C 
ATOM     33  O   UNL     1       2.248   4.376  21.502  0.00  0.00    +0.000 OA
BRANCH  32  34
ATOM     34  O   UNL     1       1.362   2.489  22.343  0.00  0.00    +0.000 OA
ATOM     35  H   UNL     1       2.020   2.260  23.027  0.00  0.00    +0.000 HD
ENDBRANCH  32  34
ENDBRANCH  31  32
ENDBRANCH  30  31
ENDBRANCH  29  30
ENDBRANCH  28  29
ENDBRANCH  27  28
ENDBRANCH  26  27
ENDBRANCH  25  26
ENDBRANCH  24  25
ENDBRANCH  22  24
ENDBRANCH  21  22
ENDBRANCH  11  21
TORSDOF 12
ENDMDL
MODEL 9
REMARK VINA RESULT:      -6.6      3.811      9.614
REMARK  Name = 
REMARK  14 active torsions:
REMARK  status: ('A' for Active; 'I' for Inactive)
REMARK    1  A    between atoms: C_1  and  C_2
REMARK    2  A    between atoms: C_11  and  O_12
REMARK    3  A    between atoms: O_12  and  C_13
REMARK    4  A    between atoms: C_13  and  C_15
REMARK    5  A    between atoms: C_15  and  C_16
REMARK    6  A    between atoms: C_16  and  C_17
REMARK    7  A    between atoms: C_17  and  C_18
REMARK    8  A    between atoms: C_18  and  C_19
REMARK    9  A    between atoms: C_19  and  C_20
REMARK   10  A    between atoms: C_20  and  C_21
REMARK   11  A    between atoms: C_21  and  C_22
REMARK   12  A    between atoms: C_22  and  C_23
REMARK   13  A    between atoms: C_23  and  O_25
REMARK   14  A    between atoms: C_28  and  C_29
REMARK                            x       y       z     vdW  Elec       q    Type
REMARK                         _______ _______ _______ _____ _____    ______ ____
ROOT
ATOM      1  C   UNL     1       1.299   3.075  19.167  0.00  0.00    +0.000 C 
ATOM      2  C   UNL     1       2.674   3.693  19.473  0.00  0.00    +0.000 C 
ATOM      3  C   UNL     1       2.799   4.091  20.940  0.00  0.00    +0.000 C 
ATOM      4  C   UNL     1       1.918   5.311  21.245  0.00  0.00    +0.000 C 
ATOM      5  C   UNL     1       2.162   6.512  20.290  0.00  0.00    +0.000 C 
ATOM      6  C   UNL     1       2.100   6.086  18.793  0.00  0.00    +0.000 C 
ATOM      7  C   UNL     1       2.484   7.259  17.879  0.00  0.00    +0.000 C 
ATOM      8  C   UNL     1       1.906   8.573  18.304  0.00  0.00    +0.000 C 
ATOM      9  C   UNL     1       1.348   8.817  19.503  0.00  0.00    +0.000 C 
ATOM     10  C   UNL     1       0.793  10.192  19.828  0.00  0.00    +0.000 C 
ATOM     11  C   UNL     1       1.305  10.751  21.167  0.00  0.00    +0.000 C 
ATOM     12  C   UNL     1       1.089   9.716  22.282  0.00  0.00    +0.000 C 
ATOM     13  C   UNL     1       1.758   8.386  21.937  0.00  0.00    +0.000 C 
ATOM     14  C   UNL     1       1.252   7.757  20.606  0.00  0.00    +0.000 C 
ATOM     15  C   UNL     1      -0.233   7.349  20.739  0.00  0.00    +0.000 C 
ATOM     16  C   UNL     1       3.064   4.906  18.607  0.00  0.00    +0.000 C 
ATOM     17  C   UNL     1       3.312   4.317  17.222  0.00  0.00    +0.000 C 
ATOM     18  C   UNL     1       4.117   3.043  17.532  0.00  0.00    +0.000 C 
ATOM     19  C   UNL     1       3.710   2.715  18.958  0.00  0.00    +0.000 C 
ATOM     20  O   UNL     1       4.142   1.761  19.591  0.00  0.00    +0.000 OA
ENDROOT
BRANCH  11  21
ATOM     21  O   UNL     1       0.579  11.936  21.528  0.00  0.00    +0.000 OA
BRANCH  21  22
ATOM     22  C   UNL     1      -0.723  12.022  21.156  0.00  0.00    +0.000 C 
ATOM     23  O   UNL     1      -1.640  11.422  21.667  0.00  0.00    +0.000 OA
BRANCH  22  24
ATOM     24  C   UNL     1      -0.925  12.979  19.981  0.00  0.00    +0.000 C 
BRANCH  24  25
ATOM     25  C   UNL     1      -1.516  12.292  18.760  0.00  0.00    +0.000 C 
BRANCH  25  26
ATOM     26  C   UNL     1      -3.024  12.146  18.890  0.00  0.00    +0.000 C 
BRANCH  26  27
ATOM     27  C   UNL     1      -3.578  11.283  17.763  0.00  0.00    +0.000 C 
BRANCH  27  28
ATOM     28  C   UNL     1      -2.495  10.970  16.732  0.00  0.00    +0.000 C 
BRANCH  28  29
ATOM     29  C   UNL     1      -2.849   9.742  15.886  0.00  0.00    +0.000 C 
BRANCH  29  30
ATOM     30  C   UNL     1      -3.709  10.141  14.690  0.00  0.00    +0.000 C 
BRANCH  30  31
ATOM     31  C   UNL     1      -3.062   9.795  13.354  0.00  0.00    +0.000 C 
BRANCH  31  32
ATOM     32  C   UNL     1      -4.117   9.714  12.274  0.00  0.00    +0.000 C 
ATOM     33  O   UNL     1      -5.315   9.543  12.468  0.00  0.00    +0.000 OA
BRANCH  32  34
ATOM     34  O   UNL     1      -3.611   9.846  11.033  0.00  0.00    +0.000 OA
ATOM     35  H   UNL     1      -3.835  10.691  10.598  0.00  0.00    +0.000 HD
ENDBRANCH  32  34
ENDBRANCH  31  32
ENDBRANCH  30  31
ENDBRANCH  29  30
ENDBRANCH  28  29
ENDBRANCH  27  28
ENDBRANCH  26  27
ENDBRANCH  25  26
ENDBRANCH  24  25
ENDBRANCH  22  24
ENDBRANCH  21  22
ENDBRANCH  11  21
TORSDOF 12
ENDMDL
