MODEL 1
REMARK VINA RESULT:      -6.0      0.000      0.000
REMARK  Name = 
REMARK  3 active torsions:
REMARK  status: ('A' for Active; 'I' for Inactive)
REMARK    1  A    between atoms: C_1  and  O_2
REMARK    2  A    between atoms: O_2  and  C_3
REMARK    3  A    between atoms: C_6  and  C_7
REMARK                            x       y       z     vdW  Elec       q    Type
REMARK                         _______ _______ _______ _____ _____    ______ ____
ROOT
ATOM      1  C   UNL     1       6.683   4.670  16.775  0.00  0.00    +0.000 A 
ATOM      2  N   UNL     1       7.222   5.144  17.896  0.00  0.00    +0.000 NA
ATOM      3  S   UNL     1       6.033   5.040  19.068  0.00  0.00    +0.000 S 
ATOM      4  C   UNL     1       4.871   4.407  17.973  0.00  0.00    +0.000 A 
ATOM      5  N   UNL     1       5.376   4.219  16.776  0.00  0.00    +0.000 NA
ENDROOT
BRANCH   4   6
ATOM      6  C   UNL     1       3.448   4.131  18.361  0.00  0.00    +0.000 C 
ATOM      7  C   UNL     1       2.654   3.449  17.229  0.00  0.00    +0.000 C 
ATOM      8  N   UNL     1       2.266   2.115  17.777  0.00  0.00    +0.000 NA
ATOM      9  C   UNL     1       1.200   2.318  18.795  0.00  0.00    +0.000 C 
ATOM     10  C   UNL     1       1.928   2.958  19.976  0.00  0.00    +0.000 C 
ATOM     11  C   UNL     1       3.364   3.042  19.454  0.00  0.00    +0.000 C 
ATOM     12  C   UNL     1       3.441   1.770  18.623  0.00  0.00    +0.000 C 
ENDBRANCH   4   6
BRANCH   1  14
ATOM     13  C   UNL     1       6.745   4.545  14.490  0.00  0.00    +0.000 C 
ATOM     14  O   UNL     1       7.492   4.688  15.693  0.00  0.00    +0.000 OA
ENDBRANCH   1  14
TORSDOF 2
ENDMDL
MODEL 2
REMARK VINA RESULT:      -6.0      2.003      2.600
REMARK  Name = 
REMARK  3 active torsions:
REMARK  status: ('A' for Active; 'I' for Inactive)
REMARK    1  A    between atoms: C_1  and  O_2
REMARK    2  A    between atoms: O_2  and  C_3
REMARK    3  A    between atoms: C_6  and  C_7
REMARK                            x       y       z     vdW  Elec       q    Type
REMARK                         _______ _______ _______ _____ _____    ______ ____
ROOT
ATOM      1  C   UNL     1       6.956   5.970  16.529  0.00  0.00    +0.000 A 
ATOM      2  N   UNL     1       7.114   5.316  15.381  0.00  0.00    +0.000 NA
ATOM      3  S   UNL     1       6.077   4.005  15.443  0.00  0.00    +0.000 S 
ATOM      4  C   UNL     1       5.525   4.391  17.023  0.00  0.00    +0.000 A 
ATOM      5  N   UNL     1       6.055   5.505  17.469  0.00  0.00    +0.000 NA
ENDROOT
BRANCH   4   6
ATOM      6  C   UNL     1       4.565   3.526  17.786  0.00  0.00    +0.000 C 
ATOM      7  C   UNL     1       4.304   4.057  19.210  0.00  0.00    +0.000 C 
ATOM      8  N   UNL     1       2.848   4.388  19.240  0.00  0.00    +0.000 NA
ATOM      9  C   UNL     1       2.078   3.116  19.261  0.00  0.00    +0.000 C 
ATOM     10  C   UNL     1       2.256   2.548  17.854  0.00  0.00    +0.000 C 
ATOM     11  C   UNL     1       3.140   3.608  17.194  0.00  0.00    +0.000 C 
ATOM     12  C   UNL     1       2.609   4.873  17.853  0.00  0.00    +0.000 C 
ENDBRANCH   4   6
BRANCH   1  14
ATOM     13  C   UNL     1       7.858   7.421  18.053  0.00  0.00    +0.000 C 
ATOM     14  O   UNL     1       7.733   7.066  16.681  0.00  0.00    +0.000 OA
ENDBRANCH   1  14
TORSDOF 2
ENDMDL
MODEL 3
REMARK VINA RESULT:      -5.9      2.015      2.602
REMARK  Name = 
REMARK  3 active torsions:
REMARK  status: ('A' for Active; 'I' for Inactive)
REMARK    1  A    between atoms: C_1  and  O_2
REMARK    2  A    between atoms: O_2  and  C_3
REMARK    3  A    between atoms: C_6  and  C_7
REMARK                            x       y       z     vdW  Elec       q    Type
REMARK                         _______ _______ _______ _____ _____    ______ ____
ROOT
ATOM      1  C   UNL     1       6.698   4.691  14.859  0.00  0.00    +0.000 A 
ATOM      2  N   UNL     1       7.534   5.495  15.512  0.00  0.00    +0.000 NA
ATOM      3  S   UNL     1       7.026   5.504  17.106  0.00  0.00    +0.000 S 
ATOM      4  C   UNL     1       5.698   4.461  16.791  0.00  0.00    +0.000 A 
ATOM      5  N   UNL     1       5.670   4.066  15.540  0.00  0.00    +0.000 NA
ENDROOT
BRANCH   4   6
ATOM      6  C   UNL     1       4.692   4.081  17.838  0.00  0.00    +0.000 C 
ATOM      7  C   UNL     1       4.961   4.776  19.188  0.00  0.00    +0.000 C 
ATOM      8  N   UNL     1       3.761   5.632  19.429  0.00  0.00    +0.000 NA
ATOM      9  C   UNL     1       2.618   4.749  19.782  0.00  0.00    +0.000 C 
ATOM     10  C   UNL     1       2.265   4.051  18.469  0.00  0.00    +0.000 C 
ATOM     11  C   UNL     1       3.294   4.648  17.507  0.00  0.00    +0.000 C 
ATOM     12  C   UNL     1       3.404   6.066  18.051  0.00  0.00    +0.000 C 
ENDBRANCH   4   6
BRANCH   1  14
ATOM     13  C   UNL     1       6.075   3.594  12.949  0.00  0.00    +0.000 C 
ATOM     14  O   UNL     1       6.934   4.565  13.535  0.00  0.00    +0.000 OA
ENDBRANCH   1  14
TORSDOF 2
ENDMDL
MODEL 4
REMARK VINA RESULT:      -5.8      1.402      1.963
REMARK  Name = 
REMARK  3 active torsions:
REMARK  status: ('A' for Active; 'I' for Inactive)
REMARK    1  A    between atoms: C_1  and  O_2
REMARK    2  A    between atoms: O_2  and  C_3
REMARK    3  A    between atoms: C_6  and  C_7
REMARK                            x       y       z     vdW  Elec       q    Type
REMARK                         _______ _______ _______ _____ _____    ______ ____
ROOT
ATOM      1  C   UNL     1       6.812   5.260  16.441  0.00  0.00    +0.000 A 
ATOM      2  N   UNL     1       7.335   5.749  17.562  0.00  0.00    +0.000 NA
ATOM      3  S   UNL     1       6.309   5.284  18.799  0.00  0.00    +0.000 S 
ATOM      4  C   UNL     1       5.219   4.497  17.731  0.00  0.00    +0.000 A 
ATOM      5  N   UNL     1       5.641   4.528  16.488  0.00  0.00    +0.000 NA
ENDROOT
BRANCH   4   6
ATOM      6  C   UNL     1       3.931   3.876  18.189  0.00  0.00    +0.000 C 
ATOM      7  C   UNL     1       3.746   3.972  19.716  0.00  0.00    +0.000 C 
ATOM      8  N   UNL     1       2.527   4.813  19.907  0.00  0.00    +0.000 NA
ATOM      9  C   UNL     1       1.337   4.009  19.523  0.00  0.00    +0.000 C 
ATOM     10  C   UNL     1       1.430   3.907  18.001  0.00  0.00    +0.000 C 
ATOM     11  C   UNL     1       2.710   4.693  17.709  0.00  0.00    +0.000 C 
ATOM     12  C   UNL     1       2.630   5.775  18.776  0.00  0.00    +0.000 C 
ENDBRANCH   4   6
BRANCH   1  14
ATOM     13  C   UNL     1       6.981   4.825  14.199  0.00  0.00    +0.000 C 
ATOM     14  O   UNL     1       7.495   5.549  15.311  0.00  0.00    +0.000 OA
ENDBRANCH   1  14
TORSDOF 2
ENDMDL
MODEL 5
REMARK VINA RESULT:      -5.8      1.932      2.599
REMARK  Name = 
REMARK  3 active torsions:
REMARK  status: ('A' for Active; 'I' for Inactive)
REMARK    1  A    between atoms: C_1  and  O_2
REMARK    2  A    between atoms: O_2  and  C_3
REMARK    3  A    between atoms: C_6  and  C_7
REMARK                            x       y       z     vdW  Elec       q    Type
REMARK                         _______ _______ _______ _____ _____    ______ ____
ROOT
ATOM      1  C   UNL     1       6.620   4.488  17.980  0.00  0.00    +0.000 A 
ATOM      2  N   UNL     1       6.331   4.654  16.691  0.00  0.00    +0.000 NA
ATOM      3  S   UNL     1       4.755   4.129  16.494  0.00  0.00    +0.000 S 
ATOM      4  C   UNL     1       4.595   3.679  18.144  0.00  0.00    +0.000 A 
ATOM      5  N   UNL     1       5.669   3.971  18.839  0.00  0.00    +0.000 NA
ENDROOT
BRANCH   4   6
ATOM      6  C   UNL     1       3.367   3.013  18.693  0.00  0.00    +0.000 C 
ATOM      7  C   UNL     1       3.310   3.070  20.233  0.00  0.00    +0.000 C 
ATOM      8  N   UNL     1       2.091   3.873  20.547  0.00  0.00    +0.000 NA
ATOM      9  C   UNL     1       0.892   3.047  20.244  0.00  0.00    +0.000 C 
ATOM     10  C   UNL     1       0.859   2.981  18.717  0.00  0.00    +0.000 C 
ATOM     11  C   UNL     1       2.090   3.807  18.338  0.00  0.00    +0.000 C 
ATOM     12  C   UNL     1       2.073   4.863  19.435  0.00  0.00    +0.000 C 
ENDBRANCH   4   6
BRANCH   1  14
ATOM     13  C   UNL     1       7.854   5.843  19.352  0.00  0.00    +0.000 C 
ATOM     14  O   UNL     1       7.874   4.843  18.340  0.00  0.00    +0.000 OA
ENDBRANCH   1  14
TORSDOF 2
ENDMDL
MODEL 6
REMARK VINA RESULT:      -5.8      1.596      1.748
REMARK  Name = 
REMARK  3 active torsions:
REMARK  status: ('A' for Active; 'I' for Inactive)
REMARK    1  A    between atoms: C_1  and  O_2
REMARK    2  A    between atoms: O_2  and  C_3
REMARK    3  A    between atoms: C_6  and  C_7
REMARK                            x       y       z     vdW  Elec       q    Type
REMARK                         _______ _______ _______ _____ _____    ______ ____
ROOT
ATOM      1  C   UNL     1       5.272   4.372  16.079  0.00  0.00    +0.000 A 
ATOM      2  N   UNL     1       5.496   5.674  16.242  0.00  0.00    +0.000 NA
ATOM      3  S   UNL     1       4.347   6.214  17.331  0.00  0.00    +0.000 S 
ATOM      4  C   UNL     1       3.610   4.669  17.469  0.00  0.00    +0.000 A 
ATOM      5  N   UNL     1       4.243   3.759  16.768  0.00  0.00    +0.000 NA
ENDROOT
BRANCH   4   6
ATOM      6  C   UNL     1       2.374   4.424  18.286  0.00  0.00    +0.000 C 
ATOM      7  C   UNL     1       1.919   2.952  18.231  0.00  0.00    +0.000 C 
ATOM      8  N   UNL     1       2.028   2.459  19.636  0.00  0.00    +0.000 NA
ATOM      9  C   UNL     1       0.932   3.070  20.435  0.00  0.00    +0.000 C 
ATOM     10  C   UNL     1       1.340   4.537  20.568  0.00  0.00    +0.000 C 
ATOM     11  C   UNL     1       2.661   4.570  19.797  0.00  0.00    +0.000 C 
ATOM     12  C   UNL     1       3.222   3.195  20.134  0.00  0.00    +0.000 C 
ENDBRANCH   4   6
BRANCH   1  14
ATOM     13  C   UNL     1       6.746   4.684  14.355  0.00  0.00    +0.000 C 
ATOM     14  O   UNL     1       6.097   3.749  15.209  0.00  0.00    +0.000 OA
ENDBRANCH   1  14
TORSDOF 2
ENDMDL
MODEL 7
REMARK VINA RESULT:      -5.8      2.004      2.421
REMARK  Name = 
REMARK  3 active torsions:
REMARK  status: ('A' for Active; 'I' for Inactive)
REMARK    1  A    between atoms: C_1  and  O_2
REMARK    2  A    between atoms: O_2  and  C_3
REMARK    3  A    between atoms: C_6  and  C_7
REMARK                            x       y       z     vdW  Elec       q    Type
REMARK                         _______ _______ _______ _____ _____    ______ ____
ROOT
ATOM      1  C   UNL     1       6.365   6.409  16.645  0.00  0.00    +0.000 A 
ATOM      2  N   UNL     1       7.152   5.549  16.004  0.00  0.00    +0.000 NA
ATOM      3  S   UNL     1       6.257   4.150  15.810  0.00  0.00    +0.000 S 
ATOM      4  C   UNL     1       4.895   4.789  16.639  0.00  0.00    +0.000 A 
ATOM      5  N   UNL     1       5.082   6.038  16.998  0.00  0.00    +0.000 NA
ENDROOT
BRANCH   4   6
ATOM      6  C   UNL     1       3.661   3.985  16.925  0.00  0.00    +0.000 C 
ATOM      7  C   UNL     1       3.970   2.699  17.717  0.00  0.00    +0.000 C 
ATOM      8  N   UNL     1       3.247   2.860  19.014  0.00  0.00    +0.000 NA
ATOM      9  C   UNL     1       1.790   2.700  18.762  0.00  0.00    +0.000 C 
ATOM     10  C   UNL     1       1.399   3.971  18.009  0.00  0.00    +0.000 C 
ATOM     11  C   UNL     1       2.734   4.712  17.925  0.00  0.00    +0.000 C 
ATOM     12  C   UNL     1       3.360   4.324  19.257  0.00  0.00    +0.000 C 
ENDBRANCH   4   6
BRANCH   1  14
ATOM     13  C   UNL     1       7.884   7.508  17.960  0.00  0.00    +0.000 C 
ATOM     14  O   UNL     1       6.923   7.610  16.916  0.00  0.00    +0.000 OA
ENDBRANCH   1  14
TORSDOF 2
ENDMDL
MODEL 8
REMARK VINA RESULT:      -5.8      2.484      5.199
REMARK  Name = 
REMARK  3 active torsions:
REMARK  status: ('A' for Active; 'I' for Inactive)
REMARK    1  A    between atoms: C_1  and  O_2
REMARK    2  A    between atoms: O_2  and  C_3
REMARK    3  A    between atoms: C_6  and  C_7
REMARK                            x       y       z     vdW  Elec       q    Type
REMARK                         _______ _______ _______ _____ _____    ______ ____
ROOT
ATOM      1  C   UNL     1       3.578   3.746  19.490  0.00  0.00    +0.000 A 
ATOM      2  N   UNL     1       3.270   4.986  19.863  0.00  0.00    +0.000 NA
ATOM      3  S   UNL     1       3.623   5.969  18.556  0.00  0.00    +0.000 S 
ATOM      4  C   UNL     1       4.204   4.662  17.605  0.00  0.00    +0.000 A 
ATOM      5  N   UNL     1       4.079   3.511  18.224  0.00  0.00    +0.000 NA
ENDROOT
BRANCH   4   6
ATOM      6  C   UNL     1       4.797   4.846  16.239  0.00  0.00    +0.000 C 
ATOM      7  C   UNL     1       5.645   6.130  16.138  0.00  0.00    +0.000 C 
ATOM      8  N   UNL     1       7.032   5.657  15.846  0.00  0.00    +0.000 NA
ATOM      9  C   UNL     1       7.076   5.170  14.442  0.00  0.00    +0.000 C 
ATOM     10  C   UNL     1       6.283   3.864  14.473  0.00  0.00    +0.000 C 
ATOM     11  C   UNL     1       5.874   3.778  15.944  0.00  0.00    +0.000 C 
ATOM     12  C   UNL     1       7.097   4.385  16.617  0.00  0.00    +0.000 C 
ENDBRANCH   4   6
BRANCH   1  14
ATOM     13  C   UNL     1       2.341   3.169  21.328  0.00  0.00    +0.000 C 
ATOM     14  O   UNL     1       3.379   2.795  20.429  0.00  0.00    +0.000 OA
ENDBRANCH   1  14
TORSDOF 2
ENDMDL
MODEL 9
REMARK VINA RESULT:      -5.8      1.944      2.303
REMARK  Name = 
REMARK  3 active torsions:
REMARK  status: ('A' for Active; 'I' for Inactive)
REMARK    1  A    between atoms: C_1  and  O_2
REMARK    2  A    between atoms: O_2  and  C_3
REMARK    3  A    between atoms: C_6  and  C_7
REMARK                            x       y       z     vdW  Elec       q    Type
REMARK                         _______ _______ _______ _____ _____    ______ ____
ROOT
ATOM      1  C   UNL     1       6.412   5.946  16.702  0.00  0.00    +0.000 A 
ATOM      2  N   UNL     1       6.403   4.779  16.065  0.00  0.00    +0.000 NA
ATOM      3  S   UNL     1       4.916   4.082  16.386  0.00  0.00    +0.000 S 
ATOM      4  C   UNL     1       4.415   5.381  17.392  0.00  0.00    +0.000 A 
ATOM      5  N   UNL     1       5.310   6.340  17.436  0.00  0.00    +0.000 NA
ENDROOT
BRANCH   4   6
ATOM      6  C   UNL     1       3.111   5.383  18.135  0.00  0.00    +0.000 C 
ATOM      7  C   UNL     1       2.271   4.123  17.845  0.00  0.00    +0.000 C 
ATOM      8  N   UNL     1       2.150   3.426  19.160  0.00  0.00    +0.000 NA
ATOM      9  C   UNL     1       1.219   4.203  20.021  0.00  0.00    +0.000 C 
ATOM     10  C   UNL     1       2.007   5.460  20.386  0.00  0.00    +0.000 C 
ATOM     11  C   UNL     1       3.331   5.226  19.657  0.00  0.00    +0.000 C 
ATOM     12  C   UNL     1       3.468   3.716  19.790  0.00  0.00    +0.000 C 
ENDBRANCH   4   6
BRANCH   1  14
ATOM     13  C   UNL     1       7.640   7.667  17.582  0.00  0.00    +0.000 C 
ATOM     14  O   UNL     1       7.552   6.662  16.579  0.00  0.00    +0.000 OA
ENDBRANCH   1  14
TORSDOF 2
ENDMDL
