MODEL 1
REMARK VINA RESULT:      -7.0      0.000      0.000
REMARK  Name = 
REMARK  10 active torsions:
REMARK  status: ('A' for Active; 'I' for Inactive)
REMARK    1  A    between atoms: C_1  and  O_2
REMARK    2  A    between atoms: O_2  and  C_3
REMARK    3  A    between atoms: C_6  and  C_7
REMARK    4  A    between atoms: N_9  and  C_10
REMARK    5  A    between atoms: N_9  and  C_11
REMARK    6  A    between atoms: C_14  and  C_15
REMARK    7  A    between atoms: C_15  and  C_16
REMARK    8  A    between atoms: C_15  and  C_17
REMARK    9  A    between atoms: C_17  and  N_18
REMARK   10  A    between atoms: C_17  and  C_19
REMARK                            x       y       z     vdW  Elec       q    Type
REMARK                         _______ _______ _______ _____ _____    ______ ____
ROOT
ATOM      1  C   UNL     1       1.852   6.958  18.464  0.00  0.00    +0.000 C 
ATOM      2  C   UNL     1       2.778   7.872  17.627  0.00  0.00    +0.000 C 
ATOM      3  C   UNL     1       4.259   7.480  17.660  0.00  0.00    +0.000 C 
ATOM      4  C   UNL     1       4.543   5.967  17.462  0.00  0.00    +0.000 C 
ATOM      5  C   UNL     1       3.510   5.055  18.190  0.00  0.00    +0.000 C 
ATOM      6  C   UNL     1       2.078   5.503  17.966  0.00  0.00    +0.000 C 
ENDROOT
BRANCH   1   9
ATOM      7  C   UNL     1       1.373   8.238  20.531  0.00  0.00    +0.000 C 
ATOM      8  O   UNL     1       1.392   8.293  21.758  0.00  0.00    +0.000 OA
ATOM      9  N   UNL     1       1.836   7.077  19.918  0.00  0.00    +0.000 N 
ATOM     10  C   UNL     1       2.321   5.982  20.768  0.00  0.00    +0.000 C 
BRANCH   7  14
ATOM     11  C   UNL     1      -0.147  11.914  18.712  0.00  0.00    +0.000 A 
ATOM     12  C   UNL     1       1.212  11.758  19.038  0.00  0.00    +0.000 A 
ATOM     13  C   UNL     1       1.675  10.563  19.595  0.00  0.00    +0.000 A 
ATOM     14  C   UNL     1       0.796   9.479  19.832  0.00  0.00    +0.000 A 
ATOM     15  C   UNL     1      -0.553   9.679  19.418  0.00  0.00    +0.000 A 
ATOM     16  C   UNL     1      -1.006  10.859  18.891  0.00  0.00    +0.000 A 
BRANCH  11  18
ATOM     17  C   UNL     1      -0.279  14.303  18.677  0.00  0.00    +0.000 C 
ATOM     18  O   UNL     1      -0.671  13.065  18.245  0.00  0.00    +0.000 OA
ENDBRANCH  11  18
ENDBRANCH   7  14
ENDBRANCH   1   9
BRANCH   4  19
ATOM     19  C   UNL     1       6.050   5.634  17.862  0.00  0.00    +0.000 C 
ATOM     20  C   UNL     1       6.136   5.229  19.373  0.00  0.00    +0.000 C 
BRANCH  19  21
ATOM     21  C   UNL     1       6.750   4.613  16.883  0.00  0.00    +0.000 C 
BRANCH  21  22
ATOM     22  C   UNL     1       7.067   5.141  15.465  0.00  0.00    +0.000 C 
ATOM     23  O   UNL     1       7.775   6.134  15.373  0.00  0.00    +0.000 OA
ATOM     24  N   UNL     1       6.686   4.508  14.303  0.00  0.00    +0.000 N 
ATOM     25  C   UNL     1       7.183   4.905  12.995  0.00  0.00    +0.000 C 
ATOM     26  C   UNL     1       6.892   3.697  12.107  0.00  0.00    +0.000 C 
ATOM     27  C   UNL     1       5.571   3.224  12.672  0.00  0.00    +0.000 C 
ATOM     28  F   UNL     1       4.595   4.133  12.285  0.00  0.00    +0.000 F 
ATOM     29  C   UNL     1       5.819   3.343  14.184  0.00  0.00    +0.000 C 
ENDBRANCH  21  22
BRANCH  21  30
ATOM     30  N   UNL     1       7.985   4.081  17.455  0.00  0.00    +0.000 NA
ATOM     31  H   UNL     1       8.414   4.753  18.135  0.00  0.00    +0.000 HD
ATOM     32  H   UNL     1       8.671   3.889  16.692  0.00  0.00    +0.000 HD
ENDBRANCH  21  30
ENDBRANCH  19  21
ENDBRANCH   4  19
TORSDOF 7
ENDMDL
MODEL 2
REMARK VINA RESULT:      -6.7      4.971     10.923
REMARK  Name = 
REMARK  10 active torsions:
REMARK  status: ('A' for Active; 'I' for Inactive)
REMARK    1  A    between atoms: C_1  and  O_2
REMARK    2  A    between atoms: O_2  and  C_3
REMARK    3  A    between atoms: C_6  and  C_7
REMARK    4  A    between atoms: N_9  and  C_10
REMARK    5  A    between atoms: N_9  and  C_11
REMARK    6  A    between atoms: C_14  and  C_15
REMARK    7  A    between atoms: C_15  and  C_16
REMARK    8  A    between atoms: C_15  and  C_17
REMARK    9  A    between atoms: C_17  and  N_18
REMARK   10  A    between atoms: C_17  and  C_19
REMARK                            x       y       z     vdW  Elec       q    Type
REMARK                         _______ _______ _______ _____ _____    ______ ____
ROOT
ATOM      1  C   UNL     1       0.785  11.351  20.574  0.00  0.00    +0.000 C 
ATOM      2  C   UNL     1       1.064  12.792  21.064  0.00  0.00    +0.000 C 
ATOM      3  C   UNL     1      -0.127  13.474  21.746  0.00  0.00    +0.000 C 
ATOM      4  C   UNL     1      -0.876  12.602  22.789  0.00  0.00    +0.000 C 
ATOM      5  C   UNL     1      -1.018  11.115  22.346  0.00  0.00    +0.000 C 
ATOM      6  C   UNL     1       0.277  10.543  21.802  0.00  0.00    +0.000 C 
ENDROOT
BRANCH   1   9
ATOM      7  C   UNL     1       0.218  10.027  18.557  0.00  0.00    +0.000 C 
ATOM      8  O   UNL     1      -0.468   9.898  17.547  0.00  0.00    +0.000 OA
ATOM      9  N   UNL     1      -0.010  11.135  19.370  0.00  0.00    +0.000 N 
ATOM     10  C   UNL     1      -1.057  12.087  18.978  0.00  0.00    +0.000 C 
BRANCH   7  14
ATOM     11  C   UNL     1       3.075   6.747  19.016  0.00  0.00    +0.000 A 
ATOM     12  C   UNL     1       3.091   7.589  17.890  0.00  0.00    +0.000 A 
ATOM     13  C   UNL     1       2.184   8.645  17.781  0.00  0.00    +0.000 A 
ATOM     14  C   UNL     1       1.237   8.903  18.801  0.00  0.00    +0.000 A 
ATOM     15  C   UNL     1       1.318   8.055  19.944  0.00  0.00    +0.000 A 
ATOM     16  C   UNL     1       2.196   7.008  20.037  0.00  0.00    +0.000 A 
BRANCH  11  18
ATOM     17  C   UNL     1       5.137   5.595  18.636  0.00  0.00    +0.000 C 
ATOM     18  O   UNL     1       3.869   5.666  19.146  0.00  0.00    +0.000 OA
ENDBRANCH  11  18
ENDBRANCH   7  14
ENDBRANCH   1   9
BRANCH   4  19
ATOM     19  C   UNL     1      -2.274  13.272  23.161  0.00  0.00    +0.000 C 
ATOM     20  C   UNL     1      -2.048  14.578  23.994  0.00  0.00    +0.000 C 
BRANCH  19  21
ATOM     21  C   UNL     1      -3.232  13.459  21.922  0.00  0.00    +0.000 C 
BRANCH  21  22
ATOM     22  C   UNL     1      -4.570  12.684  21.974  0.00  0.00    +0.000 C 
ATOM     23  O   UNL     1      -5.035  12.427  23.076  0.00  0.00    +0.000 OA
ATOM     24  N   UNL     1      -5.315  12.356  20.864  0.00  0.00    +0.000 N 
ATOM     25  C   UNL     1      -6.666  11.826  20.956  0.00  0.00    +0.000 C 
ATOM     26  C   UNL     1      -7.247  12.049  19.561  0.00  0.00    +0.000 C 
ATOM     27  C   UNL     1      -6.036  11.797  18.691  0.00  0.00    +0.000 C 
ATOM     28  F   UNL     1      -5.782  10.432  18.703  0.00  0.00    +0.000 F 
ATOM     29  C   UNL     1      -4.935  12.535  19.469  0.00  0.00    +0.000 C 
ENDBRANCH  21  22
BRANCH  21  30
ATOM     30  N   UNL     1      -3.534  14.868  21.684  0.00  0.00    +0.000 NA
ATOM     31  H   UNL     1      -4.182  15.251  22.414  0.00  0.00    +0.000 HD
ATOM     32  H   UNL     1      -3.981  14.979  20.746  0.00  0.00    +0.000 HD
ENDBRANCH  21  30
ENDBRANCH  19  21
ENDBRANCH   4  19
TORSDOF 7
ENDMDL
MODEL 3
REMARK VINA RESULT:      -6.6      5.035      7.993
REMARK  Name = 
REMARK  10 active torsions:
REMARK  status: ('A' for Active; 'I' for Inactive)
REMARK    1  A    between atoms: C_1  and  O_2
REMARK    2  A    between atoms: O_2  and  C_3
REMARK    3  A    between atoms: C_6  and  C_7
REMARK    4  A    between atoms: N_9  and  C_10
REMARK    5  A    between atoms: N_9  and  C_11
REMARK    6  A    between atoms: C_14  and  C_15
REMARK    7  A    between atoms: C_15  and  C_16
REMARK    8  A    between atoms: C_15  and  C_17
REMARK    9  A    between atoms: C_17  and  N_18
REMARK   10  A    between atoms: C_17  and  C_19
REMARK                            x       y       z     vdW  Elec       q    Type
REMARK                         _______ _______ _______ _____ _____    ______ ____
ROOT
ATOM      1  C   UNL     1      -1.620  13.208  21.953  0.00  0.00    +0.000 C 
ATOM      2  C   UNL     1      -0.092  13.209  21.711  0.00  0.00    +0.000 C 
ATOM      3  C   UNL     1       0.419  12.037  20.867  0.00  0.00    +0.000 C 
ATOM      4  C   UNL     1      -0.407  11.738  19.588  0.00  0.00    +0.000 C 
ATOM      5  C   UNL     1      -1.943  11.888  19.808  0.00  0.00    +0.000 C 
ATOM      6  C   UNL     1      -2.302  13.158  20.556  0.00  0.00    +0.000 C 
ENDROOT
BRANCH   1   9
ATOM      7  C   UNL     1      -3.390  12.590  23.574  0.00  0.00    +0.000 C 
ATOM      8  O   UNL     1      -3.833  11.781  24.385  0.00  0.00    +0.000 OA
ATOM      9  N   UNL     1      -2.203  12.279  22.915  0.00  0.00    +0.000 N 
ATOM     10  C   UNL     1      -1.545  11.003  23.224  0.00  0.00    +0.000 C 
BRANCH   7  14
ATOM     11  C   UNL     1      -5.857  16.189  23.258  0.00  0.00    +0.000 A 
ATOM     12  C   UNL     1      -4.772  16.112  24.150  0.00  0.00    +0.000 A 
ATOM     13  C   UNL     1      -3.985  14.960  24.211  0.00  0.00    +0.000 A 
ATOM     14  C   UNL     1      -4.248  13.849  23.374  0.00  0.00    +0.000 A 
ATOM     15  C   UNL     1      -5.320  14.017  22.449  0.00  0.00    +0.000 A 
ATOM     16  C   UNL     1      -6.101  15.141  22.406  0.00  0.00    +0.000 A 
BRANCH  11  18
ATOM     17  C   UNL     1      -7.914  17.201  22.573  0.00  0.00    +0.000 C 
ATOM     18  O   UNL     1      -6.701  17.238  23.204  0.00  0.00    +0.000 OA
ENDBRANCH  11  18
ENDBRANCH   7  14
ENDBRANCH   1   9
BRANCH   4  19
ATOM     19  C   UNL     1      -0.005  10.313  18.995  0.00  0.00    +0.000 C 
ATOM     20  C   UNL     1      -0.874   9.984  17.733  0.00  0.00    +0.000 C 
BRANCH  19  21
ATOM     21  C   UNL     1       1.546  10.141  18.769  0.00  0.00    +0.000 C 
BRANCH  21  22
ATOM     22  C   UNL     1       2.006   8.766  18.230  0.00  0.00    +0.000 C 
ATOM     23  O   UNL     1       2.336   8.698  17.054  0.00  0.00    +0.000 OA
ATOM     24  N   UNL     1       2.162   7.644  19.012  0.00  0.00    +0.000 N 
ATOM     25  C   UNL     1       2.802   6.433  18.524  0.00  0.00    +0.000 C 
ATOM     26  C   UNL     1       3.167   5.669  19.797  0.00  0.00    +0.000 C 
ATOM     27  C   UNL     1       1.988   5.995  20.686  0.00  0.00    +0.000 C 
ATOM     28  F   UNL     1       0.890   5.292  20.210  0.00  0.00    +0.000 F 
ATOM     29  C   UNL     1       1.799   7.496  20.414  0.00  0.00    +0.000 C 
ENDBRANCH  21  22
BRANCH  21  30
ATOM     30  N   UNL     1       2.079  11.176  17.884  0.00  0.00    +0.000 NA
ATOM     31  H   UNL     1       2.020  10.889  16.878  0.00  0.00    +0.000 HD
ATOM     32  H   UNL     1       3.078  11.362  18.123  0.00  0.00    +0.000 HD
ENDBRANCH  21  30
ENDBRANCH  19  21
ENDBRANCH   4  19
TORSDOF 7
ENDMDL
MODEL 4
REMARK VINA RESULT:      -6.6      4.904     10.870
REMARK  Name = 
REMARK  10 active torsions:
REMARK  status: ('A' for Active; 'I' for Inactive)
REMARK    1  A    between atoms: C_1  and  O_2
REMARK    2  A    between atoms: O_2  and  C_3
REMARK    3  A    between atoms: C_6  and  C_7
REMARK    4  A    between atoms: N_9  and  C_10
REMARK    5  A    between atoms: N_9  and  C_11
REMARK    6  A    between atoms: C_14  and  C_15
REMARK    7  A    between atoms: C_15  and  C_16
REMARK    8  A    between atoms: C_15  and  C_17
REMARK    9  A    between atoms: C_17  and  N_18
REMARK   10  A    between atoms: C_17  and  C_19
REMARK                            x       y       z     vdW  Elec       q    Type
REMARK                         _______ _______ _______ _____ _____    ______ ____
ROOT
ATOM      1  C   UNL     1       0.044  10.365  19.304  0.00  0.00    +0.000 C 
ATOM      2  C   UNL     1      -1.321  10.972  18.902  0.00  0.00    +0.000 C 
ATOM      3  C   UNL     1      -1.470  12.465  19.212  0.00  0.00    +0.000 C 
ATOM      4  C   UNL     1      -0.259  13.346  18.804  0.00  0.00    +0.000 C 
ATOM      5  C   UNL     1       1.112  12.657  19.077  0.00  0.00    +0.000 C 
ATOM      6  C   UNL     1       1.144  11.215  18.607  0.00  0.00    +0.000 C 
ENDROOT
BRANCH   1   9
ATOM      7  C   UNL     1       1.042   8.948  21.075  0.00  0.00    +0.000 C 
ATOM      8  O   UNL     1       1.245   8.751  22.271  0.00  0.00    +0.000 OA
ATOM      9  N   UNL     1       0.330  10.087  20.708  0.00  0.00    +0.000 N 
ATOM     10  C   UNL     1      -0.138  10.992  21.765  0.00  0.00    +0.000 C 
BRANCH   7  14
ATOM     11  C   UNL     1       2.882   5.858  18.585  0.00  0.00    +0.000 A 
ATOM     12  C   UNL     1       2.265   5.549  19.811  0.00  0.00    +0.000 A 
ATOM     13  C   UNL     1       1.662   6.552  20.574  0.00  0.00    +0.000 A 
ATOM     14  C   UNL     1       1.645   7.896  20.131  0.00  0.00    +0.000 A 
ATOM     15  C   UNL     1       2.228   8.130  18.851  0.00  0.00    +0.000 A 
ATOM     16  C   UNL     1       2.836   7.146  18.116  0.00  0.00    +0.000 A 
BRANCH  11  18
ATOM     17  C   UNL     1       4.332   3.966  18.373  0.00  0.00    +0.000 C 
ATOM     18  O   UNL     1       3.546   4.952  17.841  0.00  0.00    +0.000 OA
ENDBRANCH  11  18
ENDBRANCH   7  14
ENDBRANCH   1   9
BRANCH   4  19
ATOM     19  C   UNL     1      -0.373  14.784  19.481  0.00  0.00    +0.000 C 
ATOM     20  C   UNL     1      -0.107  15.908  18.423  0.00  0.00    +0.000 C 
BRANCH  19  21
ATOM     21  C   UNL     1      -1.700  14.985  20.311  0.00  0.00    +0.000 C 
BRANCH  21  22
ATOM     22  C   UNL     1      -1.557  14.910  21.849  0.00  0.00    +0.000 C 
ATOM     23  O   UNL     1      -0.713  15.620  22.377  0.00  0.00    +0.000 OA
ATOM     24  N   UNL     1      -2.384  14.171  22.665  0.00  0.00    +0.000 N 
ATOM     25  C   UNL     1      -2.366  14.292  24.114  0.00  0.00    +0.000 C 
ATOM     26  C   UNL     1      -3.697  13.682  24.553  0.00  0.00    +0.000 C 
ATOM     27  C   UNL     1      -3.850  12.556  23.556  0.00  0.00    +0.000 C 
ATOM     28  F   UNL     1      -2.935  11.567  23.889  0.00  0.00    +0.000 F 
ATOM     29  C   UNL     1      -3.421  13.238  22.247  0.00  0.00    +0.000 C 
ENDBRANCH  21  22
BRANCH  21  30
ATOM     30  N   UNL     1      -2.355  16.248  19.978  0.00  0.00    +0.000 NA
ATOM     31  H   UNL     1      -1.849  16.754  19.213  0.00  0.00    +0.000 HD
ATOM     32  H   UNL     1      -2.387  16.861  20.823  0.00  0.00    +0.000 HD
ENDBRANCH  21  30
ENDBRANCH  19  21
ENDBRANCH   4  19
TORSDOF 7
ENDMDL
MODEL 5
REMARK VINA RESULT:      -6.5      5.021     10.648
REMARK  Name = 
REMARK  10 active torsions:
REMARK  status: ('A' for Active; 'I' for Inactive)
REMARK    1  A    between atoms: C_1  and  O_2
REMARK    2  A    between atoms: O_2  and  C_3
REMARK    3  A    between atoms: C_6  and  C_7
REMARK    4  A    between atoms: N_9  and  C_10
REMARK    5  A    between atoms: N_9  and  C_11
REMARK    6  A    between atoms: C_14  and  C_15
REMARK    7  A    between atoms: C_15  and  C_16
REMARK    8  A    between atoms: C_15  and  C_17
REMARK    9  A    between atoms: C_17  and  N_18
REMARK   10  A    between atoms: C_17  and  C_19
REMARK                            x       y       z     vdW  Elec       q    Type
REMARK                         _______ _______ _______ _____ _____    ______ ____
ROOT
ATOM      1  C   UNL     1       0.620   9.198  19.629  0.00  0.00    +0.000 C 
ATOM      2  C   UNL     1       0.889   9.717  21.062  0.00  0.00    +0.000 C 
ATOM      3  C   UNL     1       0.923  11.244  21.189  0.00  0.00    +0.000 C 
ATOM      4  C   UNL     1      -0.231  11.990  20.469  0.00  0.00    +0.000 C 
ATOM      5  C   UNL     1      -0.593  11.362  19.090  0.00  0.00    +0.000 C 
ATOM      6  C   UNL     1      -0.708   9.851  19.150  0.00  0.00    +0.000 C 
ENDROOT
BRANCH   1   9
ATOM      7  C   UNL     1       2.421   8.102  18.326  0.00  0.00    +0.000 C 
ATOM      8  O   UNL     1       3.312   8.196  17.487  0.00  0.00    +0.000 OA
ATOM      9  N   UNL     1       1.681   9.243  18.629  0.00  0.00    +0.000 N 
ATOM     10  C   UNL     1       2.004  10.493  17.930  0.00  0.00    +0.000 C 
BRANCH   7  14
ATOM     11  C   UNL     1       1.677   4.064  19.833  0.00  0.00    +0.000 A 
ATOM     12  C   UNL     1       1.829   4.324  18.459  0.00  0.00    +0.000 A 
ATOM     13  C   UNL     1       2.092   5.619  18.007  0.00  0.00    +0.000 A 
ATOM     14  C   UNL     1       2.224   6.697  18.916  0.00  0.00    +0.000 A 
ATOM     15  C   UNL     1       2.124   6.354  20.295  0.00  0.00    +0.000 A 
ATOM     16  C   UNL     1       1.847   5.086  20.732  0.00  0.00    +0.000 A 
BRANCH  11  18
ATOM     17  C   UNL     1       1.475   2.516  21.646  0.00  0.00    +0.000 C 
ATOM     18  O   UNL     1       1.347   2.854  20.326  0.00  0.00    +0.000 OA
ENDBRANCH  11  18
ENDBRANCH   7  14
ENDBRANCH   1   9
BRANCH   4  19
ATOM     19  C   UNL     1       0.098  13.547  20.371  0.00  0.00    +0.000 C 
ATOM     20  C   UNL     1      -0.318  14.105  18.968  0.00  0.00    +0.000 C 
BRANCH  19  21
ATOM     21  C   UNL     1      -0.458  14.386  21.586  0.00  0.00    +0.000 C 
BRANCH  21  22
ATOM     22  C   UNL     1      -1.483  13.668  22.495  0.00  0.00    +0.000 C 
ATOM     23  O   UNL     1      -1.079  13.208  23.554  0.00  0.00    +0.000 OA
ATOM     24  N   UNL     1      -2.832  13.602  22.233  0.00  0.00    +0.000 N 
ATOM     25  C   UNL     1      -3.796  13.115  23.207  0.00  0.00    +0.000 C 
ATOM     26  C   UNL     1      -5.137  13.641  22.695  0.00  0.00    +0.000 C 
ATOM     27  C   UNL     1      -4.949  13.527  21.199  0.00  0.00    +0.000 C 
ATOM     28  F   UNL     1      -5.000  12.180  20.867  0.00  0.00    +0.000 F 
ATOM     29  C   UNL     1      -3.514  14.048  21.026  0.00  0.00    +0.000 C 
ENDBRANCH  21  22
BRANCH  21  30
ATOM     30  N   UNL     1       0.623  14.889  22.431  0.00  0.00    +0.000 NA
ATOM     31  H   UNL     1       1.540  14.443  22.188  0.00  0.00    +0.000 HD
ATOM     32  H   UNL     1       0.407  14.689  23.434  0.00  0.00    +0.000 HD
ENDBRANCH  21  30
ENDBRANCH  19  21
ENDBRANCH   4  19
TORSDOF 7
ENDMDL
MODEL 6
REMARK VINA RESULT:      -6.5      5.689     11.692
REMARK  Name = 
REMARK  10 active torsions:
REMARK  status: ('A' for Active; 'I' for Inactive)
REMARK    1  A    between atoms: C_1  and  O_2
REMARK    2  A    between atoms: O_2  and  C_3
REMARK    3  A    between atoms: C_6  and  C_7
REMARK    4  A    between atoms: N_9  and  C_10
REMARK    5  A    between atoms: N_9  and  C_11
REMARK    6  A    between atoms: C_14  and  C_15
REMARK    7  A    between atoms: C_15  and  C_16
REMARK    8  A    between atoms: C_15  and  C_17
REMARK    9  A    between atoms: C_17  and  N_18
REMARK   10  A    between atoms: C_17  and  C_19
REMARK                            x       y       z     vdW  Elec       q    Type
REMARK                         _______ _______ _______ _____ _____    ______ ____
ROOT
ATOM      1  C   UNL     1       0.045  11.834  21.077  0.00  0.00    +0.000 C 
ATOM      2  C   UNL     1       0.392  13.258  21.573  0.00  0.00    +0.000 C 
ATOM      3  C   UNL     1      -0.743  13.967  22.320  0.00  0.00    +0.000 C 
ATOM      4  C   UNL     1      -1.470  13.102  23.385  0.00  0.00    +0.000 C 
ATOM      5  C   UNL     1      -1.680  11.627  22.929  0.00  0.00    +0.000 C 
ATOM      6  C   UNL     1      -0.430  11.024  22.316  0.00  0.00    +0.000 C 
ENDROOT
BRANCH   1   9
ATOM      7  C   UNL     1      -0.565  10.644  18.990  0.00  0.00    +0.000 C 
ATOM      8  O   UNL     1      -1.307  10.549  18.016  0.00  0.00    +0.000 OA
ATOM      9  N   UNL     1      -0.813  11.661  19.908  0.00  0.00    +0.000 N 
ATOM     10  C   UNL     1      -1.945  12.564  19.666  0.00  0.00    +0.000 C 
BRANCH   7  14
ATOM     11  C   UNL     1       2.505   7.529  19.002  0.00  0.00    +0.000 A 
ATOM     12  C   UNL     1       2.289   8.349  17.880  0.00  0.00    +0.000 A 
ATOM     13  C   UNL     1       1.319   9.354  17.912  0.00  0.00    +0.000 A 
ATOM     14  C   UNL     1       0.541   9.581  19.073  0.00  0.00    +0.000 A 
ATOM     15  C   UNL     1       0.855   8.759  20.195  0.00  0.00    +0.000 A 
ATOM     16  C   UNL     1       1.793   7.763  20.151  0.00  0.00    +0.000 A 
BRANCH  11  18
ATOM     17  C   UNL     1       3.205   5.378  19.783  0.00  0.00    +0.000 C 
ATOM     18  O   UNL     1       3.369   6.494  19.009  0.00  0.00    +0.000 OA
ENDBRANCH  11  18
ENDBRANCH   7  14
ENDBRANCH   1   9
BRANCH   4  19
ATOM     19  C   UNL     1      -2.827  13.809  23.832  0.00  0.00    +0.000 C 
ATOM     20  C   UNL     1      -2.534  14.937  24.879  0.00  0.00    +0.000 C 
BRANCH  19  21
ATOM     21  C   UNL     1      -3.723  14.275  22.621  0.00  0.00    +0.000 C 
BRANCH  21  22
ATOM     22  C   UNL     1      -5.233  13.956  22.730  0.00  0.00    +0.000 C 
ATOM     23  O   UNL     1      -5.840  14.401  23.694  0.00  0.00    +0.000 OA
ATOM     24  N   UNL     1      -5.952  13.289  21.764  0.00  0.00    +0.000 N 
ATOM     25  C   UNL     1      -7.403  13.197  21.792  0.00  0.00    +0.000 C 
ATOM     26  C   UNL     1      -7.777  12.810  20.361  0.00  0.00    +0.000 C 
ATOM     27  C   UNL     1      -6.634  11.889  19.995  0.00  0.00    +0.000 C 
ATOM     28  F   UNL     1      -6.809  10.700  20.691  0.00  0.00    +0.000 F 
ATOM     29  C   UNL     1      -5.427  12.650  20.565  0.00  0.00    +0.000 C 
ENDBRANCH  21  22
BRANCH  21  30
ATOM     30  N   UNL     1      -3.580  15.706  22.365  0.00  0.00    +0.000 NA
ATOM     31  H   UNL     1      -4.482  16.131  22.040  0.00  0.00    +0.000 HD
ATOM     32  H   UNL     1      -2.852  15.862  21.633  0.00  0.00    +0.000 HD
ENDBRANCH  21  30
ENDBRANCH  19  21
ENDBRANCH   4  19
TORSDOF 7
ENDMDL
MODEL 7
REMARK VINA RESULT:      -6.5      3.817      9.300
REMARK  Name = 
REMARK  10 active torsions:
REMARK  status: ('A' for Active; 'I' for Inactive)
REMARK    1  A    between atoms: C_1  and  O_2
REMARK    2  A    between atoms: O_2  and  C_3
REMARK    3  A    between atoms: C_6  and  C_7
REMARK    4  A    between atoms: N_9  and  C_10
REMARK    5  A    between atoms: N_9  and  C_11
REMARK    6  A    between atoms: C_14  and  C_15
REMARK    7  A    between atoms: C_15  and  C_16
REMARK    8  A    between atoms: C_15  and  C_17
REMARK    9  A    between atoms: C_17  and  N_18
REMARK   10  A    between atoms: C_17  and  C_19
REMARK                            x       y       z     vdW  Elec       q    Type
REMARK                         _______ _______ _______ _____ _____    ______ ____
ROOT
ATOM      1  C   UNL     1       0.943   9.491  18.342  0.00  0.00    +0.000 C 
ATOM      2  C   UNL     1      -0.447   9.960  17.850  0.00  0.00    +0.000 C 
ATOM      3  C   UNL     1      -0.926  11.282  18.459  0.00  0.00    +0.000 C 
ATOM      4  C   UNL     1       0.134  12.416  18.484  0.00  0.00    +0.000 C 
ATOM      5  C   UNL     1       1.563  11.903  18.835  0.00  0.00    +0.000 C 
ATOM      6  C   UNL     1       1.939  10.652  18.064  0.00  0.00    +0.000 C 
ENDROOT
BRANCH   1   9
ATOM      7  C   UNL     1       1.837   7.757  19.870  0.00  0.00    +0.000 C 
ATOM      8  O   UNL     1       1.915   7.302  21.008  0.00  0.00    +0.000 OA
ATOM      9  N   UNL     1       1.085   8.913  19.674  0.00  0.00    +0.000 N 
ATOM     10  C   UNL     1       0.427   9.525  20.835  0.00  0.00    +0.000 C 
BRANCH   7  14
ATOM     11  C   UNL     1       4.116   5.367  17.003  0.00  0.00    +0.000 A 
ATOM     12  C   UNL     1       3.067   4.812  17.758  0.00  0.00    +0.000 A 
ATOM     13  C   UNL     1       2.339   5.605  18.648  0.00  0.00    +0.000 A 
ATOM     14  C   UNL     1       2.626   6.983  18.803  0.00  0.00    +0.000 A 
ATOM     15  C   UNL     1       3.656   7.495  17.961  0.00  0.00    +0.000 A 
ATOM     16  C   UNL     1       4.380   6.709  17.105  0.00  0.00    +0.000 A 
BRANCH  11  18
ATOM     17  C   UNL     1       5.655   5.186  15.179  0.00  0.00    +0.000 C 
ATOM     18  O   UNL     1       4.906   4.641  16.186  0.00  0.00    +0.000 OA
ENDBRANCH  11  18
ENDBRANCH   7  14
ENDBRANCH   1   9
BRANCH   4  19
ATOM     19  C   UNL     1      -0.349  13.598  19.438  0.00  0.00    +0.000 C 
ATOM     20  C   UNL     1      -1.363  13.059  20.503  0.00  0.00    +0.000 C 
BRANCH  19  21
ATOM     21  C   UNL     1       0.838  14.438  20.050  0.00  0.00    +0.000 C 
BRANCH  21  22
ATOM     22  C   UNL     1       1.512  15.455  19.098  0.00  0.00    +0.000 C 
ATOM     23  O   UNL     1       0.793  16.264  18.530  0.00  0.00    +0.000 OA
ATOM     24  N   UNL     1       2.874  15.567  18.930  0.00  0.00    +0.000 N 
ATOM     25  C   UNL     1       3.484  16.670  18.203  0.00  0.00    +0.000 C 
ATOM     26  C   UNL     1       4.943  16.647  18.655  0.00  0.00    +0.000 C 
ATOM     27  C   UNL     1       5.190  15.161  18.787  0.00  0.00    +0.000 C 
ATOM     28  F   UNL     1       5.257  14.626  17.508  0.00  0.00    +0.000 F 
ATOM     29  C   UNL     1       3.900  14.692  19.478  0.00  0.00    +0.000 C 
ENDBRANCH  21  22
BRANCH  21  30
ATOM     30  N   UNL     1       0.426  15.152  21.256  0.00  0.00    +0.000 NA
ATOM     31  H   UNL     1       1.223  15.267  21.926  0.00  0.00    +0.000 HD
ATOM     32  H   UNL     1      -0.340  14.625  21.732  0.00  0.00    +0.000 HD
ENDBRANCH  21  30
ENDBRANCH  19  21
ENDBRANCH   4  19
TORSDOF 7
ENDMDL
MODEL 8
REMARK VINA RESULT:      -6.5      3.486      5.250
REMARK  Name = 
REMARK  10 active torsions:
REMARK  status: ('A' for Active; 'I' for Inactive)
REMARK    1  A    between atoms: C_1  and  O_2
REMARK    2  A    between atoms: O_2  and  C_3
REMARK    3  A    between atoms: C_6  and  C_7
REMARK    4  A    between atoms: N_9  and  C_10
REMARK    5  A    between atoms: N_9  and  C_11
REMARK    6  A    between atoms: C_14  and  C_15
REMARK    7  A    between atoms: C_15  and  C_16
REMARK    8  A    between atoms: C_15  and  C_17
REMARK    9  A    between atoms: C_17  and  N_18
REMARK   10  A    between atoms: C_17  and  C_19
REMARK                            x       y       z     vdW  Elec       q    Type
REMARK                         _______ _______ _______ _____ _____    ______ ____
ROOT
ATOM      1  C   UNL     1       0.005  11.059  19.114  0.00  0.00    +0.000 C 
ATOM      2  C   UNL     1       0.511  10.344  17.839  0.00  0.00    +0.000 C 
ATOM      3  C   UNL     1       1.515   9.215  18.097  0.00  0.00    +0.000 C 
ATOM      4  C   UNL     1       1.126   8.238  19.239  0.00  0.00    +0.000 C 
ATOM      5  C   UNL     1       0.478   8.958  20.459  0.00  0.00    +0.000 C 
ATOM      6  C   UNL     1      -0.582   9.962  20.048  0.00  0.00    +0.000 C 
ENDROOT
BRANCH   1   9
ATOM      7  C   UNL     1       0.418  12.689  20.935  0.00  0.00    +0.000 C 
ATOM      8  O   UNL     1       1.180  13.486  21.475  0.00  0.00    +0.000 OA
ATOM      9  N   UNL     1       0.871  12.007  19.808  0.00  0.00    +0.000 N 
ATOM     10  C   UNL     1       2.231  12.276  19.326  0.00  0.00    +0.000 C 
BRANCH   7  14
ATOM     11  C   UNL     1      -3.514  12.488  22.840  0.00  0.00    +0.000 A 
ATOM     12  C   UNL     1      -3.322  13.139  21.608  0.00  0.00    +0.000 A 
ATOM     13  C   UNL     1      -2.060  13.165  21.009  0.00  0.00    +0.000 A 
ATOM     14  C   UNL     1      -0.950  12.531  21.617  0.00  0.00    +0.000 A 
ATOM     15  C   UNL     1      -1.227  11.834  22.829  0.00  0.00    +0.000 A 
ATOM     16  C   UNL     1      -2.461  11.828  23.422  0.00  0.00    +0.000 A 
BRANCH  11  18
ATOM     17  C   UNL     1      -4.783  12.349  24.864  0.00  0.00    +0.000 C 
ATOM     18  O   UNL     1      -4.685  12.493  23.507  0.00  0.00    +0.000 OA
ENDBRANCH  11  18
ENDBRANCH   7  14
ENDBRANCH   1   9
BRANCH   4  19
ATOM     19  C   UNL     1       2.381   7.342  19.645  0.00  0.00    +0.000 C 
ATOM     20  C   UNL     1       2.087   6.563  20.972  0.00  0.00    +0.000 C 
BRANCH  19  21
ATOM     21  C   UNL     1       2.910   6.432  18.470  0.00  0.00    +0.000 C 
BRANCH  21  22
ATOM     22  C   UNL     1       4.135   5.546  18.796  0.00  0.00    +0.000 C 
ATOM     23  O   UNL     1       3.962   4.588  19.538  0.00  0.00    +0.000 OA
ATOM     24  N   UNL     1       5.378   5.708  18.228  0.00  0.00    +0.000 N 
ATOM     25  C   UNL     1       6.445   4.732  18.385  0.00  0.00    +0.000 C 
ATOM     26  C   UNL     1       7.420   5.066  17.257  0.00  0.00    +0.000 C 
ATOM     27  C   UNL     1       7.323   6.575  17.217  0.00  0.00    +0.000 C 
ATOM     28  F   UNL     1       7.969   7.071  18.341  0.00  0.00    +0.000 F 
ATOM     29  C   UNL     1       5.807   6.791  17.354  0.00  0.00    +0.000 C 
ENDBRANCH  21  22
BRANCH  21  30
ATOM     30  N   UNL     1       1.856   5.570  17.940  0.00  0.00    +0.000 NA
ATOM     31  H   UNL     1       1.241   5.201  18.704  0.00  0.00    +0.000 HD
ATOM     32  H   UNL     1       2.283   4.764  17.432  0.00  0.00    +0.000 HD
ENDBRANCH  21  30
ENDBRANCH  19  21
ENDBRANCH   4  19
TORSDOF 7
ENDMDL
MODEL 9
REMARK VINA RESULT:      -6.5      3.145      8.652
REMARK  Name = 
REMARK  10 active torsions:
REMARK  status: ('A' for Active; 'I' for Inactive)
REMARK    1  A    between atoms: C_1  and  O_2
REMARK    2  A    between atoms: O_2  and  C_3
REMARK    3  A    between atoms: C_6  and  C_7
REMARK    4  A    between atoms: N_9  and  C_10
REMARK    5  A    between atoms: N_9  and  C_11
REMARK    6  A    between atoms: C_14  and  C_15
REMARK    7  A    between atoms: C_15  and  C_16
REMARK    8  A    between atoms: C_15  and  C_17
REMARK    9  A    between atoms: C_17  and  N_18
REMARK   10  A    between atoms: C_17  and  C_19
REMARK                            x       y       z     vdW  Elec       q    Type
REMARK                         _______ _______ _______ _____ _____    ______ ____
ROOT
ATOM      1  C   UNL     1       3.161   5.183  19.591  0.00  0.00    +0.000 C 
ATOM      2  C   UNL     1       3.544   6.623  19.177  0.00  0.00    +0.000 C 
ATOM      3  C   UNL     1       2.419   7.652  19.334  0.00  0.00    +0.000 C 
ATOM      4  C   UNL     1       1.647   7.581  20.679  0.00  0.00    +0.000 C 
ATOM      5  C   UNL     1       1.399   6.120  21.161  0.00  0.00    +0.000 C 
ATOM      6  C   UNL     1       2.640   5.253  21.054  0.00  0.00    +0.000 C 
ENDROOT
BRANCH   1   9
ATOM      7  C   UNL     1       2.747   4.036  17.433  0.00  0.00    +0.000 C 
ATOM      8  O   UNL     1       1.996   3.366  16.729  0.00  0.00    +0.000 OA
ATOM      9  N   UNL     1       2.319   4.375  18.714  0.00  0.00    +0.000 N 
ATOM     10  C   UNL     1       0.997   3.914  19.156  0.00  0.00    +0.000 C 
BRANCH   7  14
ATOM     11  C   UNL     1       6.469   5.176  15.439  0.00  0.00    +0.000 A 
ATOM     12  C   UNL     1       5.490   6.128  15.776  0.00  0.00    +0.000 A 
ATOM     13  C   UNL     1       4.322   5.739  16.436  0.00  0.00    +0.000 A 
ATOM     14  C   UNL     1       4.099   4.388  16.793  0.00  0.00    +0.000 A 
ATOM     15  C   UNL     1       5.159   3.487  16.482  0.00  0.00    +0.000 A 
ATOM     16  C   UNL     1       6.293   3.869  15.817  0.00  0.00    +0.000 A 
BRANCH  11  18
ATOM     17  C   UNL     1       7.744   5.157  13.414  0.00  0.00    +0.000 C 
ATOM     18  O   UNL     1       7.580   5.472  14.735  0.00  0.00    +0.000 OA
ENDBRANCH  11  18
ENDBRANCH   7  14
ENDBRANCH   1   9
BRANCH   4  19
ATOM     19  C   UNL     1       0.305   8.437  20.587  0.00  0.00    +0.000 C 
ATOM     20  C   UNL     1      -0.554   8.243  21.882  0.00  0.00    +0.000 C 
BRANCH  19  21
ATOM     21  C   UNL     1       0.548   9.946  20.197  0.00  0.00    +0.000 C 
BRANCH  21  22
ATOM     22  C   UNL     1      -0.715  10.771  19.855  0.00  0.00    +0.000 C 
ATOM     23  O   UNL     1      -1.083  11.610  20.665  0.00  0.00    +0.000 OA
ATOM     24  N   UNL     1      -1.389  10.688  18.658  0.00  0.00    +0.000 N 
ATOM     25  C   UNL     1      -2.434  11.627  18.281  0.00  0.00    +0.000 C 
ATOM     26  C   UNL     1      -2.555  11.457  16.767  0.00  0.00    +0.000 C 
ATOM     27  C   UNL     1      -2.320   9.971  16.615  0.00  0.00    +0.000 C 
ATOM     28  F   UNL     1      -3.447   9.313  17.089  0.00  0.00    +0.000 F 
ATOM     29  C   UNL     1      -1.144   9.743  17.577  0.00  0.00    +0.000 C 
ENDBRANCH  21  22
BRANCH  21  30
ATOM     30  N   UNL     1       1.285  10.659  21.239  0.00  0.00    +0.000 NA
ATOM     31  H   UNL     1       2.263  10.879  20.934  0.00  0.00    +0.000 HD
ATOM     32  H   UNL     1       1.326  10.074  22.103  0.00  0.00    +0.000 HD
ENDBRANCH  21  30
ENDBRANCH  19  21
ENDBRANCH   4  19
TORSDOF 7
ENDMDL
