MODEL 1
REMARK VINA RESULT:      -8.2      0.000      0.000
REMARK  Name = 
REMARK  9 active torsions:
REMARK  status: ('A' for Active; 'I' for Inactive)
REMARK    1  A    between atoms: C_1  and  C_2
REMARK    2  A    between atoms: C_2  and  O_3
REMARK    3  A    between atoms: O_3  and  C_4
REMARK    4  A    between atoms: C_4  and  C_6
REMARK    5  A    between atoms: C_7  and  C_8
REMARK    6  A    between atoms: C_20  and  N_21
REMARK    7  A    between atoms: C_22  and  C_24
REMARK    8  A    between atoms: C_30  and  C_31
REMARK    9  A    between atoms: C_31  and  O_33
REMARK                            x       y       z     vdW  Elec       q    Type
REMARK                         _______ _______ _______ _____ _____    ______ ____
ROOT
ATOM      1  C   UNL     1       1.211   9.389  20.162  0.00  0.00    +0.000 A 
ATOM      2  C   UNL     1       1.111  10.411  19.135  0.00  0.00    +0.000 A 
ATOM      3  C   UNL     1       1.583   9.948  17.919  0.00  0.00    +0.000 A 
ATOM      4  S   UNL     1       2.129   8.335  17.990  0.00  0.00    +0.000 S 
ATOM      5  C   UNL     1       1.791   8.240  19.658  0.00  0.00    +0.000 A 
ENDROOT
BRANCH   2   6
ATOM      6  C   UNL     1       0.564  11.768  19.253  0.00  0.00    +0.000 A 
ATOM      7  C   UNL     1      -0.807  11.988  19.428  0.00  0.00    +0.000 A 
ATOM      8  C   UNL     1      -1.307  13.286  19.584  0.00  0.00    +0.000 A 
ATOM      9  C   UNL     1      -0.446  14.394  19.550  0.00  0.00    +0.000 A 
ATOM     10  C   UNL     1      -0.922  15.703  19.718  0.00  0.00    +0.000 A 
ATOM     11  C   UNL     1      -0.047  16.790  19.665  0.00  0.00    +0.000 A 
ATOM     12  C   UNL     1       1.308  16.585  19.424  0.00  0.00    +0.000 A 
ATOM     13  C   UNL     1       1.794  15.289  19.258  0.00  0.00    +0.000 A 
ATOM     14  C   UNL     1       0.931  14.186  19.336  0.00  0.00    +0.000 A 
ATOM     15  C   UNL     1       1.420  12.877  19.211  0.00  0.00    +0.000 A 
ENDBRANCH   2   6
BRANCH   5  16
ATOM     16  N   UNL     1       2.114   7.040  20.286  0.00  0.00    +0.000 N 
ATOM     17  C   UNL     1       2.874   6.138  19.548  0.00  0.00    +0.000 C 
ATOM     18  O   UNL     1       3.379   6.415  18.460  0.00  0.00    +0.000 OA
ATOM     19  H   UNL     1       2.373   7.099  21.266  0.00  0.00    +0.000 HD
BRANCH  17  20
ATOM     20  C   UNL     1       3.065   4.765  20.197  0.00  0.00    +0.000 C 
ATOM     21  C   UNL     1       1.893   4.412  21.149  0.00  0.00    +0.000 C 
ATOM     22  C   UNL     1       2.066   3.013  21.719  0.00  0.00    +0.000 C 
ATOM     23  C   UNL     1       1.847   2.139  20.727  0.00  0.00    +0.000 C 
ATOM     24  C   UNL     1       1.603   2.947  19.482  0.00  0.00    +0.000 C 
ATOM     25  C   UNL     1       0.798   4.083  20.128  0.00  0.00    +0.000 C 
ATOM     26  C   UNL     1       2.926   3.658  19.086  0.00  0.00    +0.000 C 
BRANCH  26  27
ATOM     27  C   UNL     1       4.150   2.765  19.023  0.00  0.00    +0.000 C 
ATOM     28  O   UNL     1       5.144   2.890  19.722  0.00  0.00    +0.000 OA
BRANCH  27  29
ATOM     29  O   UNL     1       4.080   1.832  18.046  0.00  0.00    +0.000 OA
ATOM     30  H   UNL     1       4.343   0.939  18.333  0.00  0.00    +0.000 HD
ENDBRANCH  27  29
ENDBRANCH  26  27
ENDBRANCH  17  20
ENDBRANCH   5  16
BRANCH   1  31
ATOM     31  C   UNL     1       0.902   9.564  21.571  0.00  0.00    +0.000 C 
ATOM     32  O   UNL     1       1.748   9.545  22.456  0.00  0.00    +0.000 OA
BRANCH  31  33
ATOM     33  O   UNL     1      -0.439   9.722  21.797  0.00  0.00    +0.000 OA
BRANCH  33  35
ATOM     34  C   UNL     1      -1.376  11.555  22.994  0.00  0.00    +0.000 C 
ATOM     35  C   UNL     1      -0.762  10.174  23.120  0.00  0.00    +0.000 C 
ENDBRANCH  33  35
ENDBRANCH  31  33
ENDBRANCH   1  31
TORSDOF 8
ENDMDL
MODEL 2
REMARK VINA RESULT:      -8.2      0.907      1.063
REMARK  Name = 
REMARK  9 active torsions:
REMARK  status: ('A' for Active; 'I' for Inactive)
REMARK    1  A    between atoms: C_1  and  C_2
REMARK    2  A    between atoms: C_2  and  O_3
REMARK    3  A    between atoms: O_3  and  C_4
REMARK    4  A    between atoms: C_4  and  C_6
REMARK    5  A    between atoms: C_7  and  C_8
REMARK    6  A    between atoms: C_20  and  N_21
REMARK    7  A    between atoms: C_22  and  C_24
REMARK    8  A    between atoms: C_30  and  C_31
REMARK    9  A    between atoms: C_31  and  O_33
REMARK                            x       y       z     vdW  Elec       q    Type
REMARK                         _______ _______ _______ _____ _____    ______ ____
ROOT
ATOM      1  C   UNL     1       1.206   9.259  20.291  0.00  0.00    +0.000 A 
ATOM      2  C   UNL     1       0.910  10.353  19.382  0.00  0.00    +0.000 A 
ATOM      3  C   UNL     1       1.396  10.096  18.112  0.00  0.00    +0.000 A 
ATOM      4  S   UNL     1       2.181   8.588  17.995  0.00  0.00    +0.000 S 
ATOM      5  C   UNL     1       1.931   8.271  19.651  0.00  0.00    +0.000 A 
ENDROOT
BRANCH   2   6
ATOM      6  C   UNL     1       0.171  11.590  19.659  0.00  0.00    +0.000 A 
ATOM      7  C   UNL     1      -1.191  11.708  19.360  0.00  0.00    +0.000 A 
ATOM      8  C   UNL     1      -1.892  12.878  19.671  0.00  0.00    +0.000 A 
ATOM      9  C   UNL     1      -1.239  13.964  20.275  0.00  0.00    +0.000 A 
ATOM     10  C   UNL     1      -1.924  15.142  20.610  0.00  0.00    +0.000 A 
ATOM     11  C   UNL     1      -1.249  16.216  21.196  0.00  0.00    +0.000 A 
ATOM     12  C   UNL     1       0.120  16.132  21.436  0.00  0.00    +0.000 A 
ATOM     13  C   UNL     1       0.811  14.966  21.111  0.00  0.00    +0.000 A 
ATOM     14  C   UNL     1       0.140  13.871  20.547  0.00  0.00    +0.000 A 
ATOM     15  C   UNL     1       0.822  12.680  20.255  0.00  0.00    +0.000 A 
ENDBRANCH   2   6
BRANCH   5  16
ATOM     16  N   UNL     1       2.457   7.077  20.137  0.00  0.00    +0.000 N 
ATOM     17  C   UNL     1       2.497   6.008  19.248  0.00  0.00    +0.000 C 
ATOM     18  O   UNL     1       2.236   6.118  18.050  0.00  0.00    +0.000 OA
ATOM     19  H   UNL     1       3.275   7.154  20.733  0.00  0.00    +0.000 HD
BRANCH  17  20
ATOM     20  C   UNL     1       2.917   4.669  19.860  0.00  0.00    +0.000 C 
ATOM     21  C   UNL     1       2.059   4.311  21.101  0.00  0.00    +0.000 C 
ATOM     22  C   UNL     1       2.442   2.942  21.642  0.00  0.00    +0.000 C 
ATOM     23  C   UNL     1       2.005   2.024  20.771  0.00  0.00    +0.000 C 
ATOM     24  C   UNL     1       1.400   2.773  19.616  0.00  0.00    +0.000 C 
ATOM     25  C   UNL     1       0.747   3.904  20.423  0.00  0.00    +0.000 C 
ATOM     26  C   UNL     1       2.534   3.515  18.857  0.00  0.00    +0.000 C 
BRANCH  26  27
ATOM     27  C   UNL     1       3.735   2.665  18.492  0.00  0.00    +0.000 C 
ATOM     28  O   UNL     1       3.688   1.626  17.851  0.00  0.00    +0.000 OA
BRANCH  27  29
ATOM     29  O   UNL     1       4.894   3.127  19.014  0.00  0.00    +0.000 OA
ATOM     30  H   UNL     1       5.090   4.053  18.785  0.00  0.00    +0.000 HD
ENDBRANCH  27  29
ENDBRANCH  26  27
ENDBRANCH  17  20
ENDBRANCH   5  16
BRANCH   1  31
ATOM     31  C   UNL     1       0.933   9.238  21.717  0.00  0.00    +0.000 C 
ATOM     32  O   UNL     1       1.806   9.165  22.572  0.00  0.00    +0.000 OA
BRANCH  31  33
ATOM     33  O   UNL     1      -0.408   9.282  21.995  0.00  0.00    +0.000 OA
BRANCH  33  35
ATOM     34  C   UNL     1      -1.309  11.235  23.016  0.00  0.00    +0.000 C 
ATOM     35  C   UNL     1      -0.725   9.858  23.269  0.00  0.00    +0.000 C 
ENDBRANCH  33  35
ENDBRANCH  31  33
ENDBRANCH   1  31
TORSDOF 8
ENDMDL
MODEL 3
REMARK VINA RESULT:      -8.1      3.590      9.317
REMARK  Name = 
REMARK  9 active torsions:
REMARK  status: ('A' for Active; 'I' for Inactive)
REMARK    1  A    between atoms: C_1  and  C_2
REMARK    2  A    between atoms: C_2  and  O_3
REMARK    3  A    between atoms: O_3  and  C_4
REMARK    4  A    between atoms: C_4  and  C_6
REMARK    5  A    between atoms: C_7  and  C_8
REMARK    6  A    between atoms: C_20  and  N_21
REMARK    7  A    between atoms: C_22  and  C_24
REMARK    8  A    between atoms: C_30  and  C_31
REMARK    9  A    between atoms: C_31  and  O_33
REMARK                            x       y       z     vdW  Elec       q    Type
REMARK                         _______ _______ _______ _____ _____    ______ ____
ROOT
ATOM      1  C   UNL     1      -0.181   9.953  20.627  0.00  0.00    +0.000 A 
ATOM      2  C   UNL     1       0.904   9.006  20.816  0.00  0.00    +0.000 A 
ATOM      3  C   UNL     1       1.111   8.742  22.159  0.00  0.00    +0.000 A 
ATOM      4  S   UNL     1       0.041   9.594  23.175  0.00  0.00    +0.000 S 
ATOM      5  C   UNL     1      -0.688  10.369  21.844  0.00  0.00    +0.000 A 
ENDROOT
BRANCH   2   6
ATOM      6  C   UNL     1       1.710   8.331  19.792  0.00  0.00    +0.000 A 
ATOM      7  C   UNL     1       2.013   8.953  18.575  0.00  0.00    +0.000 A 
ATOM      8  C   UNL     1       2.820   8.314  17.628  0.00  0.00    +0.000 A 
ATOM      9  C   UNL     1       3.329   7.028  17.872  0.00  0.00    +0.000 A 
ATOM     10  C   UNL     1       4.152   6.373  16.943  0.00  0.00    +0.000 A 
ATOM     11  C   UNL     1       4.633   5.088  17.202  0.00  0.00    +0.000 A 
ATOM     12  C   UNL     1       4.282   4.435  18.380  0.00  0.00    +0.000 A 
ATOM     13  C   UNL     1       3.467   5.075  19.312  0.00  0.00    +0.000 A 
ATOM     14  C   UNL     1       3.000   6.377  19.077  0.00  0.00    +0.000 A 
ATOM     15  C   UNL     1       2.213   7.044  20.028  0.00  0.00    +0.000 A 
ENDBRANCH   2   6
BRANCH   5  16
ATOM     16  N   UNL     1      -1.693  11.287  22.138  0.00  0.00    +0.000 N 
ATOM     17  C   UNL     1      -1.282  12.581  22.441  0.00  0.00    +0.000 C 
ATOM     18  O   UNL     1      -0.119  12.965  22.315  0.00  0.00    +0.000 OA
ATOM     19  H   UNL     1      -2.530  11.239  21.565  0.00  0.00    +0.000 HD
BRANCH  17  20
ATOM     20  C   UNL     1      -2.390  13.518  22.926  0.00  0.00    +0.000 C 
ATOM     21  C   UNL     1      -2.703  14.625  21.885  0.00  0.00    +0.000 C 
ATOM     22  C   UNL     1      -3.860  15.493  22.356  0.00  0.00    +0.000 C 
ATOM     23  C   UNL     1      -4.978  14.760  22.276  0.00  0.00    +0.000 C 
ATOM     24  C   UNL     1      -4.565  13.385  21.827  0.00  0.00    +0.000 C 
ATOM     25  C   UNL     1      -3.471  13.810  20.838  0.00  0.00    +0.000 C 
ATOM     26  C   UNL     1      -3.746  12.717  22.966  0.00  0.00    +0.000 C 
BRANCH  26  27
ATOM     27  C   UNL     1      -4.387  12.762  24.339  0.00  0.00    +0.000 C 
ATOM     28  O   UNL     1      -5.403  12.162  24.657  0.00  0.00    +0.000 OA
BRANCH  27  29
ATOM     29  O   UNL     1      -3.763  13.606  25.192  0.00  0.00    +0.000 OA
ATOM     30  H   UNL     1      -4.276  14.405  25.403  0.00  0.00    +0.000 HD
ENDBRANCH  27  29
ENDBRANCH  26  27
ENDBRANCH  17  20
ENDBRANCH   5  16
BRANCH   1  31
ATOM     31  C   UNL     1      -0.599  10.527  19.360  0.00  0.00    +0.000 C 
ATOM     32  O   UNL     1      -1.397   9.989  18.604  0.00  0.00    +0.000 OA
BRANCH  31  33
ATOM     33  O   UNL     1       0.020  11.721  19.096  0.00  0.00    +0.000 OA
BRANCH  33  35
ATOM     34  C   UNL     1      -0.255  14.077  18.889  0.00  0.00    +0.000 C 
ATOM     35  C   UNL     1      -0.846  12.723  18.546  0.00  0.00    +0.000 C 
ENDBRANCH  33  35
ENDBRANCH  31  33
ENDBRANCH   1  31
TORSDOF 8
ENDMDL
MODEL 4
REMARK VINA RESULT:      -8.0      3.948      9.336
REMARK  Name = 
REMARK  9 active torsions:
REMARK  status: ('A' for Active; 'I' for Inactive)
REMARK    1  A    between atoms: C_1  and  C_2
REMARK    2  A    between atoms: C_2  and  O_3
REMARK    3  A    between atoms: O_3  and  C_4
REMARK    4  A    between atoms: C_4  and  C_6
REMARK    5  A    between atoms: C_7  and  C_8
REMARK    6  A    between atoms: C_20  and  N_21
REMARK    7  A    between atoms: C_22  and  C_24
REMARK    8  A    between atoms: C_30  and  C_31
REMARK    9  A    between atoms: C_31  and  O_33
REMARK                            x       y       z     vdW  Elec       q    Type
REMARK                         _______ _______ _______ _____ _____    ______ ____
ROOT
ATOM      1  C   UNL     1      -0.172   9.979  20.610  0.00  0.00    +0.000 A 
ATOM      2  C   UNL     1       0.917   9.034  20.788  0.00  0.00    +0.000 A 
ATOM      3  C   UNL     1       1.128   8.760  22.128  0.00  0.00    +0.000 A 
ATOM      4  S   UNL     1       0.058   9.599  23.154  0.00  0.00    +0.000 S 
ATOM      5  C   UNL     1      -0.677  10.383  21.832  0.00  0.00    +0.000 A 
ENDROOT
BRANCH   2   6
ATOM      6  C   UNL     1       1.723   8.370  19.757  0.00  0.00    +0.000 A 
ATOM      7  C   UNL     1       2.026   9.007  18.547  0.00  0.00    +0.000 A 
ATOM      8  C   UNL     1       2.833   8.378  17.593  0.00  0.00    +0.000 A 
ATOM      9  C   UNL     1       3.341   7.089  17.822  0.00  0.00    +0.000 A 
ATOM     10  C   UNL     1       4.163   6.444  16.886  0.00  0.00    +0.000 A 
ATOM     11  C   UNL     1       4.643   5.155  17.130  0.00  0.00    +0.000 A 
ATOM     12  C   UNL     1       4.292   4.489  18.300  0.00  0.00    +0.000 A 
ATOM     13  C   UNL     1       3.478   5.120  19.239  0.00  0.00    +0.000 A 
ATOM     14  C   UNL     1       3.011   6.424  19.019  0.00  0.00    +0.000 A 
ATOM     15  C   UNL     1       2.225   7.080  19.978  0.00  0.00    +0.000 A 
ENDBRANCH   2   6
BRANCH   5  16
ATOM     16  N   UNL     1      -1.684  11.296  22.136  0.00  0.00    +0.000 N 
ATOM     17  C   UNL     1      -1.276  12.586  22.456  0.00  0.00    +0.000 C 
ATOM     18  O   UNL     1      -0.114  12.975  22.336  0.00  0.00    +0.000 OA
ATOM     19  H   UNL     1      -2.520  11.253  21.561  0.00  0.00    +0.000 HD
BRANCH  17  20
ATOM     20  C   UNL     1      -2.387  13.515  22.951  0.00  0.00    +0.000 C 
ATOM     21  C   UNL     1      -2.702  14.633  21.923  0.00  0.00    +0.000 C 
ATOM     22  C   UNL     1      -3.861  15.492  22.404  0.00  0.00    +0.000 C 
ATOM     23  C   UNL     1      -4.978  14.758  22.314  0.00  0.00    +0.000 C 
ATOM     24  C   UNL     1      -4.562  13.389  21.850  0.00  0.00    +0.000 C 
ATOM     25  C   UNL     1      -3.467  13.829  20.867  0.00  0.00    +0.000 C 
ATOM     26  C   UNL     1      -3.741  12.710  22.981  0.00  0.00    +0.000 C 
BRANCH  26  27
ATOM     27  C   UNL     1      -4.383  12.737  24.354  0.00  0.00    +0.000 C 
ATOM     28  O   UNL     1      -5.392  12.124  24.668  0.00  0.00    +0.000 OA
BRANCH  27  29
ATOM     29  O   UNL     1      -3.768  13.582  25.214  0.00  0.00    +0.000 OA
ATOM     30  H   UNL     1      -2.831  13.372  25.372  0.00  0.00    +0.000 HD
ENDBRANCH  27  29
ENDBRANCH  26  27
ENDBRANCH  17  20
ENDBRANCH   5  16
BRANCH   1  31
ATOM     31  C   UNL     1      -0.595  10.563  19.349  0.00  0.00    +0.000 C 
ATOM     32  O   UNL     1      -0.145  11.610  18.904  0.00  0.00    +0.000 OA
BRANCH  31  33
ATOM     33  O   UNL     1      -1.571   9.825  18.732  0.00  0.00    +0.000 OA
BRANCH  33  35
ATOM     34  C   UNL     1      -3.116  10.033  16.932  0.00  0.00    +0.000 C 
ATOM     35  C   UNL     1      -1.648  10.023  17.313  0.00  0.00    +0.000 C 
ENDBRANCH  33  35
ENDBRANCH  31  33
ENDBRANCH   1  31
TORSDOF 8
ENDMDL
MODEL 5
REMARK VINA RESULT:      -8.0      1.166      2.069
REMARK  Name = 
REMARK  9 active torsions:
REMARK  status: ('A' for Active; 'I' for Inactive)
REMARK    1  A    between atoms: C_1  and  C_2
REMARK    2  A    between atoms: C_2  and  O_3
REMARK    3  A    between atoms: O_3  and  C_4
REMARK    4  A    between atoms: C_4  and  C_6
REMARK    5  A    between atoms: C_7  and  C_8
REMARK    6  A    between atoms: C_20  and  N_21
REMARK    7  A    between atoms: C_22  and  C_24
REMARK    8  A    between atoms: C_30  and  C_31
REMARK    9  A    between atoms: C_31  and  O_33
REMARK                            x       y       z     vdW  Elec       q    Type
REMARK                         _______ _______ _______ _____ _____    ______ ____
ROOT
ATOM      1  C   UNL     1       1.075   9.428  20.413  0.00  0.00    +0.000 A 
ATOM      2  C   UNL     1       0.683  10.513  19.530  0.00  0.00    +0.000 A 
ATOM      3  C   UNL     1       1.123  10.291  18.237  0.00  0.00    +0.000 A 
ATOM      4  S   UNL     1       1.980   8.827  18.069  0.00  0.00    +0.000 S 
ATOM      5  C   UNL     1       1.821   8.484  19.731  0.00  0.00    +0.000 A 
ENDROOT
BRANCH   2   6
ATOM      6  C   UNL     1      -0.106  11.707  19.853  0.00  0.00    +0.000 A 
ATOM      7  C   UNL     1       0.509  12.937  20.119  0.00  0.00    +0.000 A 
ATOM      8  C   UNL     1      -0.259  14.076  20.382  0.00  0.00    +0.000 A 
ATOM      9  C   UNL     1      -1.661  14.007  20.399  0.00  0.00    +0.000 A 
ATOM     10  C   UNL     1      -2.452  15.139  20.645  0.00  0.00    +0.000 A 
ATOM     11  C   UNL     1      -3.845  15.041  20.673  0.00  0.00    +0.000 A 
ATOM     12  C   UNL     1      -4.462  13.810  20.475  0.00  0.00    +0.000 A 
ATOM     13  C   UNL     1      -3.688  12.678  20.227  0.00  0.00    +0.000 A 
ATOM     14  C   UNL     1      -2.289  12.767  20.169  0.00  0.00    +0.000 A 
ATOM     15  C   UNL     1      -1.506  11.640  19.879  0.00  0.00    +0.000 A 
ENDBRANCH   2   6
BRANCH   5  16
ATOM     16  N   UNL     1       2.429   7.315  20.181  0.00  0.00    +0.000 N 
ATOM     17  C   UNL     1       2.351   6.211  19.340  0.00  0.00    +0.000 C 
ATOM     18  O   UNL     1       1.913   6.269  18.191  0.00  0.00    +0.000 OA
ATOM     19  H   UNL     1       3.326   7.423  20.645  0.00  0.00    +0.000 HD
BRANCH  17  20
ATOM     20  C   UNL     1       2.875   4.902  19.935  0.00  0.00    +0.000 C 
ATOM     21  C   UNL     1       1.905   4.327  21.000  0.00  0.00    +0.000 C 
ATOM     22  C   UNL     1       2.408   2.988  21.517  0.00  0.00    +0.000 C 
ATOM     23  C   UNL     1       2.255   2.089  20.537  0.00  0.00    +0.000 C 
ATOM     24  C   UNL     1       1.723   2.833  19.343  0.00  0.00    +0.000 C 
ATOM     25  C   UNL     1       0.789   3.791  20.096  0.00  0.00    +0.000 C 
ATOM     26  C   UNL     1       2.831   3.788  18.821  0.00  0.00    +0.000 C 
BRANCH  26  27
ATOM     27  C   UNL     1       4.190   3.151  18.607  0.00  0.00    +0.000 C 
ATOM     28  O   UNL     1       5.214   3.476  19.188  0.00  0.00    +0.000 OA
BRANCH  27  29
ATOM     29  O   UNL     1       4.191   2.211  17.634  0.00  0.00    +0.000 OA
ATOM     30  H   UNL     1       5.011   2.186  17.111  0.00  0.00    +0.000 HD
ENDBRANCH  27  29
ENDBRANCH  26  27
ENDBRANCH  17  20
ENDBRANCH   5  16
BRANCH   1  31
ATOM     31  C   UNL     1       0.869   9.382  21.850  0.00  0.00    +0.000 C 
ATOM     32  O   UNL     1       1.776   9.470  22.667  0.00  0.00    +0.000 OA
BRANCH  31  33
ATOM     33  O   UNL     1      -0.448   9.200  22.184  0.00  0.00    +0.000 OA
BRANCH  33  35
ATOM     34  C   UNL     1      -1.347  11.153  23.207  0.00  0.00    +0.000 C 
ATOM     35  C   UNL     1      -0.813   9.755  23.455  0.00  0.00    +0.000 C 
ENDBRANCH  33  35
ENDBRANCH  31  33
ENDBRANCH   1  31
TORSDOF 8
ENDMDL
MODEL 6
REMARK VINA RESULT:      -8.0      4.253      9.781
REMARK  Name = 
REMARK  9 active torsions:
REMARK  status: ('A' for Active; 'I' for Inactive)
REMARK    1  A    between atoms: C_1  and  C_2
REMARK    2  A    between atoms: C_2  and  O_3
REMARK    3  A    between atoms: O_3  and  C_4
REMARK    4  A    between atoms: C_4  and  C_6
REMARK    5  A    between atoms: C_7  and  C_8
REMARK    6  A    between atoms: C_20  and  N_21
REMARK    7  A    between atoms: C_22  and  C_24
REMARK    8  A    between atoms: C_30  and  C_31
REMARK    9  A    between atoms: C_31  and  O_33
REMARK                            x       y       z     vdW  Elec       q    Type
REMARK                         _______ _______ _______ _____ _____    ______ ____
ROOT
ATOM      1  C   UNL     1      -1.240  11.450  19.808  0.00  0.00    +0.000 A 
ATOM      2  C   UNL     1       0.139  11.071  20.066  0.00  0.00    +0.000 A 
ATOM      3  C   UNL     1       0.715  11.896  21.017  0.00  0.00    +0.000 A 
ATOM      4  S   UNL     1      -0.353  13.091  21.595  0.00  0.00    +0.000 S 
ATOM      5  C   UNL     1      -1.592  12.562  20.552  0.00  0.00    +0.000 A 
ENDROOT
BRANCH   2   6
ATOM      6  C   UNL     1       0.900   9.960  19.484  0.00  0.00    +0.000 A 
ATOM      7  C   UNL     1       1.464  10.054  18.206  0.00  0.00    +0.000 A 
ATOM      8  C   UNL     1       2.225   9.003  17.684  0.00  0.00    +0.000 A 
ATOM      9  C   UNL     1       2.425   7.826  18.424  0.00  0.00    +0.000 A 
ATOM     10  C   UNL     1       3.197   6.765  17.926  0.00  0.00    +0.000 A 
ATOM     11  C   UNL     1       3.368   5.599  18.675  0.00  0.00    +0.000 A 
ATOM     12  C   UNL     1       2.756   5.471  19.918  0.00  0.00    +0.000 A 
ATOM     13  C   UNL     1       1.989   6.519  20.425  0.00  0.00    +0.000 A 
ATOM     14  C   UNL     1       1.831   7.707  19.696  0.00  0.00    +0.000 A 
ATOM     15  C   UNL     1       1.095   8.781  20.217  0.00  0.00    +0.000 A 
ENDBRANCH   2   6
BRANCH   5  16
ATOM     16  N   UNL     1      -2.783  13.282  20.591  0.00  0.00    +0.000 N 
ATOM     17  C   UNL     1      -3.673  12.955  21.608  0.00  0.00    +0.000 C 
ATOM     18  O   UNL     1      -3.392  12.187  22.528  0.00  0.00    +0.000 OA
ATOM     19  H   UNL     1      -2.715  14.277  20.401  0.00  0.00    +0.000 HD
BRANCH  17  20
ATOM     20  C   UNL     1      -5.039  13.640  21.521  0.00  0.00    +0.000 C 
ATOM     21  C   UNL     1      -5.763  13.310  20.190  0.00  0.00    +0.000 C 
ATOM     22  C   UNL     1      -7.149  13.937  20.163  0.00  0.00    +0.000 C 
ATOM     23  C   UNL     1      -7.917  13.265  21.031  0.00  0.00    +0.000 C 
ATOM     24  C   UNL     1      -7.033  12.244  21.693  0.00  0.00    +0.000 C 
ATOM     25  C   UNL     1      -6.197  11.865  20.462  0.00  0.00    +0.000 C 
ATOM     26  C   UNL     1      -6.000  12.985  22.584  0.00  0.00    +0.000 C 
BRANCH  26  27
ATOM     27  C   UNL     1      -6.581  14.017  23.530  0.00  0.00    +0.000 C 
ATOM     28  O   UNL     1      -6.424  15.225  23.431  0.00  0.00    +0.000 OA
BRANCH  27  29
ATOM     29  O   UNL     1      -7.248  13.471  24.572  0.00  0.00    +0.000 OA
ATOM     30  H   UNL     1      -6.717  13.390  25.384  0.00  0.00    +0.000 HD
ENDBRANCH  27  29
ENDBRANCH  26  27
ENDBRANCH  17  20
ENDBRANCH   5  16
BRANCH   1  31
ATOM     31  C   UNL     1      -2.109  10.868  18.800  0.00  0.00    +0.000 C 
ATOM     32  O   UNL     1      -2.087   9.684  18.492  0.00  0.00    +0.000 OA
BRANCH  31  33
ATOM     33  O   UNL     1      -2.931  11.796  18.218  0.00  0.00    +0.000 OA
BRANCH  33  35
ATOM     34  C   UNL     1      -4.958  11.866  16.970  0.00  0.00    +0.000 C 
ATOM     35  C   UNL     1      -3.528  11.362  16.987  0.00  0.00    +0.000 C 
ENDBRANCH  33  35
ENDBRANCH  31  33
ENDBRANCH   1  31
TORSDOF 8
ENDMDL
MODEL 7
REMARK VINA RESULT:      -7.7      1.610      2.461
REMARK  Name = 
REMARK  9 active torsions:
REMARK  status: ('A' for Active; 'I' for Inactive)
REMARK    1  A    between atoms: C_1  and  C_2
REMARK    2  A    between atoms: C_2  and  O_3
REMARK    3  A    between atoms: O_3  and  C_4
REMARK    4  A    between atoms: C_4  and  C_6
REMARK    5  A    between atoms: C_7  and  C_8
REMARK    6  A    between atoms: C_20  and  N_21
REMARK    7  A    between atoms: C_22  and  C_24
REMARK    8  A    between atoms: C_30  and  C_31
REMARK    9  A    between atoms: C_31  and  O_33
REMARK                            x       y       z     vdW  Elec       q    Type
REMARK                         _______ _______ _______ _____ _____    ______ ____
ROOT
ATOM      1  C   UNL     1       0.978   9.411  20.210  0.00  0.00    +0.000 A 
ATOM      2  C   UNL     1       0.563  10.577  19.448  0.00  0.00    +0.000 A 
ATOM      3  C   UNL     1       0.873  10.435  18.107  0.00  0.00    +0.000 A 
ATOM      4  S   UNL     1       1.635   8.953  17.754  0.00  0.00    +0.000 S 
ATOM      5  C   UNL     1       1.610   8.491  19.394  0.00  0.00    +0.000 A 
ENDROOT
BRANCH   2   6
ATOM      6  C   UNL     1      -0.132  11.776  19.929  0.00  0.00    +0.000 A 
ATOM      7  C   UNL     1       0.576  12.888  20.403  0.00  0.00    +0.000 A 
ATOM      8  C   UNL     1      -0.100  14.041  20.816  0.00  0.00    +0.000 A 
ATOM      9  C   UNL     1      -1.503  14.101  20.780  0.00  0.00    +0.000 A 
ATOM     10  C   UNL     1      -2.201  15.251  21.175  0.00  0.00    +0.000 A 
ATOM     11  C   UNL     1      -3.598  15.281  21.145  0.00  0.00    +0.000 A 
ATOM     12  C   UNL     1      -4.311  14.157  20.738  0.00  0.00    +0.000 A 
ATOM     13  C   UNL     1      -3.628  13.009  20.340  0.00  0.00    +0.000 A 
ATOM     14  C   UNL     1      -2.226  12.975  20.340  0.00  0.00    +0.000 A 
ATOM     15  C   UNL     1      -1.532  11.837  19.902  0.00  0.00    +0.000 A 
ENDBRANCH   2   6
BRANCH   5  16
ATOM     16  N   UNL     1       2.197   7.265  19.700  0.00  0.00    +0.000 N 
ATOM     17  C   UNL     1       3.107   6.765  18.775  0.00  0.00    +0.000 C 
ATOM     18  O   UNL     1       3.511   7.413  17.809  0.00  0.00    +0.000 OA
ATOM     19  H   UNL     1       2.466   7.123  20.668  0.00  0.00    +0.000 HD
BRANCH  17  20
ATOM     20  C   UNL     1       3.602   5.343  19.053  0.00  0.00    +0.000 C 
ATOM     21  C   UNL     1       2.425   4.341  19.181  0.00  0.00    +0.000 C 
ATOM     22  C   UNL     1       2.944   2.926  19.377  0.00  0.00    +0.000 C 
ATOM     23  C   UNL     1       3.481   2.524  18.217  0.00  0.00    +0.000 C 
ATOM     24  C   UNL     1       3.392   3.689  17.271  0.00  0.00    +0.000 C 
ATOM     25  C   UNL     1       2.015   4.207  17.710  0.00  0.00    +0.000 C 
ATOM     26  C   UNL     1       4.346   4.809  17.771  0.00  0.00    +0.000 C 
BRANCH  26  27
ATOM     27  C   UNL     1       5.760   4.364  18.086  0.00  0.00    +0.000 C 
ATOM     28  O   UNL     1       6.286   4.426  19.187  0.00  0.00    +0.000 OA
BRANCH  27  29
ATOM     29  O   UNL     1       6.444   3.947  16.995  0.00  0.00    +0.000 OA
ATOM     30  H   UNL     1       7.399   4.129  17.033  0.00  0.00    +0.000 HD
ENDBRANCH  27  29
ENDBRANCH  26  27
ENDBRANCH  17  20
ENDBRANCH   5  16
BRANCH   1  31
ATOM     31  C   UNL     1       0.900   9.264  21.653  0.00  0.00    +0.000 C 
ATOM     32  O   UNL     1       1.877   9.292  22.389  0.00  0.00    +0.000 OA
BRANCH  31  33
ATOM     33  O   UNL     1      -0.383   9.063  22.090  0.00  0.00    +0.000 OA
BRANCH  33  35
ATOM     34  C   UNL     1      -1.287  10.959  23.211  0.00  0.00    +0.000 C 
ATOM     35  C   UNL     1      -0.648   9.596  23.395  0.00  0.00    +0.000 C 
ENDBRANCH  33  35
ENDBRANCH  31  33
ENDBRANCH   1  31
TORSDOF 8
ENDMDL
MODEL 8
REMARK VINA RESULT:      -7.7      4.405      9.840
REMARK  Name = 
REMARK  9 active torsions:
REMARK  status: ('A' for Active; 'I' for Inactive)
REMARK    1  A    between atoms: C_1  and  C_2
REMARK    2  A    between atoms: C_2  and  O_3
REMARK    3  A    between atoms: O_3  and  C_4
REMARK    4  A    between atoms: C_4  and  C_6
REMARK    5  A    between atoms: C_7  and  C_8
REMARK    6  A    between atoms: C_20  and  N_21
REMARK    7  A    between atoms: C_22  and  C_24
REMARK    8  A    between atoms: C_30  and  C_31
REMARK    9  A    between atoms: C_31  and  O_33
REMARK                            x       y       z     vdW  Elec       q    Type
REMARK                         _______ _______ _______ _____ _____    ______ ____
ROOT
ATOM      1  C   UNL     1      -1.200  11.265  20.145  0.00  0.00    +0.000 A 
ATOM      2  C   UNL     1      -0.042  10.511  20.596  0.00  0.00    +0.000 A 
ATOM      3  C   UNL     1       0.184  10.700  21.948  0.00  0.00    +0.000 A 
ATOM      4  S   UNL     1      -0.952  11.744  22.671  0.00  0.00    +0.000 S 
ATOM      5  C   UNL     1      -1.740  12.003  21.183  0.00  0.00    +0.000 A 
ENDROOT
BRANCH   2   6
ATOM      6  C   UNL     1       0.816   9.612  19.817  0.00  0.00    +0.000 A 
ATOM      7  C   UNL     1       1.252   9.953  18.530  0.00  0.00    +0.000 A 
ATOM      8  C   UNL     1       2.106   9.105  17.818  0.00  0.00    +0.000 A 
ATOM      9  C   UNL     1       2.531   7.887  18.372  0.00  0.00    +0.000 A 
ATOM     10  C   UNL     1       3.399   7.027  17.683  0.00  0.00    +0.000 A 
ATOM     11  C   UNL     1       3.796   5.813  18.248  0.00  0.00    +0.000 A 
ATOM     12  C   UNL     1       3.315   5.435  19.498  0.00  0.00    +0.000 A 
ATOM     13  C   UNL     1       2.454   6.282  20.195  0.00  0.00    +0.000 A 
ATOM     14  C   UNL     1       2.069   7.516  19.650  0.00  0.00    +0.000 A 
ATOM     15  C   UNL     1       1.236   8.391  20.363  0.00  0.00    +0.000 A 
ENDBRANCH   2   6
BRANCH   5  16
ATOM     16  N   UNL     1      -2.815  12.888  21.198  0.00  0.00    +0.000 N 
ATOM     17  C   UNL     1      -3.734  12.730  22.230  0.00  0.00    +0.000 C 
ATOM     18  O   UNL     1      -3.557  11.964  23.178  0.00  0.00    +0.000 OA
ATOM     19  H   UNL     1      -2.607  13.855  20.970  0.00  0.00    +0.000 HD
BRANCH  17  20
ATOM     20  C   UNL     1      -4.989  13.599  22.121  0.00  0.00    +0.000 C 
ATOM     21  C   UNL     1      -5.466  13.738  20.652  0.00  0.00    +0.000 C 
ATOM     22  C   UNL     1      -6.757  14.539  20.580  0.00  0.00    +0.000 C 
ATOM     23  C   UNL     1      -7.737  13.778  21.083  0.00  0.00    +0.000 C 
ATOM     24  C   UNL     1      -7.097  12.503  21.561  0.00  0.00    +0.000 C 
ATOM     25  C   UNL     1      -6.074  12.349  20.426  0.00  0.00    +0.000 C 
ATOM     26  C   UNL     1      -6.194  12.829  22.782  0.00  0.00    +0.000 C 
BRANCH  26  27
ATOM     27  C   UNL     1      -6.853  13.647  23.876  0.00  0.00    +0.000 C 
ATOM     28  O   UNL     1      -7.901  13.357  24.432  0.00  0.00    +0.000 OA
BRANCH  27  29
ATOM     29  O   UNL     1      -6.202  14.802  24.144  0.00  0.00    +0.000 OA
ATOM     30  H   UNL     1      -6.119  15.397  23.378  0.00  0.00    +0.000 HD
ENDBRANCH  27  29
ENDBRANCH  26  27
ENDBRANCH  17  20
ENDBRANCH   5  16
BRANCH   1  31
ATOM     31  C   UNL     1      -1.661  11.378  18.773  0.00  0.00    +0.000 C 
ATOM     32  O   UNL     1      -1.505  12.380  18.087  0.00  0.00    +0.000 OA
BRANCH  31  33
ATOM     33  O   UNL     1      -2.314  10.252  18.345  0.00  0.00    +0.000 OA
BRANCH  33  35
ATOM     34  C   UNL     1      -4.452  10.824  17.468  0.00  0.00    +0.000 C 
ATOM     35  C   UNL     1      -3.033  10.421  17.116  0.00  0.00    +0.000 C 
ENDBRANCH  33  35
ENDBRANCH  31  33
ENDBRANCH   1  31
TORSDOF 8
ENDMDL
MODEL 9
REMARK VINA RESULT:      -7.7      4.164      9.791
REMARK  Name = 
REMARK  9 active torsions:
REMARK  status: ('A' for Active; 'I' for Inactive)
REMARK    1  A    between atoms: C_1  and  C_2
REMARK    2  A    between atoms: C_2  and  O_3
REMARK    3  A    between atoms: O_3  and  C_4
REMARK    4  A    between atoms: C_4  and  C_6
REMARK    5  A    between atoms: C_7  and  C_8
REMARK    6  A    between atoms: C_20  and  N_21
REMARK    7  A    between atoms: C_22  and  C_24
REMARK    8  A    between atoms: C_30  and  C_31
REMARK    9  A    between atoms: C_31  and  O_33
REMARK                            x       y       z     vdW  Elec       q    Type
REMARK                         _______ _______ _______ _____ _____    ______ ____
ROOT
ATOM      1  C   UNL     1      -1.025  11.099  19.207  0.00  0.00    +0.000 A 
ATOM      2  C   UNL     1       0.342  10.754  19.558  0.00  0.00    +0.000 A 
ATOM      3  C   UNL     1       0.901  11.706  20.393  0.00  0.00    +0.000 A 
ATOM      4  S   UNL     1      -0.170  12.980  20.757  0.00  0.00    +0.000 S 
ATOM      5  C   UNL     1      -1.386  12.310  19.768  0.00  0.00    +0.000 A 
ENDROOT
BRANCH   2   6
ATOM      6  C   UNL     1       1.107   9.564  19.169  0.00  0.00    +0.000 A 
ATOM      7  C   UNL     1       1.787   9.503  17.946  0.00  0.00    +0.000 A 
ATOM      8  C   UNL     1       2.549   8.379  17.609  0.00  0.00    +0.000 A 
ATOM      9  C   UNL     1       2.633   7.282  18.483  0.00  0.00    +0.000 A 
ATOM     10  C   UNL     1       3.403   6.151  18.173  0.00  0.00    +0.000 A 
ATOM     11  C   UNL     1       3.458   5.066  19.051  0.00  0.00    +0.000 A 
ATOM     12  C   UNL     1       2.731   5.091  20.238  0.00  0.00    +0.000 A 
ATOM     13  C   UNL     1       1.966   6.210  20.559  0.00  0.00    +0.000 A 
ATOM     14  C   UNL     1       1.923   7.318  19.699  0.00  0.00    +0.000 A 
ATOM     15  C   UNL     1       1.187   8.464  20.034  0.00  0.00    +0.000 A 
ENDBRANCH   2   6
BRANCH   5  16
ATOM     16  N   UNL     1      -2.569  13.037  19.666  0.00  0.00    +0.000 N 
ATOM     17  C   UNL     1      -3.482  12.885  20.705  0.00  0.00    +0.000 C 
ATOM     18  O   UNL     1      -3.225  12.275  21.743  0.00  0.00    +0.000 OA
ATOM     19  H   UNL     1      -2.487  13.987  19.320  0.00  0.00    +0.000 HD
BRANCH  17  20
ATOM     20  C   UNL     1      -4.838  13.557  20.482  0.00  0.00    +0.000 C 
ATOM     21  C   UNL     1      -5.559  12.993  19.230  0.00  0.00    +0.000 C 
ATOM     22  C   UNL     1      -6.937  13.619  19.076  0.00  0.00    +0.000 C 
ATOM     23  C   UNL     1      -7.717  13.130  20.048  0.00  0.00    +0.000 C 
ATOM     24  C   UNL     1      -6.851  12.240  20.896  0.00  0.00    +0.000 C 
ATOM     25  C   UNL     1      -6.013  11.629  19.764  0.00  0.00    +0.000 C 
ATOM     26  C   UNL     1      -5.813  13.124  21.641  0.00  0.00    +0.000 C 
BRANCH  26  27
ATOM     27  C   UNL     1      -6.386  14.321  22.373  0.00  0.00    +0.000 C 
ATOM     28  O   UNL     1      -7.258  14.268  23.227  0.00  0.00    +0.000 OA
BRANCH  27  29
ATOM     29  O   UNL     1      -5.889  15.501  21.937  0.00  0.00    +0.000 OA
ATOM     30  H   UNL     1      -5.086  15.789  22.405  0.00  0.00    +0.000 HD
ENDBRANCH  27  29
ENDBRANCH  26  27
ENDBRANCH  17  20
ENDBRANCH   5  16
BRANCH   1  31
ATOM     31  C   UNL     1      -1.873  10.380  18.272  0.00  0.00    +0.000 C 
ATOM     32  O   UNL     1      -2.695   9.541  18.613  0.00  0.00    +0.000 OA
BRANCH  31  33
ATOM     33  O   UNL     1      -1.626  10.725  16.969  0.00  0.00    +0.000 OA
BRANCH  33  35
ATOM     34  C   UNL     1      -2.877  10.161  15.023  0.00  0.00    +0.000 C 
ATOM     35  C   UNL     1      -2.799  11.083  16.225  0.00  0.00    +0.000 C 
ENDBRANCH  33  35
ENDBRANCH  31  33
ENDBRANCH   1  31
TORSDOF 8
ENDMDL
