MODEL 1
REMARK VINA RESULT:      -7.8      0.000      0.000
REMARK  Name = 
REMARK  6 active torsions:
REMARK  status: ('A' for Active; 'I' for Inactive)
REMARK    1  A    between atoms: C_2  and  O_10
REMARK    2  A    between atoms: N_3  and  C_4
REMARK    3  A    between atoms: O_10  and  C_11
REMARK    4  A    between atoms: C_11  and  C_12
REMARK    5  A    between atoms: C_12  and  N_13
REMARK    6  A    between atoms: C_14  and  C_16
REMARK                            x       y       z     vdW  Elec       q    Type
REMARK                         _______ _______ _______ _____ _____    ______ ____
ROOT
ATOM      1  C   UNL     1       7.489   5.719  18.667  0.00  0.00    +0.000 C 
ENDROOT
BRANCH   1   2
ATOM      2  O   UNL     1       6.389   5.807  19.601  0.00  0.00    +0.000 OA
BRANCH   2   4
ATOM      3  O   UNL     1       5.738   3.684  19.124  0.00  0.00    +0.000 OA
ATOM      4  C   UNL     1       5.456   4.825  19.466  0.00  0.00    +0.000 C 
ATOM      5  N   UNL     1       4.207   5.337  19.706  0.00  0.00    +0.000 N 
ATOM      6  H   UNL     1       4.177   6.338  19.837  0.00  0.00    +0.000 HD
BRANCH   5   7
ATOM      7  C   UNL     1       2.990   4.625  19.639  0.00  0.00    +0.000 A 
ATOM      8  C   UNL     1       2.378   4.074  20.768  0.00  0.00    +0.000 A 
ATOM      9  C   UNL     1       1.195   3.337  20.658  0.00  0.00    +0.000 A 
ATOM     10  C   UNL     1       0.611   3.143  19.412  0.00  0.00    +0.000 A 
ATOM     11  C   UNL     1       1.197   3.708  18.280  0.00  0.00    +0.000 A 
ATOM     12  C   UNL     1       2.375   4.458  18.394  0.00  0.00    +0.000 A 
ENDBRANCH   5   7
ENDBRANCH   2   4
ENDBRANCH   1   2
BRANCH   1  13
ATOM     13  C   UNL     1       7.288   6.707  17.515  0.00  0.00    +0.000 C 
BRANCH  13  14
ATOM     14  N   UNL     1       7.299   6.081  16.207  0.00  0.00    +0.000 N 
ATOM     15  C   UNL     1       6.194   5.431  15.696  0.00  0.00    +0.000 C 
ATOM     16  O   UNL     1       5.118   5.371  16.276  0.00  0.00    +0.000 OA
ATOM     17  H   UNL     1       8.103   6.242  15.615  0.00  0.00    +0.000 HD
BRANCH  15  18
ATOM     18  C   UNL     1       6.365   4.819  14.346  0.00  0.00    +0.000 A 
ATOM     19  C   UNL     1       5.457   3.876  13.846  0.00  0.00    +0.000 A 
ATOM     20  C   UNL     1       5.663   3.304  12.590  0.00  0.00    +0.000 A 
ATOM     21  C   UNL     1       6.766   3.679  11.823  0.00  0.00    +0.000 A 
ATOM     22  C   UNL     1       7.657   4.639  12.304  0.00  0.00    +0.000 A 
ATOM     23  C   UNL     1       7.454   5.214  13.560  0.00  0.00    +0.000 A 
ENDBRANCH  15  18
ENDBRANCH  13  14
ENDBRANCH   1  13
TORSDOF 6
ENDMDL
MODEL 2
REMARK VINA RESULT:      -7.5      2.748      4.349
REMARK  Name = 
REMARK  6 active torsions:
REMARK  status: ('A' for Active; 'I' for Inactive)
REMARK    1  A    between atoms: C_2  and  O_10
REMARK    2  A    between atoms: N_3  and  C_4
REMARK    3  A    between atoms: O_10  and  C_11
REMARK    4  A    between atoms: C_11  and  C_12
REMARK    5  A    between atoms: C_12  and  N_13
REMARK    6  A    between atoms: C_14  and  C_16
REMARK                            x       y       z     vdW  Elec       q    Type
REMARK                         _______ _______ _______ _____ _____    ______ ____
ROOT
ATOM      1  C   UNL     1       3.062   2.409  20.707  0.00  0.00    +0.000 C 
ENDROOT
BRANCH   1   2
ATOM      2  O   UNL     1       2.633   3.637  21.336  0.00  0.00    +0.000 OA
BRANCH   2   4
ATOM      3  O   UNL     1       1.028   4.235  19.845  0.00  0.00    +0.000 OA
ATOM      4  C   UNL     1       2.026   4.519  20.495  0.00  0.00    +0.000 C 
ATOM      5  N   UNL     1       2.735   5.692  20.462  0.00  0.00    +0.000 N 
ATOM      6  H   UNL     1       3.609   5.673  20.966  0.00  0.00    +0.000 HD
BRANCH   5   7
ATOM      7  C   UNL     1       2.423   6.830  19.686  0.00  0.00    +0.000 A 
ATOM      8  C   UNL     1       2.847   6.976  18.363  0.00  0.00    +0.000 A 
ATOM      9  C   UNL     1       2.557   8.137  17.639  0.00  0.00    +0.000 A 
ATOM     10  C   UNL     1       1.838   9.166  18.236  0.00  0.00    +0.000 A 
ATOM     11  C   UNL     1       1.388   9.024  19.548  0.00  0.00    +0.000 A 
ATOM     12  C   UNL     1       1.668   7.854  20.267  0.00  0.00    +0.000 A 
ENDBRANCH   5   7
ENDBRANCH   2   4
ENDBRANCH   1   2
BRANCH   1  13
ATOM     13  C   UNL     1       4.573   2.439  20.460  0.00  0.00    +0.000 C 
BRANCH  13  14
ATOM     14  N   UNL     1       4.932   2.846  19.115  0.00  0.00    +0.000 N 
ATOM     15  C   UNL     1       5.516   4.067  18.849  0.00  0.00    +0.000 C 
ATOM     16  O   UNL     1       5.816   4.875  19.718  0.00  0.00    +0.000 OA
ATOM     17  H   UNL     1       4.861   2.155  18.379  0.00  0.00    +0.000 HD
BRANCH  15  18
ATOM     18  C   UNL     1       5.808   4.351  17.414  0.00  0.00    +0.000 A 
ATOM     19  C   UNL     1       7.070   4.793  16.994  0.00  0.00    +0.000 A 
ATOM     20  C   UNL     1       7.300   5.075  15.646  0.00  0.00    +0.000 A 
ATOM     21  C   UNL     1       6.278   4.905  14.713  0.00  0.00    +0.000 A 
ATOM     22  C   UNL     1       5.029   4.438  15.121  0.00  0.00    +0.000 A 
ATOM     23  C   UNL     1       4.795   4.154  16.468  0.00  0.00    +0.000 A 
ENDBRANCH  15  18
ENDBRANCH  13  14
ENDBRANCH   1  13
TORSDOF 6
ENDMDL
MODEL 3
REMARK VINA RESULT:      -7.4      3.213      4.924
REMARK  Name = 
REMARK  6 active torsions:
REMARK  status: ('A' for Active; 'I' for Inactive)
REMARK    1  A    between atoms: C_2  and  O_10
REMARK    2  A    between atoms: N_3  and  C_4
REMARK    3  A    between atoms: O_10  and  C_11
REMARK    4  A    between atoms: C_11  and  C_12
REMARK    5  A    between atoms: C_12  and  N_13
REMARK    6  A    between atoms: C_14  and  C_16
REMARK                            x       y       z     vdW  Elec       q    Type
REMARK                         _______ _______ _______ _____ _____    ______ ____
ROOT
ATOM      1  C   UNL     1       2.830   2.402  20.001  0.00  0.00    +0.000 C 
ENDROOT
BRANCH   1   2
ATOM      2  O   UNL     1       2.914   3.706  20.618  0.00  0.00    +0.000 OA
BRANCH   2   4
ATOM      3  O   UNL     1       1.117   4.399  19.415  0.00  0.00    +0.000 OA
ATOM      4  C   UNL     1       2.146   4.660  20.026  0.00  0.00    +0.000 C 
ATOM      5  N   UNL     1       2.736   5.889  20.173  0.00  0.00    +0.000 N 
ATOM      6  H   UNL     1       3.656   5.870  20.591  0.00  0.00    +0.000 HD
BRANCH   5   7
ATOM      7  C   UNL     1       2.244   7.114  19.673  0.00  0.00    +0.000 A 
ATOM      8  C   UNL     1       2.460   7.530  18.357  0.00  0.00    +0.000 A 
ATOM      9  C   UNL     1       1.995   8.770  17.908  0.00  0.00    +0.000 A 
ATOM     10  C   UNL     1       1.306   9.608  18.777  0.00  0.00    +0.000 A 
ATOM     11  C   UNL     1       1.061   9.196  20.086  0.00  0.00    +0.000 A 
ATOM     12  C   UNL     1       1.516   7.947  20.529  0.00  0.00    +0.000 A 
ENDBRANCH   5   7
ENDBRANCH   2   4
ENDBRANCH   1   2
BRANCH   1  13
ATOM     13  C   UNL     1       4.098   2.113  19.193  0.00  0.00    +0.000 C 
BRANCH  13  14
ATOM     14  N   UNL     1       4.983   3.256  19.077  0.00  0.00    +0.000 N 
ATOM     15  C   UNL     1       4.936   4.115  17.999  0.00  0.00    +0.000 C 
ATOM     16  O   UNL     1       4.124   4.011  17.089  0.00  0.00    +0.000 OA
ATOM     17  H   UNL     1       5.560   3.487  19.876  0.00  0.00    +0.000 HD
BRANCH  15  18
ATOM     18  C   UNL     1       5.924   5.232  18.012  0.00  0.00    +0.000 A 
ATOM     19  C   UNL     1       5.776   6.353  17.184  0.00  0.00    +0.000 A 
ATOM     20  C   UNL     1       6.735   7.369  17.203  0.00  0.00    +0.000 A 
ATOM     21  C   UNL     1       7.834   7.275  18.056  0.00  0.00    +0.000 A 
ATOM     22  C   UNL     1       7.970   6.176  18.903  0.00  0.00    +0.000 A 
ATOM     23  C   UNL     1       7.014   5.158  18.887  0.00  0.00    +0.000 A 
ENDBRANCH  15  18
ENDBRANCH  13  14
ENDBRANCH   1  13
TORSDOF 6
ENDMDL
MODEL 4
REMARK VINA RESULT:      -7.3      3.291      4.904
REMARK  Name = 
REMARK  6 active torsions:
REMARK  status: ('A' for Active; 'I' for Inactive)
REMARK    1  A    between atoms: C_2  and  O_10
REMARK    2  A    between atoms: N_3  and  C_4
REMARK    3  A    between atoms: O_10  and  C_11
REMARK    4  A    between atoms: C_11  and  C_12
REMARK    5  A    between atoms: C_12  and  N_13
REMARK    6  A    between atoms: C_14  and  C_16
REMARK                            x       y       z     vdW  Elec       q    Type
REMARK                         _______ _______ _______ _____ _____    ______ ____
ROOT
ATOM      1  C   UNL     1       2.685   2.640  20.410  0.00  0.00    +0.000 C 
ENDROOT
BRANCH   1   2
ATOM      2  O   UNL     1       2.860   3.939  21.018  0.00  0.00    +0.000 OA
BRANCH   2   4
ATOM      3  O   UNL     1       0.838   4.700  20.318  0.00  0.00    +0.000 OA
ATOM      4  C   UNL     1       2.025   4.902  20.540  0.00  0.00    +0.000 C 
ATOM      5  N   UNL     1       2.731   6.053  20.304  0.00  0.00    +0.000 N 
ATOM      6  H   UNL     1       3.731   5.968  20.422  0.00  0.00    +0.000 HD
BRANCH   5   7
ATOM      7  C   UNL     1       2.209   7.258  19.785  0.00  0.00    +0.000 A 
ATOM      8  C   UNL     1       1.475   8.156  20.565  0.00  0.00    +0.000 A 
ATOM      9  C   UNL     1       0.935   9.319  20.007  0.00  0.00    +0.000 A 
ATOM     10  C   UNL     1       1.124   9.594  18.658  0.00  0.00    +0.000 A 
ATOM     11  C   UNL     1       1.875   8.719  17.873  0.00  0.00    +0.000 A 
ATOM     12  C   UNL     1       2.427   7.562  18.438  0.00  0.00    +0.000 A 
ENDBRANCH   5   7
ENDBRANCH   2   4
ENDBRANCH   1   2
BRANCH   1  13
ATOM     13  C   UNL     1       3.631   2.480  19.217  0.00  0.00    +0.000 C 
BRANCH  13  14
ATOM     14  N   UNL     1       4.622   3.534  19.118  0.00  0.00    +0.000 N 
ATOM     15  C   UNL     1       4.743   4.324  17.993  0.00  0.00    +0.000 C 
ATOM     16  O   UNL     1       4.005   4.231  17.020  0.00  0.00    +0.000 OA
ATOM     17  H   UNL     1       5.146   3.766  19.951  0.00  0.00    +0.000 HD
BRANCH  15  18
ATOM     18  C   UNL     1       5.822   5.353  18.033  0.00  0.00    +0.000 A 
ATOM     19  C   UNL     1       5.796   6.479  17.199  0.00  0.00    +0.000 A 
ATOM     20  C   UNL     1       6.836   7.408  17.244  0.00  0.00    +0.000 A 
ATOM     21  C   UNL     1       7.899   7.225  18.128  0.00  0.00    +0.000 A 
ATOM     22  C   UNL     1       7.915   6.122  18.982  0.00  0.00    +0.000 A 
ATOM     23  C   UNL     1       6.876   5.190  18.940  0.00  0.00    +0.000 A 
ENDBRANCH  15  18
ENDBRANCH  13  14
ENDBRANCH   1  13
TORSDOF 6
ENDMDL
MODEL 5
REMARK VINA RESULT:      -7.1      1.416      6.682
REMARK  Name = 
REMARK  6 active torsions:
REMARK  status: ('A' for Active; 'I' for Inactive)
REMARK    1  A    between atoms: C_2  and  O_10
REMARK    2  A    between atoms: N_3  and  C_4
REMARK    3  A    between atoms: O_10  and  C_11
REMARK    4  A    between atoms: C_11  and  C_12
REMARK    5  A    between atoms: C_12  and  N_13
REMARK    6  A    between atoms: C_14  and  C_16
REMARK                            x       y       z     vdW  Elec       q    Type
REMARK                         _______ _______ _______ _____ _____    ______ ____
ROOT
ATOM      1  C   UNL     1       7.545   6.367  18.414  0.00  0.00    +0.000 C 
ENDROOT
BRANCH   1   2
ATOM      2  O   UNL     1       7.865   6.785  17.068  0.00  0.00    +0.000 OA
BRANCH   2   4
ATOM      3  O   UNL     1       5.806   6.711  16.115  0.00  0.00    +0.000 OA
ATOM      4  C   UNL     1       6.981   6.367  16.123  0.00  0.00    +0.000 C 
ATOM      5  N   UNL     1       7.595   5.487  15.269  0.00  0.00    +0.000 N 
ATOM      6  H   UNL     1       8.535   5.228  15.532  0.00  0.00    +0.000 HD
BRANCH   5   7
ATOM      7  C   UNL     1       6.990   4.829  14.177  0.00  0.00    +0.000 A 
ATOM      8  C   UNL     1       5.779   4.141  14.291  0.00  0.00    +0.000 A 
ATOM      9  C   UNL     1       5.231   3.462  13.198  0.00  0.00    +0.000 A 
ATOM     10  C   UNL     1       5.893   3.466  11.976  0.00  0.00    +0.000 A 
ATOM     11  C   UNL     1       7.089   4.169  11.840  0.00  0.00    +0.000 A 
ATOM     12  C   UNL     1       7.629   4.860  12.933  0.00  0.00    +0.000 A 
ENDBRANCH   5   7
ENDBRANCH   2   4
ENDBRANCH   1   2
BRANCH   1  13
ATOM     13  C   UNL     1       7.106   4.900  18.425  0.00  0.00    +0.000 C 
BRANCH  13  14
ATOM     14  N   UNL     1       5.857   4.675  19.128  0.00  0.00    +0.000 N 
ATOM     15  C   UNL     1       4.760   4.110  18.512  0.00  0.00    +0.000 C 
ATOM     16  O   UNL     1       4.766   3.716  17.352  0.00  0.00    +0.000 OA
ATOM     17  H   UNL     1       5.846   4.827  20.128  0.00  0.00    +0.000 HD
BRANCH  15  18
ATOM     18  C   UNL     1       3.541   3.962  19.359  0.00  0.00    +0.000 A 
ATOM     19  C   UNL     1       2.778   5.070  19.749  0.00  0.00    +0.000 A 
ATOM     20  C   UNL     1       1.659   4.897  20.565  0.00  0.00    +0.000 A 
ATOM     21  C   UNL     1       1.290   3.619  20.983  0.00  0.00    +0.000 A 
ATOM     22  C   UNL     1       2.029   2.509  20.573  0.00  0.00    +0.000 A 
ATOM     23  C   UNL     1       3.149   2.678  19.757  0.00  0.00    +0.000 A 
ENDBRANCH  15  18
ENDBRANCH  13  14
ENDBRANCH   1  13
TORSDOF 6
ENDMDL
MODEL 6
REMARK VINA RESULT:      -7.1      2.832      4.674
REMARK  Name = 
REMARK  6 active torsions:
REMARK  status: ('A' for Active; 'I' for Inactive)
REMARK    1  A    between atoms: C_2  and  O_10
REMARK    2  A    between atoms: N_3  and  C_4
REMARK    3  A    between atoms: O_10  and  C_11
REMARK    4  A    between atoms: C_11  and  C_12
REMARK    5  A    between atoms: C_12  and  N_13
REMARK    6  A    between atoms: C_14  and  C_16
REMARK                            x       y       z     vdW  Elec       q    Type
REMARK                         _______ _______ _______ _____ _____    ______ ____
ROOT
ATOM      1  C   UNL     1       2.681   2.500  20.434  0.00  0.00    +0.000 C 
ENDROOT
BRANCH   1   2
ATOM      2  O   UNL     1       2.618   3.707  21.225  0.00  0.00    +0.000 OA
BRANCH   2   4
ATOM      3  O   UNL     1       0.704   4.627  20.421  0.00  0.00    +0.000 OA
ATOM      4  C   UNL     1       1.902   4.716  20.658  0.00  0.00    +0.000 C 
ATOM      5  N   UNL     1       2.734   5.763  20.356  0.00  0.00    +0.000 N 
ATOM      6  H   UNL     1       3.716   5.580  20.505  0.00  0.00    +0.000 HD
BRANCH   5   7
ATOM      7  C   UNL     1       2.356   6.974  19.738  0.00  0.00    +0.000 A 
ATOM      8  C   UNL     1       1.643   7.970  20.411  0.00  0.00    +0.000 A 
ATOM      9  C   UNL     1       1.246   9.139  19.754  0.00  0.00    +0.000 A 
ATOM     10  C   UNL     1       1.561   9.323  18.413  0.00  0.00    +0.000 A 
ATOM     11  C   UNL     1       2.294   8.349  17.736  0.00  0.00    +0.000 A 
ATOM     12  C   UNL     1       2.702   7.184  18.399  0.00  0.00    +0.000 A 
ENDBRANCH   5   7
ENDBRANCH   2   4
ENDBRANCH   1   2
BRANCH   1  13
ATOM     13  C   UNL     1       4.136   2.059  20.252  0.00  0.00    +0.000 C 
BRANCH  13  14
ATOM     14  N   UNL     1       4.970   3.063  19.620  0.00  0.00    +0.000 N 
ATOM     15  C   UNL     1       4.671   3.592  18.381  0.00  0.00    +0.000 C 
ATOM     16  O   UNL     1       3.669   3.293  17.744  0.00  0.00    +0.000 OA
ATOM     17  H   UNL     1       5.717   3.468  20.169  0.00  0.00    +0.000 HD
BRANCH  15  18
ATOM     18  C   UNL     1       5.635   4.600  17.853  0.00  0.00    +0.000 A 
ATOM     19  C   UNL     1       6.290   5.504  18.700  0.00  0.00    +0.000 A 
ATOM     20  C   UNL     1       7.165   6.453  18.169  0.00  0.00    +0.000 A 
ATOM     21  C   UNL     1       7.400   6.496  16.795  0.00  0.00    +0.000 A 
ATOM     22  C   UNL     1       6.773   5.579  15.951  0.00  0.00    +0.000 A 
ATOM     23  C   UNL     1       5.897   4.628  16.479  0.00  0.00    +0.000 A 
ENDBRANCH  15  18
ENDBRANCH  13  14
ENDBRANCH   1  13
TORSDOF 6
ENDMDL
MODEL 7
REMARK VINA RESULT:      -7.1      1.291      6.832
REMARK  Name = 
REMARK  6 active torsions:
REMARK  status: ('A' for Active; 'I' for Inactive)
REMARK    1  A    between atoms: C_2  and  O_10
REMARK    2  A    between atoms: N_3  and  C_4
REMARK    3  A    between atoms: O_10  and  C_11
REMARK    4  A    between atoms: C_11  and  C_12
REMARK    5  A    between atoms: C_12  and  N_13
REMARK    6  A    between atoms: C_14  and  C_16
REMARK                            x       y       z     vdW  Elec       q    Type
REMARK                         _______ _______ _______ _____ _____    ______ ____
ROOT
ATOM      1  C   UNL     1       6.859   6.592  18.282  0.00  0.00    +0.000 C 
ENDROOT
BRANCH   1   2
ATOM      2  O   UNL     1       7.488   6.775  16.994  0.00  0.00    +0.000 OA
BRANCH   2   4
ATOM      3  O   UNL     1       5.598   6.797  15.735  0.00  0.00    +0.000 OA
ATOM      4  C   UNL     1       6.731   6.378  15.935  0.00  0.00    +0.000 C 
ATOM      5  N   UNL     1       7.406   5.427  15.213  0.00  0.00    +0.000 N 
ATOM      6  H   UNL     1       8.274   5.118  15.627  0.00  0.00    +0.000 HD
BRANCH   5   7
ATOM      7  C   UNL     1       6.931   4.766  14.060  0.00  0.00    +0.000 A 
ATOM      8  C   UNL     1       5.760   4.002  14.060  0.00  0.00    +0.000 A 
ATOM      9  C   UNL     1       5.343   3.325  12.910  0.00  0.00    +0.000 A 
ATOM     10  C   UNL     1       6.096   3.406  11.745  0.00  0.00    +0.000 A 
ATOM     11  C   UNL     1       7.253   4.184  11.723  0.00  0.00    +0.000 A 
ATOM     12  C   UNL     1       7.662   4.874  12.873  0.00  0.00    +0.000 A 
ENDBRANCH   5   7
ENDBRANCH   2   4
ENDBRANCH   1   2
BRANCH   1  13
ATOM     13  C   UNL     1       6.882   5.113  18.679  0.00  0.00    +0.000 C 
BRANCH  13  14
ATOM     14  N   UNL     1       5.685   4.682  19.376  0.00  0.00    +0.000 N 
ATOM     15  C   UNL     1       4.577   4.206  18.707  0.00  0.00    +0.000 C 
ATOM     16  O   UNL     1       4.530   4.067  17.491  0.00  0.00    +0.000 OA
ATOM     17  H   UNL     1       5.726   4.618  20.385  0.00  0.00    +0.000 HD
BRANCH  15  18
ATOM     18  C   UNL     1       3.416   3.821  19.561  0.00  0.00    +0.000 A 
ATOM     19  C   UNL     1       3.539   2.870  20.583  0.00  0.00    +0.000 A 
ATOM     20  C   UNL     1       2.425   2.514  21.345  0.00  0.00    +0.000 A 
ATOM     21  C   UNL     1       1.190   3.114  21.100  0.00  0.00    +0.000 A 
ATOM     22  C   UNL     1       1.069   4.082  20.104  0.00  0.00    +0.000 A 
ATOM     23  C   UNL     1       2.181   4.441  19.339  0.00  0.00    +0.000 A 
ENDBRANCH  15  18
ENDBRANCH  13  14
ENDBRANCH   1  13
TORSDOF 6
ENDMDL
MODEL 8
REMARK VINA RESULT:      -7.0      2.712      5.861
REMARK  Name = 
REMARK  6 active torsions:
REMARK  status: ('A' for Active; 'I' for Inactive)
REMARK    1  A    between atoms: C_2  and  O_10
REMARK    2  A    between atoms: N_3  and  C_4
REMARK    3  A    between atoms: O_10  and  C_11
REMARK    4  A    between atoms: C_11  and  C_12
REMARK    5  A    between atoms: C_12  and  N_13
REMARK    6  A    between atoms: C_14  and  C_16
REMARK                            x       y       z     vdW  Elec       q    Type
REMARK                         _______ _______ _______ _____ _____    ______ ____
ROOT
ATOM      1  C   UNL     1       5.993   5.040  16.169  0.00  0.00    +0.000 C 
ENDROOT
BRANCH   1   2
ATOM      2  O   UNL     1       4.944   6.001  15.915  0.00  0.00    +0.000 OA
BRANCH   2   4
ATOM      3  O   UNL     1       5.510   7.360  17.644  0.00  0.00    +0.000 OA
ATOM      4  C   UNL     1       4.649   6.806  16.972  0.00  0.00    +0.000 C 
ATOM      5  N   UNL     1       3.293   6.829  17.174  0.00  0.00    +0.000 N 
ATOM      6  H   UNL     1       2.768   6.191  16.594  0.00  0.00    +0.000 HD
BRANCH   5   7
ATOM      7  C   UNL     1       2.616   7.537  18.191  0.00  0.00    +0.000 A 
ATOM      8  C   UNL     1       2.448   7.024  19.480  0.00  0.00    +0.000 A 
ATOM      9  C   UNL     1       1.733   7.734  20.449  0.00  0.00    +0.000 A 
ATOM     10  C   UNL     1       1.178   8.969  20.136  0.00  0.00    +0.000 A 
ATOM     11  C   UNL     1       1.359   9.505  18.862  0.00  0.00    +0.000 A 
ATOM     12  C   UNL     1       2.088   8.798  17.896  0.00  0.00    +0.000 A 
ENDBRANCH   5   7
ENDBRANCH   2   4
ENDBRANCH   1   2
BRANCH   1  13
ATOM     13  C   UNL     1       5.400   3.639  16.338  0.00  0.00    +0.000 C 
BRANCH  13  14
ATOM     14  N   UNL     1       4.685   3.459  17.587  0.00  0.00    +0.000 N 
ATOM     15  C   UNL     1       3.311   3.341  17.635  0.00  0.00    +0.000 C 
ATOM     16  O   UNL     1       2.599   3.331  16.639  0.00  0.00    +0.000 OA
ATOM     17  H   UNL     1       5.231   3.294  18.422  0.00  0.00    +0.000 HD
BRANCH  15  18
ATOM     18  C   UNL     1       2.719   3.183  18.995  0.00  0.00    +0.000 A 
ATOM     19  C   UNL     1       3.481   2.734  20.081  0.00  0.00    +0.000 A 
ATOM     20  C   UNL     1       2.887   2.571  21.334  0.00  0.00    +0.000 A 
ATOM     21  C   UNL     1       1.536   2.868  21.511  0.00  0.00    +0.000 A 
ATOM     22  C   UNL     1       0.780   3.343  20.440  0.00  0.00    +0.000 A 
ATOM     23  C   UNL     1       1.371   3.508  19.185  0.00  0.00    +0.000 A 
ENDBRANCH  15  18
ENDBRANCH  13  14
ENDBRANCH   1  13
TORSDOF 6
ENDMDL
MODEL 9
REMARK VINA RESULT:      -7.0      1.605      6.715
REMARK  Name = 
REMARK  6 active torsions:
REMARK  status: ('A' for Active; 'I' for Inactive)
REMARK    1  A    between atoms: C_2  and  O_10
REMARK    2  A    between atoms: N_3  and  C_4
REMARK    3  A    between atoms: O_10  and  C_11
REMARK    4  A    between atoms: C_11  and  C_12
REMARK    5  A    between atoms: C_12  and  N_13
REMARK    6  A    between atoms: C_14  and  C_16
REMARK                            x       y       z     vdW  Elec       q    Type
REMARK                         _______ _______ _______ _____ _____    ______ ____
ROOT
ATOM      1  C   UNL     1       6.556   6.774  17.721  0.00  0.00    +0.000 C 
ENDROOT
BRANCH   1   2
ATOM      2  O   UNL     1       7.562   6.483  16.726  0.00  0.00    +0.000 OA
BRANCH   2   4
ATOM      3  O   UNL     1       7.551   4.226  16.478  0.00  0.00    +0.000 OA
ATOM      4  C   UNL     1       7.342   5.342  16.019  0.00  0.00    +0.000 C 
ATOM      5  N   UNL     1       6.929   5.654  14.749  0.00  0.00    +0.000 N 
ATOM      6  H   UNL     1       6.955   6.639  14.526  0.00  0.00    +0.000 HD
BRANCH   5   7
ATOM      7  C   UNL     1       6.627   4.734  13.722  0.00  0.00    +0.000 A 
ATOM      8  C   UNL     1       7.491   4.491  12.651  0.00  0.00    +0.000 A 
ATOM      9  C   UNL     1       7.139   3.605  11.629  0.00  0.00    +0.000 A 
ATOM     10  C   UNL     1       5.913   2.951  11.669  0.00  0.00    +0.000 A 
ATOM     11  C   UNL     1       5.051   3.164  12.744  0.00  0.00    +0.000 A 
ATOM     12  C   UNL     1       5.412   4.042  13.775  0.00  0.00    +0.000 A 
ENDBRANCH   5   7
ENDBRANCH   2   4
ENDBRANCH   1   2
BRANCH   1  13
ATOM     13  C   UNL     1       5.161   6.747  17.090  0.00  0.00    +0.000 C 
BRANCH  13  14
ATOM     14  N   UNL     1       4.285   5.744  17.664  0.00  0.00    +0.000 N 
ATOM     15  C   UNL     1       3.048   6.062  18.187  0.00  0.00    +0.000 C 
ATOM     16  O   UNL     1       2.577   7.192  18.166  0.00  0.00    +0.000 OA
ATOM     17  H   UNL     1       4.549   4.773  17.559  0.00  0.00    +0.000 HD
BRANCH  15  18
ATOM     18  C   UNL     1       2.272   4.925  18.761  0.00  0.00    +0.000 A 
ATOM     19  C   UNL     1       1.931   4.880  20.119  0.00  0.00    +0.000 A 
ATOM     20  C   UNL     1       1.226   3.787  20.628  0.00  0.00    +0.000 A 
ATOM     21  C   UNL     1       0.849   2.744  19.783  0.00  0.00    +0.000 A 
ATOM     22  C   UNL     1       1.160   2.798  18.424  0.00  0.00    +0.000 A 
ATOM     23  C   UNL     1       1.865   3.890  17.911  0.00  0.00    +0.000 A 
ENDBRANCH  15  18
ENDBRANCH  13  14
ENDBRANCH   1  13
TORSDOF 6
ENDMDL
