MODEL 1
REMARK VINA RESULT:      -7.6      0.000      0.000
REMARK  Name = 
REMARK  4 active torsions:
REMARK  status: ('A' for Active; 'I' for Inactive)
REMARK    1  A    between atoms: C_1  and  C_2
REMARK    2  A    between atoms: C_2  and  S_3
REMARK    3  A    between atoms: S_3  and  N_6
REMARK    4  A    between atoms: C_9  and  C_10
REMARK                            x       y       z     vdW  Elec       q    Type
REMARK                         _______ _______ _______ _____ _____    ______ ____
ROOT
ATOM      1  N   UNL     1       6.063   5.691  17.350  0.00  0.00    +0.000 NA
ATOM      2  C   UNL     1       4.885   6.239  16.610  0.00  0.00    +0.000 C 
ATOM      3  C   UNL     1       3.927   6.960  17.549  0.00  0.00    +0.000 C 
ATOM      4  C   UNL     1       3.467   6.095  18.723  0.00  0.00    +0.000 C 
ATOM      5  C   UNL     1       4.714   5.591  19.458  0.00  0.00    +0.000 C 
ATOM      6  C   UNL     1       5.678   4.853  18.525  0.00  0.00    +0.000 C 
ENDROOT
BRANCH   4   7
ATOM      7  C   UNL     1       2.559   4.926  18.304  0.00  0.00    +0.000 C 
ATOM      8  O   UNL     1       2.546   4.522  17.142  0.00  0.00    +0.000 OA
ATOM      9  N   UNL     1       1.818   4.289  19.282  0.00  0.00    +0.000 N 
ATOM     10  C   UNL     1       1.598   4.732  20.661  0.00  0.00    +0.000 C 
ATOM     11  C   UNL     1       2.059   3.641  21.631  0.00  0.00    +0.000 C 
ATOM     12  O   UNL     1       1.398   2.395  21.358  0.00  0.00    +0.000 OA
ATOM     13  C   UNL     1       1.649   1.958  20.009  0.00  0.00    +0.000 C 
ATOM     14  C   UNL     1       1.176   3.003  18.991  0.00  0.00    +0.000 C 
ENDBRANCH   4   7
BRANCH   1  15
ATOM     15  S   UNL     1       7.154   4.889  16.269  0.00  0.00    +0.000 S 
ATOM     16  O   UNL     1       8.085   4.115  17.067  0.00  0.00    +0.000 OA
ATOM     17  O   UNL     1       7.613   5.851  15.293  0.00  0.00    +0.000 OA
BRANCH  15  19
ATOM     18  C   UNL     1       6.128   3.919  13.947  0.00  0.00    +0.000 C 
ATOM     19  C   UNL     1       6.069   3.723  15.453  0.00  0.00    +0.000 C 
ENDBRANCH  15  19
ENDBRANCH   1  15
TORSDOF 3
ENDMDL
MODEL 2
REMARK VINA RESULT:      -6.9      1.891      2.666
REMARK  Name = 
REMARK  4 active torsions:
REMARK  status: ('A' for Active; 'I' for Inactive)
REMARK    1  A    between atoms: C_1  and  C_2
REMARK    2  A    between atoms: C_2  and  S_3
REMARK    3  A    between atoms: S_3  and  N_6
REMARK    4  A    between atoms: C_9  and  C_10
REMARK                            x       y       z     vdW  Elec       q    Type
REMARK                         _______ _______ _______ _____ _____    ______ ____
ROOT
ATOM      1  N   UNL     1       5.995   5.446  17.957  0.00  0.00    +0.000 NA
ATOM      2  C   UNL     1       5.905   4.322  16.974  0.00  0.00    +0.000 C 
ATOM      3  C   UNL     1       4.584   4.350  16.218  0.00  0.00    +0.000 C 
ATOM      4  C   UNL     1       3.362   4.356  17.138  0.00  0.00    +0.000 C 
ATOM      5  C   UNL     1       3.496   5.545  18.097  0.00  0.00    +0.000 C 
ATOM      6  C   UNL     1       4.816   5.518  18.872  0.00  0.00    +0.000 C 
ENDROOT
BRANCH   4   7
ATOM      7  C   UNL     1       3.170   3.039  17.910  0.00  0.00    +0.000 C 
ATOM      8  O   UNL     1       3.913   2.078  17.712  0.00  0.00    +0.000 OA
ATOM      9  N   UNL     1       2.194   2.989  18.888  0.00  0.00    +0.000 N 
ATOM     10  C   UNL     1       1.137   3.970  19.139  0.00  0.00    +0.000 C 
ATOM     11  C   UNL     1       1.226   4.464  20.586  0.00  0.00    +0.000 C 
ATOM     12  O   UNL     1       1.167   3.365  21.510  0.00  0.00    +0.000 OA
ATOM     13  C   UNL     1       2.230   2.425  21.270  0.00  0.00    +0.000 C 
ATOM     14  C   UNL     1       2.169   1.873  19.839  0.00  0.00    +0.000 C 
ENDBRANCH   4   7
BRANCH   1  15
ATOM     15  S   UNL     1       7.509   5.414  18.798  0.00  0.00    +0.000 S 
ATOM     16  O   UNL     1       8.379   4.475  18.115  0.00  0.00    +0.000 OA
ATOM     17  O   UNL     1       7.239   5.301  20.213  0.00  0.00    +0.000 OA
BRANCH  15  19
ATOM     18  C   UNL     1       7.357   7.704  17.343  0.00  0.00    +0.000 C 
ATOM     19  C   UNL     1       8.146   7.054  18.468  0.00  0.00    +0.000 C 
ENDBRANCH  15  19
ENDBRANCH   1  15
TORSDOF 3
ENDMDL
MODEL 3
REMARK VINA RESULT:      -6.4      0.879      1.023
REMARK  Name = 
REMARK  4 active torsions:
REMARK  status: ('A' for Active; 'I' for Inactive)
REMARK    1  A    between atoms: C_1  and  C_2
REMARK    2  A    between atoms: C_2  and  S_3
REMARK    3  A    between atoms: S_3  and  N_6
REMARK    4  A    between atoms: C_9  and  C_10
REMARK                            x       y       z     vdW  Elec       q    Type
REMARK                         _______ _______ _______ _____ _____    ______ ____
ROOT
ATOM      1  N   UNL     1       5.832   5.338  17.303  0.00  0.00    +0.000 NA
ATOM      2  C   UNL     1       4.687   6.029  16.633  0.00  0.00    +0.000 C 
ATOM      3  C   UNL     1       3.899   6.880  17.620  0.00  0.00    +0.000 C 
ATOM      4  C   UNL     1       3.412   6.096  18.840  0.00  0.00    +0.000 C 
ATOM      5  C   UNL     1       4.632   5.441  19.499  0.00  0.00    +0.000 C 
ATOM      6  C   UNL     1       5.423   4.572  18.519  0.00  0.00    +0.000 C 
ENDROOT
BRANCH   4   7
ATOM      7  C   UNL     1       2.333   5.051  18.506  0.00  0.00    +0.000 C 
ATOM      8  O   UNL     1       2.092   4.743  17.340  0.00  0.00    +0.000 OA
ATOM      9  N   UNL     1       1.697   4.410  19.553  0.00  0.00    +0.000 N 
ATOM     10  C   UNL     1       1.747   4.762  20.974  0.00  0.00    +0.000 C 
ATOM     11  C   UNL     1       2.243   3.561  21.784  0.00  0.00    +0.000 C 
ATOM     12  O   UNL     1       1.422   2.406  21.548  0.00  0.00    +0.000 OA
ATOM     13  C   UNL     1       1.406   2.054  20.152  0.00  0.00    +0.000 C 
ATOM     14  C   UNL     1       0.887   3.215  19.294  0.00  0.00    +0.000 C 
ENDBRANCH   4   7
BRANCH   1  15
ATOM     15  S   UNL     1       6.731   4.388  16.168  0.00  0.00    +0.000 S 
ATOM     16  O   UNL     1       5.918   3.244  15.800  0.00  0.00    +0.000 OA
ATOM     17  O   UNL     1       8.075   4.228  16.675  0.00  0.00    +0.000 OA
BRANCH  15  19
ATOM     18  C   UNL     1       7.246   4.701  13.518  0.00  0.00    +0.000 C 
ATOM     19  C   UNL     1       6.784   5.472  14.744  0.00  0.00    +0.000 C 
ENDBRANCH  15  19
ENDBRANCH   1  15
TORSDOF 3
ENDMDL
MODEL 4
REMARK VINA RESULT:      -6.2      2.089      3.018
REMARK  Name = 
REMARK  4 active torsions:
REMARK  status: ('A' for Active; 'I' for Inactive)
REMARK    1  A    between atoms: C_1  and  C_2
REMARK    2  A    between atoms: C_2  and  S_3
REMARK    3  A    between atoms: S_3  and  N_6
REMARK    4  A    between atoms: C_9  and  C_10
REMARK                            x       y       z     vdW  Elec       q    Type
REMARK                         _______ _______ _______ _____ _____    ______ ____
ROOT
ATOM      1  N   UNL     1       5.822   6.041  17.031  0.00  0.00    +0.000 NA
ATOM      2  C   UNL     1       5.963   4.593  16.685  0.00  0.00    +0.000 C 
ATOM      3  C   UNL     1       4.610   3.955  16.402  0.00  0.00    +0.000 C 
ATOM      4  C   UNL     1       3.606   4.138  17.542  0.00  0.00    +0.000 C 
ATOM      5  C   UNL     1       3.481   5.639  17.827  0.00  0.00    +0.000 C 
ATOM      6  C   UNL     1       4.835   6.287  18.126  0.00  0.00    +0.000 C 
ENDROOT
BRANCH   4   7
ATOM      7  C   UNL     1       3.978   3.360  18.816  0.00  0.00    +0.000 C 
ATOM      8  O   UNL     1       5.144   3.308  19.206  0.00  0.00    +0.000 OA
ATOM      9  N   UNL     1       2.958   2.789  19.555  0.00  0.00    +0.000 N 
ATOM     10  C   UNL     1       1.558   2.622  19.159  0.00  0.00    +0.000 C 
ATOM     11  C   UNL     1       0.649   3.297  20.190  0.00  0.00    +0.000 C 
ATOM     12  O   UNL     1       0.895   2.785  21.509  0.00  0.00    +0.000 OA
ATOM     13  C   UNL     1       2.268   2.983  21.896  0.00  0.00    +0.000 C 
ATOM     14  C   UNL     1       3.226   2.298  20.911  0.00  0.00    +0.000 C 
ENDBRANCH   4   7
BRANCH   1  15
ATOM     15  S   UNL     1       7.368   6.759  17.332  0.00  0.00    +0.000 S 
ATOM     16  O   UNL     1       8.125   6.726  16.095  0.00  0.00    +0.000 OA
ATOM     17  O   UNL     1       7.896   6.200  18.556  0.00  0.00    +0.000 OA
BRANCH  15  19
ATOM     18  C   UNL     1       8.172   9.283  17.942  0.00  0.00    +0.000 C 
ATOM     19  C   UNL     1       6.927   8.468  17.630  0.00  0.00    +0.000 C 
ENDBRANCH  15  19
ENDBRANCH   1  15
TORSDOF 3
ENDMDL
MODEL 5
REMARK VINA RESULT:      -6.1      3.080      4.167
REMARK  Name = 
REMARK  4 active torsions:
REMARK  status: ('A' for Active; 'I' for Inactive)
REMARK    1  A    between atoms: C_1  and  C_2
REMARK    2  A    between atoms: C_2  and  S_3
REMARK    3  A    between atoms: S_3  and  N_6
REMARK    4  A    between atoms: C_9  and  C_10
REMARK                            x       y       z     vdW  Elec       q    Type
REMARK                         _______ _______ _______ _____ _____    ______ ____
ROOT
ATOM      1  N   UNL     1       4.812   4.695  18.147  0.00  0.00    +0.000 NA
ATOM      2  C   UNL     1       4.785   5.497  19.409  0.00  0.00    +0.000 C 
ATOM      3  C   UNL     1       3.418   5.437  20.076  0.00  0.00    +0.000 C 
ATOM      4  C   UNL     1       2.275   5.857  19.150  0.00  0.00    +0.000 C 
ATOM      5  C   UNL     1       2.336   4.980  17.894  0.00  0.00    +0.000 C 
ATOM      6  C   UNL     1       3.703   5.044  17.209  0.00  0.00    +0.000 C 
ENDROOT
BRANCH   4   7
ATOM      7  C   UNL     1       2.301   7.352  18.786  0.00  0.00    +0.000 C 
ATOM      8  O   UNL     1       2.725   7.728  17.694  0.00  0.00    +0.000 OA
ATOM      9  N   UNL     1       1.761   8.254  19.684  0.00  0.00    +0.000 N 
ATOM     10  C   UNL     1       1.366   7.999  21.071  0.00  0.00    +0.000 C 
ATOM     11  C   UNL     1      -0.107   8.372  21.263  0.00  0.00    +0.000 C 
ATOM     12  O   UNL     1      -0.348   9.735  20.880  0.00  0.00    +0.000 OA
ATOM     13  C   UNL     1       0.017   9.962  19.506  0.00  0.00    +0.000 C 
ATOM     14  C   UNL     1       1.496   9.634  19.264  0.00  0.00    +0.000 C 
ENDBRANCH   4   7
BRANCH   1  15
ATOM     15  S   UNL     1       6.376   4.756  17.408  0.00  0.00    +0.000 S 
ATOM     16  O   UNL     1       6.319   3.991  16.176  0.00  0.00    +0.000 OA
ATOM     17  O   UNL     1       7.368   4.480  18.422  0.00  0.00    +0.000 OA
BRANCH  15  19
ATOM     18  C   UNL     1       7.636   7.146  17.704  0.00  0.00    +0.000 C 
ATOM     19  C   UNL     1       6.497   6.482  16.947  0.00  0.00    +0.000 C 
ENDBRANCH  15  19
ENDBRANCH   1  15
TORSDOF 3
ENDMDL
MODEL 6
REMARK VINA RESULT:      -6.1      1.400      1.792
REMARK  Name = 
REMARK  4 active torsions:
REMARK  status: ('A' for Active; 'I' for Inactive)
REMARK    1  A    between atoms: C_1  and  C_2
REMARK    2  A    between atoms: C_2  and  S_3
REMARK    3  A    between atoms: S_3  and  N_6
REMARK    4  A    between atoms: C_9  and  C_10
REMARK                            x       y       z     vdW  Elec       q    Type
REMARK                         _______ _______ _______ _____ _____    ______ ____
ROOT
ATOM      1  N   UNL     1       5.545   5.972  17.672  0.00  0.00    +0.000 NA
ATOM      2  C   UNL     1       4.414   6.353  16.770  0.00  0.00    +0.000 C 
ATOM      3  C   UNL     1       3.307   7.062  17.537  0.00  0.00    +0.000 C 
ATOM      4  C   UNL     1       2.790   6.259  18.733  0.00  0.00    +0.000 C 
ATOM      5  C   UNL     1       3.986   5.928  19.633  0.00  0.00    +0.000 C 
ATOM      6  C   UNL     1       5.100   5.203  18.874  0.00  0.00    +0.000 C 
ENDROOT
BRANCH   4   7
ATOM      7  C   UNL     1       2.028   4.985  18.331  0.00  0.00    +0.000 C 
ATOM      8  O   UNL     1       1.965   4.632  17.154  0.00  0.00    +0.000 OA
ATOM      9  N   UNL     1       1.484   4.204  19.335  0.00  0.00    +0.000 N 
ATOM     10  C   UNL     1       1.332   4.553  20.749  0.00  0.00    +0.000 C 
ATOM     11  C   UNL     1       2.037   3.505  21.615  0.00  0.00    +0.000 C 
ATOM     12  O   UNL     1       1.543   2.186  21.334  0.00  0.00    +0.000 OA
ATOM     13  C   UNL     1       1.726   1.847  19.946  0.00  0.00    +0.000 C 
ATOM     14  C   UNL     1       1.012   2.849  19.031  0.00  0.00    +0.000 C 
ENDBRANCH   4   7
BRANCH   1  15
ATOM     15  S   UNL     1       6.805   5.182  16.785  0.00  0.00    +0.000 S 
ATOM     16  O   UNL     1       7.521   6.193  16.031  0.00  0.00    +0.000 OA
ATOM     17  O   UNL     1       6.244   4.016  16.143  0.00  0.00    +0.000 OA
BRANCH  15  19
ATOM     18  C   UNL     1       8.127   5.774  19.085  0.00  0.00    +0.000 C 
ATOM     19  C   UNL     1       7.894   4.641  18.099  0.00  0.00    +0.000 C 
ENDBRANCH  15  19
ENDBRANCH   1  15
TORSDOF 3
ENDMDL
MODEL 7
REMARK VINA RESULT:      -6.1      1.022      1.115
REMARK  Name = 
REMARK  4 active torsions:
REMARK  status: ('A' for Active; 'I' for Inactive)
REMARK    1  A    between atoms: C_1  and  C_2
REMARK    2  A    between atoms: C_2  and  S_3
REMARK    3  A    between atoms: S_3  and  N_6
REMARK    4  A    between atoms: C_9  and  C_10
REMARK                            x       y       z     vdW  Elec       q    Type
REMARK                         _______ _______ _______ _____ _____    ______ ____
ROOT
ATOM      1  N   UNL     1       5.374   6.573  17.474  0.00  0.00    +0.000 NA
ATOM      2  C   UNL     1       4.064   7.016  16.903  0.00  0.00    +0.000 C 
ATOM      3  C   UNL     1       3.090   7.423  18.000  0.00  0.00    +0.000 C 
ATOM      4  C   UNL     1       2.875   6.334  19.052  0.00  0.00    +0.000 C 
ATOM      5  C   UNL     1       4.245   5.947  19.621  0.00  0.00    +0.000 C 
ATOM      6  C   UNL     1       5.228   5.523  18.526  0.00  0.00    +0.000 C 
ENDROOT
BRANCH   4   7
ATOM      7  C   UNL     1       2.129   5.101  18.513  0.00  0.00    +0.000 C 
ATOM      8  O   UNL     1       2.095   4.861  17.306  0.00  0.00    +0.000 OA
ATOM      9  N   UNL     1       1.567   4.226  19.424  0.00  0.00    +0.000 N 
ATOM     10  C   UNL     1       1.381   4.437  20.861  0.00  0.00    +0.000 C 
ATOM     11  C   UNL     1       2.072   3.314  21.640  0.00  0.00    +0.000 C 
ATOM     12  O   UNL     1       1.592   2.025  21.222  0.00  0.00    +0.000 OA
ATOM     13  C   UNL     1       1.810   1.821  19.813  0.00  0.00    +0.000 C 
ATOM     14  C   UNL     1       1.110   2.904  18.981  0.00  0.00    +0.000 C 
ENDBRANCH   4   7
BRANCH   1  15
ATOM     15  S   UNL     1       6.478   6.130  16.216  0.00  0.00    +0.000 S 
ATOM     16  O   UNL     1       7.759   6.744  16.510  0.00  0.00    +0.000 OA
ATOM     17  O   UNL     1       5.820   6.327  14.945  0.00  0.00    +0.000 OA
BRANCH  15  19
ATOM     18  C   UNL     1       5.934   3.591  15.415  0.00  0.00    +0.000 C 
ATOM     19  C   UNL     1       6.665   4.372  16.495  0.00  0.00    +0.000 C 
ENDBRANCH  15  19
ENDBRANCH   1  15
TORSDOF 3
ENDMDL
MODEL 8
REMARK VINA RESULT:      -6.0      1.827      2.717
REMARK  Name = 
REMARK  4 active torsions:
REMARK  status: ('A' for Active; 'I' for Inactive)
REMARK    1  A    between atoms: C_1  and  C_2
REMARK    2  A    between atoms: C_2  and  S_3
REMARK    3  A    between atoms: S_3  and  N_6
REMARK    4  A    between atoms: C_9  and  C_10
REMARK                            x       y       z     vdW  Elec       q    Type
REMARK                         _______ _______ _______ _____ _____    ______ ____
ROOT
ATOM      1  N   UNL     1       5.439   6.138  16.824  0.00  0.00    +0.000 NA
ATOM      2  C   UNL     1       5.600   4.698  16.454  0.00  0.00    +0.000 C 
ATOM      3  C   UNL     1       4.251   4.019  16.264  0.00  0.00    +0.000 C 
ATOM      4  C   UNL     1       3.327   4.160  17.475  0.00  0.00    +0.000 C 
ATOM      5  C   UNL     1       3.176   5.654  17.783  0.00  0.00    +0.000 C 
ATOM      6  C   UNL     1       4.527   6.343  17.990  0.00  0.00    +0.000 C 
ENDROOT
BRANCH   4   7
ATOM      7  C   UNL     1       3.815   3.385  18.711  0.00  0.00    +0.000 C 
ATOM      8  O   UNL     1       5.008   3.362  19.012  0.00  0.00    +0.000 OA
ATOM      9  N   UNL     1       2.870   2.780  19.519  0.00  0.00    +0.000 N 
ATOM     10  C   UNL     1       1.449   2.577  19.227  0.00  0.00    +0.000 C 
ATOM     11  C   UNL     1       0.601   3.219  20.328  0.00  0.00    +0.000 C 
ATOM     12  O   UNL     1       0.960   2.706  21.621  0.00  0.00    +0.000 OA
ATOM     13  C   UNL     1       2.352   2.939  21.906  0.00  0.00    +0.000 C 
ATOM     14  C   UNL     1       3.251   2.288  20.847  0.00  0.00    +0.000 C 
ENDBRANCH   4   7
BRANCH   1  15
ATOM     15  S   UNL     1       6.980   6.903  17.021  0.00  0.00    +0.000 S 
ATOM     16  O   UNL     1       6.756   8.328  17.172  0.00  0.00    +0.000 OA
ATOM     17  O   UNL     1       7.876   6.382  16.014  0.00  0.00    +0.000 OA
BRANCH  15  19
ATOM     18  C   UNL     1       8.077   4.884  18.474  0.00  0.00    +0.000 C 
ATOM     19  C   UNL     1       7.496   6.282  18.619  0.00  0.00    +0.000 C 
ENDBRANCH  15  19
ENDBRANCH   1  15
TORSDOF 3
ENDMDL
MODEL 9
REMARK VINA RESULT:      -6.0      2.272      5.844
REMARK  Name = 
REMARK  4 active torsions:
REMARK  status: ('A' for Active; 'I' for Inactive)
REMARK    1  A    between atoms: C_1  and  C_2
REMARK    2  A    between atoms: C_2  and  S_3
REMARK    3  A    between atoms: S_3  and  N_6
REMARK    4  A    between atoms: C_9  and  C_10
REMARK                            x       y       z     vdW  Elec       q    Type
REMARK                         _______ _______ _______ _____ _____    ______ ____
ROOT
ATOM      1  N   UNL     1       1.726   4.147  19.169  0.00  0.00    +0.000 NA
ATOM      2  C   UNL     1       2.434   4.817  20.303  0.00  0.00    +0.000 C 
ATOM      3  C   UNL     1       2.722   6.279  19.990  0.00  0.00    +0.000 C 
ATOM      4  C   UNL     1       3.494   6.477  18.685  0.00  0.00    +0.000 C 
ATOM      5  C   UNL     1       2.704   5.798  17.560  0.00  0.00    +0.000 C 
ATOM      6  C   UNL     1       2.421   4.324  17.858  0.00  0.00    +0.000 C 
ENDROOT
BRANCH   4   7
ATOM      7  C   UNL     1       4.940   5.953  18.743  0.00  0.00    +0.000 C 
ATOM      8  O   UNL     1       5.358   5.365  19.739  0.00  0.00    +0.000 OA
ATOM      9  N   UNL     1       5.731   6.090  17.617  0.00  0.00    +0.000 N 
ATOM     10  C   UNL     1       5.449   6.891  16.424  0.00  0.00    +0.000 C 
ATOM     11  C   UNL     1       5.485   5.995  15.183  0.00  0.00    +0.000 C 
ATOM     12  O   UNL     1       6.742   5.306  15.080  0.00  0.00    +0.000 OA
ATOM     13  C   UNL     1       6.991   4.500  16.247  0.00  0.00    +0.000 C 
ATOM     14  C   UNL     1       6.997   5.355  17.521  0.00  0.00    +0.000 C 
ENDBRANCH   4   7
BRANCH   1  15
ATOM     15  S   UNL     1       1.388   2.490  19.543  0.00  0.00    +0.000 S 
ATOM     16  O   UNL     1       0.213   2.093  18.791  0.00  0.00    +0.000 OA
ATOM     17  O   UNL     1       1.457   2.326  20.977  0.00  0.00    +0.000 OA
BRANCH  15  19
ATOM     18  C   UNL     1       4.036   1.887  19.643  0.00  0.00    +0.000 C 
ATOM     19  C   UNL     1       2.789   1.655  18.805  0.00  0.00    +0.000 C 
ENDBRANCH  15  19
ENDBRANCH   1  15
TORSDOF 3
ENDMDL
