MODEL 1
REMARK VINA RESULT:      -7.8      0.000      0.000
REMARK  Name = 
REMARK  9 active torsions:
REMARK  status: ('A' for Active; 'I' for Inactive)
REMARK    1  A    between atoms: C_1  and  C_2
REMARK    2  A    between atoms: C_3  and  C_4
REMARK    3  A    between atoms: C_11  and  C_12
REMARK    4  A    between atoms: C_15  and  O_16
REMARK    5  A    between atoms: O_16  and  C_17
REMARK    6  A    between atoms: C_17  and  C_18
REMARK    7  A    between atoms: C_18  and  N_19
REMARK    8  A    between atoms: C_21  and  C_22
REMARK    9  A    between atoms: C_31  and  O_32
REMARK                            x       y       z     vdW  Elec       q    Type
REMARK                         _______ _______ _______ _____ _____    ______ ____
ROOT
ATOM      1  C   UNL     1       3.757   2.212  17.236  0.00  0.00    +0.000 C 
ATOM      2  C   UNL     1       4.271   3.595  17.528  0.00  0.00    +0.000 C 
ATOM      3  C   UNL     1       3.900   4.335  18.594  0.00  0.00    +0.000 C 
ATOM      4  C   UNL     1       4.420   5.742  18.839  0.00  0.00    +0.000 C 
ATOM      5  O   UNL     1       5.484   6.196  17.992  0.00  0.00    +0.000 OA
ATOM      6  C   UNL     1       5.763   5.482  16.865  0.00  0.00    +0.000 A 
ATOM      7  C   UNL     1       6.673   6.110  16.002  0.00  0.00    +0.000 A 
ATOM      8  C   UNL     1       7.094   5.484  14.834  0.00  0.00    +0.000 A 
ATOM      9  C   UNL     1       6.606   4.216  14.548  0.00  0.00    +0.000 A 
ATOM     10  C   UNL     1       5.692   3.592  15.407  0.00  0.00    +0.000 A 
ATOM     11  F   UNL     1       5.269   2.361  15.076  0.00  0.00    +0.000 F 
ATOM     12  C   UNL     1       5.237   4.214  16.584  0.00  0.00    +0.000 A 
ENDROOT
BRANCH   3  13
ATOM     13  C   UNL     1       2.982   3.810  19.636  0.00  0.00    +0.000 A 
ATOM     14  C   UNL     1       1.594   3.901  19.466  0.00  0.00    +0.000 A 
ATOM     15  C   UNL     1       0.730   3.382  20.434  0.00  0.00    +0.000 A 
ATOM     16  C   UNL     1       1.251   2.765  21.566  0.00  0.00    +0.000 A 
ATOM     17  F   UNL     1       0.421   2.251  22.482  0.00  0.00    +0.000 F 
ATOM     18  C   UNL     1       2.621   2.678  21.761  0.00  0.00    +0.000 A 
ATOM     19  C   UNL     1       3.483   3.220  20.808  0.00  0.00    +0.000 A 
ENDBRANCH   3  13
BRANCH   4  20
ATOM     20  C   UNL     1       3.367   6.841  18.805  0.00  0.00    +0.000 A 
ATOM     21  C   UNL     1       3.220   7.590  17.633  0.00  0.00    +0.000 A 
ATOM     22  C   UNL     1       2.298   8.633  17.569  0.00  0.00    +0.000 A 
ATOM     23  C   UNL     1       1.517   8.963  18.680  0.00  0.00    +0.000 A 
ATOM     24  C   UNL     1       1.631   8.202  19.840  0.00  0.00    +0.000 A 
ATOM     25  C   UNL     1       2.513   7.119  19.884  0.00  0.00    +0.000 A 
BRANCH  23  26
ATOM     26  O   UNL     1       0.614   9.998  18.730  0.00  0.00    +0.000 OA
BRANCH  26  27
ATOM     27  C   UNL     1      -0.228   9.974  19.884  0.00  0.00    +0.000 C 
BRANCH  27  28
ATOM     28  C   UNL     1      -1.489  10.810  19.668  0.00  0.00    +0.000 C 
BRANCH  28  29
ATOM     29  N   UNL     1      -1.792  10.826  18.231  0.00  0.00    +0.000 NA
ATOM     30  C   UNL     1      -2.651   9.681  17.847  0.00  0.00    +0.000 C 
ATOM     31  C   UNL     1      -3.425  10.661  16.932  0.00  0.00    +0.000 C 
ATOM     32  C   UNL     1      -2.929  11.739  17.924  0.00  0.00    +0.000 C 
BRANCH  31  33
ATOM     33  C   UNL     1      -2.904  10.798  15.516  0.00  0.00    +0.000 C 
ATOM     34  F   UNL     1      -3.758  10.132  14.691  0.00  0.00    +0.000 F 
ENDBRANCH  31  33
ENDBRANCH  28  29
ENDBRANCH  27  28
ENDBRANCH  26  27
ENDBRANCH  23  26
ENDBRANCH   4  20
BRANCH   9  35
ATOM     35  O   UNL     1       7.012   3.554  13.422  0.00  0.00    +0.000 OA
ATOM     36  H   UNL     1       7.151   4.198  12.703  0.00  0.00    +0.000 HD
ENDBRANCH   9  35
TORSDOF 8
ENDMDL
MODEL 2
REMARK VINA RESULT:      -7.7      4.126      7.650
REMARK  Name = 
REMARK  9 active torsions:
REMARK  status: ('A' for Active; 'I' for Inactive)
REMARK    1  A    between atoms: C_1  and  C_2
REMARK    2  A    between atoms: C_3  and  C_4
REMARK    3  A    between atoms: C_11  and  C_12
REMARK    4  A    between atoms: C_15  and  O_16
REMARK    5  A    between atoms: O_16  and  C_17
REMARK    6  A    between atoms: C_17  and  C_18
REMARK    7  A    between atoms: C_18  and  N_19
REMARK    8  A    between atoms: C_21  and  C_22
REMARK    9  A    between atoms: C_31  and  O_32
REMARK                            x       y       z     vdW  Elec       q    Type
REMARK                         _______ _______ _______ _____ _____    ______ ____
ROOT
ATOM      1  C   UNL     1       0.831   9.093  22.554  0.00  0.00    +0.000 C 
ATOM      2  C   UNL     1       0.783   9.516  21.111  0.00  0.00    +0.000 C 
ATOM      3  C   UNL     1       0.190  10.644  20.669  0.00  0.00    +0.000 C 
ATOM      4  C   UNL     1       0.137  11.022  19.196  0.00  0.00    +0.000 C 
ATOM      5  O   UNL     1       0.919  10.227  18.295  0.00  0.00    +0.000 OA
ATOM      6  C   UNL     1       1.416   9.039  18.745  0.00  0.00    +0.000 A 
ATOM      7  C   UNL     1       1.987   8.244  17.741  0.00  0.00    +0.000 A 
ATOM      8  C   UNL     1       2.581   7.024  18.052  0.00  0.00    +0.000 A 
ATOM      9  C   UNL     1       2.608   6.619  19.379  0.00  0.00    +0.000 A 
ATOM     10  C   UNL     1       2.031   7.411  20.380  0.00  0.00    +0.000 A 
ATOM     11  F   UNL     1       2.102   6.965  21.645  0.00  0.00    +0.000 F 
ATOM     12  C   UNL     1       1.409   8.639  20.088  0.00  0.00    +0.000 A 
ENDROOT
BRANCH   3  13
ATOM     13  C   UNL     1      -0.424  11.627  21.595  0.00  0.00    +0.000 A 
ATOM     14  C   UNL     1       0.065  12.940  21.657  0.00  0.00    +0.000 A 
ATOM     15  C   UNL     1      -0.531  13.873  22.510  0.00  0.00    +0.000 A 
ATOM     16  C   UNL     1      -1.618  13.501  23.292  0.00  0.00    +0.000 A 
ATOM     17  F   UNL     1      -2.199  14.403  24.093  0.00  0.00    +0.000 F 
ATOM     18  C   UNL     1      -2.107  12.204  23.258  0.00  0.00    +0.000 A 
ATOM     19  C   UNL     1      -1.496  11.264  22.427  0.00  0.00    +0.000 A 
ENDBRANCH   3  13
BRANCH   4  20
ATOM     20  C   UNL     1      -1.258  11.084  18.589  0.00  0.00    +0.000 A 
ATOM     21  C   UNL     1      -1.606  10.143  17.616  0.00  0.00    +0.000 A 
ATOM     22  C   UNL     1      -2.856  10.186  17.002  0.00  0.00    +0.000 A 
ATOM     23  C   UNL     1      -3.778  11.182  17.333  0.00  0.00    +0.000 A 
ATOM     24  C   UNL     1      -3.455  12.104  18.326  0.00  0.00    +0.000 A 
ATOM     25  C   UNL     1      -2.224  12.023  18.983  0.00  0.00    +0.000 A 
BRANCH  23  26
ATOM     26  O   UNL     1      -5.016  11.336  16.756  0.00  0.00    +0.000 OA
BRANCH  26  27
ATOM     27  C   UNL     1      -5.888  12.206  17.480  0.00  0.00    +0.000 C 
BRANCH  27  28
ATOM     28  C   UNL     1      -7.044  11.433  18.113  0.00  0.00    +0.000 C 
BRANCH  28  29
ATOM     29  N   UNL     1      -7.410  12.097  19.371  0.00  0.00    +0.000 NA
ATOM     30  C   UNL     1      -6.598  11.594  20.504  0.00  0.00    +0.000 C 
ATOM     31  C   UNL     1      -6.512  13.058  21.000  0.00  0.00    +0.000 C 
ATOM     32  C   UNL     1      -6.726  13.414  19.510  0.00  0.00    +0.000 C 
BRANCH  31  33
ATOM     33  C   UNL     1      -7.615  13.509  21.935  0.00  0.00    +0.000 C 
ATOM     34  F   UNL     1      -7.122  14.517  22.706  0.00  0.00    +0.000 F 
ENDBRANCH  31  33
ENDBRANCH  28  29
ENDBRANCH  27  28
ENDBRANCH  26  27
ENDBRANCH  23  26
ENDBRANCH   4  20
BRANCH   9  35
ATOM     35  O   UNL     1       3.203   5.439  19.732  0.00  0.00    +0.000 OA
ATOM     36  H   UNL     1       2.850   5.145  20.592  0.00  0.00    +0.000 HD
ENDBRANCH   9  35
TORSDOF 8
ENDMDL
MODEL 3
REMARK VINA RESULT:      -7.6      3.392     10.427
REMARK  Name = 
REMARK  9 active torsions:
REMARK  status: ('A' for Active; 'I' for Inactive)
REMARK    1  A    between atoms: C_1  and  C_2
REMARK    2  A    between atoms: C_3  and  C_4
REMARK    3  A    between atoms: C_11  and  C_12
REMARK    4  A    between atoms: C_15  and  O_16
REMARK    5  A    between atoms: O_16  and  C_17
REMARK    6  A    between atoms: C_17  and  C_18
REMARK    7  A    between atoms: C_18  and  N_19
REMARK    8  A    between atoms: C_21  and  C_22
REMARK    9  A    between atoms: C_31  and  O_32
REMARK                            x       y       z     vdW  Elec       q    Type
REMARK                         _______ _______ _______ _____ _____    ______ ____
ROOT
ATOM      1  C   UNL     1      -4.557  11.961  20.073  0.00  0.00    +0.000 C 
ATOM      2  C   UNL     1      -3.079  12.193  20.232  0.00  0.00    +0.000 C 
ATOM      3  C   UNL     1      -2.149  11.814  19.330  0.00  0.00    +0.000 C 
ATOM      4  C   UNL     1      -0.660  12.040  19.541  0.00  0.00    +0.000 C 
ATOM      5  O   UNL     1      -0.280  12.855  20.657  0.00  0.00    +0.000 OA
ATOM      6  C   UNL     1      -1.220  13.130  21.606  0.00  0.00    +0.000 A 
ATOM      7  C   UNL     1      -0.706  13.756  22.751  0.00  0.00    +0.000 A 
ATOM      8  C   UNL     1      -1.549  14.145  23.788  0.00  0.00    +0.000 A 
ATOM      9  C   UNL     1      -2.912  13.913  23.656  0.00  0.00    +0.000 A 
ATOM     10  C   UNL     1      -3.423  13.283  22.515  0.00  0.00    +0.000 A 
ATOM     11  F   UNL     1      -4.751  13.100  22.448  0.00  0.00    +0.000 F 
ATOM     12  C   UNL     1      -2.588  12.864  21.462  0.00  0.00    +0.000 A 
ENDROOT
BRANCH   3  13
ATOM     13  C   UNL     1      -2.516  11.182  18.038  0.00  0.00    +0.000 A 
ATOM     14  C   UNL     1      -2.979   9.860  18.004  0.00  0.00    +0.000 A 
ATOM     15  C   UNL     1      -3.351   9.274  16.791  0.00  0.00    +0.000 A 
ATOM     16  C   UNL     1      -3.269  10.010  15.614  0.00  0.00    +0.000 A 
ATOM     17  F   UNL     1      -3.644   9.453  14.456  0.00  0.00    +0.000 F 
ATOM     18  C   UNL     1      -2.798  11.314  15.623  0.00  0.00    +0.000 A 
ATOM     19  C   UNL     1      -2.401  11.891  16.831  0.00  0.00    +0.000 A 
ENDBRANCH   3  13
BRANCH   4  20
ATOM     20  C   UNL     1       0.182  10.776  19.645  0.00  0.00    +0.000 A 
ATOM     21  C   UNL     1       0.906  10.360  18.523  0.00  0.00    +0.000 A 
ATOM     22  C   UNL     1       1.657   9.188  18.558  0.00  0.00    +0.000 A 
ATOM     23  C   UNL     1       1.687   8.394  19.707  0.00  0.00    +0.000 A 
ATOM     24  C   UNL     1       0.998   8.816  20.841  0.00  0.00    +0.000 A 
ATOM     25  C   UNL     1       0.293  10.023  20.824  0.00  0.00    +0.000 A 
BRANCH  23  26
ATOM     26  O   UNL     1       2.360   7.202  19.827  0.00  0.00    +0.000 OA
BRANCH  26  27
ATOM     27  C   UNL     1       2.869   6.699  18.590  0.00  0.00    +0.000 C 
BRANCH  27  28
ATOM     28  C   UNL     1       2.311   5.310  18.285  0.00  0.00    +0.000 C 
BRANCH  28  29
ATOM     29  N   UNL     1       2.292   4.536  19.533  0.00  0.00    +0.000 NA
ATOM     30  C   UNL     1       1.019   3.792  19.688  0.00  0.00    +0.000 C 
ATOM     31  C   UNL     1       1.860   2.605  20.219  0.00  0.00    +0.000 C 
ATOM     32  C   UNL     1       2.996   3.231  19.376  0.00  0.00    +0.000 C 
BRANCH  31  33
ATOM     33  C   UNL     1       2.105   2.581  21.714  0.00  0.00    +0.000 C 
ATOM     34  F   UNL     1       0.917   2.323  22.326  0.00  0.00    +0.000 F 
ENDBRANCH  31  33
ENDBRANCH  28  29
ENDBRANCH  27  28
ENDBRANCH  26  27
ENDBRANCH  23  26
ENDBRANCH   4  20
BRANCH   9  35
ATOM     35  O   UNL     1      -3.778  14.301  24.640  0.00  0.00    +0.000 OA
ATOM     36  H   UNL     1      -4.626  13.832  24.526  0.00  0.00    +0.000 HD
ENDBRANCH   9  35
TORSDOF 8
ENDMDL
MODEL 4
REMARK VINA RESULT:      -7.6      0.341      1.200
REMARK  Name = 
REMARK  9 active torsions:
REMARK  status: ('A' for Active; 'I' for Inactive)
REMARK    1  A    between atoms: C_1  and  C_2
REMARK    2  A    between atoms: C_3  and  C_4
REMARK    3  A    between atoms: C_11  and  C_12
REMARK    4  A    between atoms: C_15  and  O_16
REMARK    5  A    between atoms: O_16  and  C_17
REMARK    6  A    between atoms: C_17  and  C_18
REMARK    7  A    between atoms: C_18  and  N_19
REMARK    8  A    between atoms: C_21  and  C_22
REMARK    9  A    between atoms: C_31  and  O_32
REMARK                            x       y       z     vdW  Elec       q    Type
REMARK                         _______ _______ _______ _____ _____    ______ ____
ROOT
ATOM      1  C   UNL     1       3.757   2.209  17.001  0.00  0.00    +0.000 C 
ATOM      2  C   UNL     1       4.319   3.566  17.326  0.00  0.00    +0.000 C 
ATOM      3  C   UNL     1       3.976   4.291  18.411  0.00  0.00    +0.000 C 
ATOM      4  C   UNL     1       4.545   5.673  18.690  0.00  0.00    +0.000 C 
ATOM      5  O   UNL     1       5.621   6.112  17.851  0.00  0.00    +0.000 OA
ATOM      6  C   UNL     1       5.872   5.417  16.705  0.00  0.00    +0.000 A 
ATOM      7  C   UNL     1       6.801   6.036  15.855  0.00  0.00    +0.000 A 
ATOM      8  C   UNL     1       7.198   5.425  14.670  0.00  0.00    +0.000 A 
ATOM      9  C   UNL     1       6.665   4.183  14.354  0.00  0.00    +0.000 A 
ATOM     10  C   UNL     1       5.733   3.568  15.200  0.00  0.00    +0.000 A 
ATOM     11  F   UNL     1       5.267   2.362  14.839  0.00  0.00    +0.000 F 
ATOM     12  C   UNL     1       5.303   4.175  16.395  0.00  0.00    +0.000 A 
ENDROOT
BRANCH   3  13
ATOM     13  C   UNL     1       3.044   3.772  19.443  0.00  0.00    +0.000 A 
ATOM     14  C   UNL     1       3.542   3.155  20.599  0.00  0.00    +0.000 A 
ATOM     15  C   UNL     1       2.665   2.691  21.584  0.00  0.00    +0.000 A 
ATOM     16  C   UNL     1       1.294   2.850  21.419  0.00  0.00    +0.000 A 
ATOM     17  F   UNL     1       0.457   2.423  22.373  0.00  0.00    +0.000 F 
ATOM     18  C   UNL     1       0.780   3.443  20.276  0.00  0.00    +0.000 A 
ATOM     19  C   UNL     1       1.654   3.882  19.280  0.00  0.00    +0.000 A 
ENDBRANCH   3  13
BRANCH   4  20
ATOM     20  C   UNL     1       3.530   6.808  18.688  0.00  0.00    +0.000 A 
ATOM     21  C   UNL     1       2.718   6.980  19.813  0.00  0.00    +0.000 A 
ATOM     22  C   UNL     1       1.746   7.978  19.841  0.00  0.00    +0.000 A 
ATOM     23  C   UNL     1       1.550   8.813  18.737  0.00  0.00    +0.000 A 
ATOM     24  C   UNL     1       2.376   8.673  17.625  0.00  0.00    +0.000 A 
ATOM     25  C   UNL     1       3.390   7.710  17.622  0.00  0.00    +0.000 A 
BRANCH  23  26
ATOM     26  O   UNL     1       0.593   9.795  18.650  0.00  0.00    +0.000 OA
BRANCH  26  27
ATOM     27  C   UNL     1      -0.216   9.919  19.822  0.00  0.00    +0.000 C 
BRANCH  27  28
ATOM     28  C   UNL     1      -1.616  10.427  19.478  0.00  0.00    +0.000 C 
BRANCH  28  29
ATOM     29  N   UNL     1      -1.845  10.214  18.043  0.00  0.00    +0.000 NA
ATOM     30  C   UNL     1      -3.169   9.599  17.793  0.00  0.00    +0.000 C 
ATOM     31  C   UNL     1      -3.304  10.554  16.582  0.00  0.00    +0.000 C 
ATOM     32  C   UNL     1      -2.333  11.455  17.379  0.00  0.00    +0.000 C 
BRANCH  31  33
ATOM     33  C   UNL     1      -2.768  10.035  15.263  0.00  0.00    +0.000 C 
ATOM     34  F   UNL     1      -3.497  10.604  14.264  0.00  0.00    +0.000 F 
ENDBRANCH  31  33
ENDBRANCH  28  29
ENDBRANCH  27  28
ENDBRANCH  26  27
ENDBRANCH  23  26
ENDBRANCH   4  20
BRANCH   9  35
ATOM     35  O   UNL     1       7.046   3.536  13.211  0.00  0.00    +0.000 OA
ATOM     36  H   UNL     1       7.186   4.191  12.502  0.00  0.00    +0.000 HD
ENDBRANCH   9  35
TORSDOF 8
ENDMDL
MODEL 5
REMARK VINA RESULT:      -7.5      4.985      8.389
REMARK  Name = 
REMARK  9 active torsions:
REMARK  status: ('A' for Active; 'I' for Inactive)
REMARK    1  A    between atoms: C_1  and  C_2
REMARK    2  A    between atoms: C_3  and  C_4
REMARK    3  A    between atoms: C_11  and  C_12
REMARK    4  A    between atoms: C_15  and  O_16
REMARK    5  A    between atoms: O_16  and  C_17
REMARK    6  A    between atoms: C_17  and  C_18
REMARK    7  A    between atoms: C_18  and  N_19
REMARK    8  A    between atoms: C_21  and  C_22
REMARK    9  A    between atoms: C_31  and  O_32
REMARK                            x       y       z     vdW  Elec       q    Type
REMARK                         _______ _______ _______ _____ _____    ______ ____
ROOT
ATOM      1  C   UNL     1       4.169   2.150  16.933  0.00  0.00    +0.000 C 
ATOM      2  C   UNL     1       4.027   3.596  17.328  0.00  0.00    +0.000 C 
ATOM      3  C   UNL     1       4.587   4.624  16.657  0.00  0.00    +0.000 C 
ATOM      4  C   UNL     1       4.445   6.071  17.105  0.00  0.00    +0.000 C 
ATOM      5  O   UNL     1       3.522   6.332  18.170  0.00  0.00    +0.000 OA
ATOM      6  C   UNL     1       3.057   5.276  18.896  0.00  0.00    +0.000 A 
ATOM      7  C   UNL     1       2.327   5.645  20.035  0.00  0.00    +0.000 A 
ATOM      8  C   UNL     1       1.746   4.680  20.852  0.00  0.00    +0.000 A 
ATOM      9  C   UNL     1       1.893   3.343  20.505  0.00  0.00    +0.000 A 
ATOM     10  C   UNL     1       2.627   2.975  19.370  0.00  0.00    +0.000 A 
ATOM     11  F   UNL     1       2.720   1.666  19.087  0.00  0.00    +0.000 F 
ATOM     12  C   UNL     1       3.239   3.933  18.541  0.00  0.00    +0.000 A 
ENDROOT
BRANCH   3  13
ATOM     13  C   UNL     1       5.353   4.424  15.402  0.00  0.00    +0.000 A 
ATOM     14  C   UNL     1       4.709   3.957  14.248  0.00  0.00    +0.000 A 
ATOM     15  C   UNL     1       5.424   3.794  13.059  0.00  0.00    +0.000 A 
ATOM     16  C   UNL     1       6.779   4.106  13.019  0.00  0.00    +0.000 A 
ATOM     17  F   UNL     1       7.458   3.968  11.873  0.00  0.00    +0.000 F 
ATOM     18  C   UNL     1       7.439   4.554  14.152  0.00  0.00    +0.000 A 
ATOM     19  C   UNL     1       6.731   4.690  15.347  0.00  0.00    +0.000 A 
ENDBRANCH   3  13
BRANCH   4  20
ATOM     20  C   UNL     1       5.743   6.759  17.504  0.00  0.00    +0.000 A 
ATOM     21  C   UNL     1       6.651   6.061  18.306  0.00  0.00    +0.000 A 
ATOM     22  C   UNL     1       7.833   6.664  18.731  0.00  0.00    +0.000 A 
ATOM     23  C   UNL     1       8.125   7.985  18.380  0.00  0.00    +0.000 A 
ATOM     24  C   UNL     1       7.245   8.678  17.554  0.00  0.00    +0.000 A 
ATOM     25  C   UNL     1       6.089   8.052  17.079  0.00  0.00    +0.000 A 
BRANCH  23  26
ATOM     26  O   UNL     1       9.239   8.681  18.783  0.00  0.00    +0.000 OA
BRANCH  26  27
ATOM     27  C   UNL     1       9.172  10.083  18.519  0.00  0.00    +0.000 C 
BRANCH  27  28
ATOM     28  C   UNL     1       9.668  10.897  19.713  0.00  0.00    +0.000 C 
BRANCH  28  29
ATOM     29  N   UNL     1       9.905  12.276  19.266  0.00  0.00    +0.000 NA
ATOM     30  C   UNL     1      11.115  12.367  18.415  0.00  0.00    +0.000 C 
ATOM     31  C   UNL     1      10.321  13.347  17.516  0.00  0.00    +0.000 C 
ATOM     32  C   UNL     1       9.080  12.610  18.070  0.00  0.00    +0.000 C 
BRANCH  31  33
ATOM     33  C   UNL     1      10.418  14.813  17.885  0.00  0.00    +0.000 C 
ATOM     34  F   UNL     1      11.436  15.358  17.163  0.00  0.00    +0.000 F 
ENDBRANCH  31  33
ENDBRANCH  28  29
ENDBRANCH  27  28
ENDBRANCH  26  27
ENDBRANCH  23  26
ENDBRANCH   4  20
BRANCH   9  35
ATOM     35  O   UNL     1       1.318   2.363  21.266  0.00  0.00    +0.000 OA
ATOM     36  H   UNL     1       0.488   2.701  21.652  0.00  0.00    +0.000 HD
ENDBRANCH   9  35
TORSDOF 8
ENDMDL
MODEL 6
REMARK VINA RESULT:      -7.4      3.170     10.274
REMARK  Name = 
REMARK  9 active torsions:
REMARK  status: ('A' for Active; 'I' for Inactive)
REMARK    1  A    between atoms: C_1  and  C_2
REMARK    2  A    between atoms: C_3  and  C_4
REMARK    3  A    between atoms: C_11  and  C_12
REMARK    4  A    between atoms: C_15  and  O_16
REMARK    5  A    between atoms: O_16  and  C_17
REMARK    6  A    between atoms: C_17  and  C_18
REMARK    7  A    between atoms: C_18  and  N_19
REMARK    8  A    between atoms: C_21  and  C_22
REMARK    9  A    between atoms: C_31  and  O_32
REMARK                            x       y       z     vdW  Elec       q    Type
REMARK                         _______ _______ _______ _____ _____    ______ ____
ROOT
ATOM      1  C   UNL     1      -4.254  12.100  19.798  0.00  0.00    +0.000 C 
ATOM      2  C   UNL     1      -2.757  12.244  19.857  0.00  0.00    +0.000 C 
ATOM      3  C   UNL     1      -1.911  11.767  18.921  0.00  0.00    +0.000 C 
ATOM      4  C   UNL     1      -0.400  11.907  19.032  0.00  0.00    +0.000 C 
ATOM      5  O   UNL     1       0.097  12.746  20.082  0.00  0.00    +0.000 OA
ATOM      6  C   UNL     1      -0.763  13.124  21.070  0.00  0.00    +0.000 A 
ATOM      7  C   UNL     1      -0.142  13.767  22.151  0.00  0.00    +0.000 A 
ATOM      8  C   UNL     1      -0.894  14.255  23.215  0.00  0.00    +0.000 A 
ATOM      9  C   UNL     1      -2.273  14.105  23.176  0.00  0.00    +0.000 A 
ATOM     10  C   UNL     1      -2.892  13.457  22.100  0.00  0.00    +0.000 A 
ATOM     11  F   UNL     1      -4.231  13.356  22.121  0.00  0.00    +0.000 F 
ATOM     12  C   UNL     1      -2.151  12.939  21.022  0.00  0.00    +0.000 A 
ENDROOT
BRANCH   3  13
ATOM     13  C   UNL     1      -2.394  11.101  17.687  0.00  0.00    +0.000 A 
ATOM     14  C   UNL     1      -2.568  11.840  16.508  0.00  0.00    +0.000 A 
ATOM     15  C   UNL     1      -2.998  11.208  15.337  0.00  0.00    +0.000 A 
ATOM     16  C   UNL     1      -3.243   9.839  15.341  0.00  0.00    +0.000 A 
ATOM     17  F   UNL     1      -3.635   9.233  14.213  0.00  0.00    +0.000 F 
ATOM     18  C   UNL     1      -3.093   9.093  16.499  0.00  0.00    +0.000 A 
ATOM     19  C   UNL     1      -2.690   9.728  17.675  0.00  0.00    +0.000 A 
ENDBRANCH   3  13
BRANCH   4  20
ATOM     20  C   UNL     1       0.368  10.598  19.149  0.00  0.00    +0.000 A 
ATOM     21  C   UNL     1       0.363   9.926  20.375  0.00  0.00    +0.000 A 
ATOM     22  C   UNL     1       1.085   8.747  20.542  0.00  0.00    +0.000 A 
ATOM     23  C   UNL     1       1.845   8.223  19.493  0.00  0.00    +0.000 A 
ATOM     24  C   UNL     1       1.831   8.864  18.258  0.00  0.00    +0.000 A 
ATOM     25  C   UNL     1       1.058  10.015  18.074  0.00  0.00    +0.000 A 
BRANCH  23  26
ATOM     26  O   UNL     1       2.624   7.093  19.570  0.00  0.00    +0.000 OA
BRANCH  26  27
ATOM     27  C   UNL     1       3.168   6.679  18.316  0.00  0.00    +0.000 C 
BRANCH  27  28
ATOM     28  C   UNL     1       3.261   5.156  18.226  0.00  0.00    +0.000 C 
BRANCH  28  29
ATOM     29  N   UNL     1       2.807   4.591  19.503  0.00  0.00    +0.000 NA
ATOM     30  C   UNL     1       1.423   4.069  19.402  0.00  0.00    +0.000 C 
ATOM     31  C   UNL     1       1.889   2.868  20.261  0.00  0.00    +0.000 C 
ATOM     32  C   UNL     1       3.285   3.191  19.680  0.00  0.00    +0.000 C 
BRANCH  31  33
ATOM     33  C   UNL     1       1.760   3.036  21.761  0.00  0.00    +0.000 C 
ATOM     34  F   UNL     1       1.464   1.818  22.292  0.00  0.00    +0.000 F 
ENDBRANCH  31  33
ENDBRANCH  28  29
ENDBRANCH  27  28
ENDBRANCH  26  27
ENDBRANCH  23  26
ENDBRANCH   4  20
BRANCH   9  35
ATOM     35  O   UNL     1      -3.052  14.592  24.190  0.00  0.00    +0.000 OA
ATOM     36  H   UNL     1      -3.882  14.081  24.232  0.00  0.00    +0.000 HD
ENDBRANCH   9  35
TORSDOF 8
ENDMDL
MODEL 7
REMARK VINA RESULT:      -7.4      0.704      1.092
REMARK  Name = 
REMARK  9 active torsions:
REMARK  status: ('A' for Active; 'I' for Inactive)
REMARK    1  A    between atoms: C_1  and  C_2
REMARK    2  A    between atoms: C_3  and  C_4
REMARK    3  A    between atoms: C_11  and  C_12
REMARK    4  A    between atoms: C_15  and  O_16
REMARK    5  A    between atoms: O_16  and  C_17
REMARK    6  A    between atoms: C_17  and  C_18
REMARK    7  A    between atoms: C_18  and  N_19
REMARK    8  A    between atoms: C_21  and  C_22
REMARK    9  A    between atoms: C_31  and  O_32
REMARK                            x       y       z     vdW  Elec       q    Type
REMARK                         _______ _______ _______ _____ _____    ______ ____
ROOT
ATOM      1  C   UNL     1       3.663   2.341  17.126  0.00  0.00    +0.000 C 
ATOM      2  C   UNL     1       4.170   3.701  17.525  0.00  0.00    +0.000 C 
ATOM      3  C   UNL     1       3.821   4.338  18.662  0.00  0.00    +0.000 C 
ATOM      4  C   UNL     1       4.333   5.726  19.016  0.00  0.00    +0.000 C 
ATOM      5  O   UNL     1       5.367   6.267  18.183  0.00  0.00    +0.000 OA
ATOM      6  C   UNL     1       5.621   5.658  16.990  0.00  0.00    +0.000 A 
ATOM      7  C   UNL     1       6.499   6.373  16.162  0.00  0.00    +0.000 A 
ATOM      8  C   UNL     1       6.894   5.858  14.931  0.00  0.00    +0.000 A 
ATOM      9  C   UNL     1       6.411   4.614  14.548  0.00  0.00    +0.000 A 
ATOM     10  C   UNL     1       5.530   3.903  15.373  0.00  0.00    +0.000 A 
ATOM     11  F   UNL     1       5.110   2.702  14.946  0.00  0.00    +0.000 F 
ATOM     12  C   UNL     1       5.102   4.413  16.613  0.00  0.00    +0.000 A 
ENDROOT
BRANCH   3  13
ATOM     13  C   UNL     1       2.940   3.712  19.678  0.00  0.00    +0.000 A 
ATOM     14  C   UNL     1       3.494   3.044  20.779  0.00  0.00    +0.000 A 
ATOM     15  C   UNL     1       2.664   2.477  21.750  0.00  0.00    +0.000 A 
ATOM     16  C   UNL     1       1.283   2.586  21.628  0.00  0.00    +0.000 A 
ATOM     17  F   UNL     1       0.491   2.060  22.571  0.00  0.00    +0.000 F 
ATOM     18  C   UNL     1       0.714   3.229  20.540  0.00  0.00    +0.000 A 
ATOM     19  C   UNL     1       1.542   3.771  19.555  0.00  0.00    +0.000 A 
ENDBRANCH   3  13
BRANCH   4  20
ATOM     20  C   UNL     1       3.267   6.809  19.108  0.00  0.00    +0.000 A 
ATOM     21  C   UNL     1       3.049   7.629  17.996  0.00  0.00    +0.000 A 
ATOM     22  C   UNL     1       2.113   8.660  18.048  0.00  0.00    +0.000 A 
ATOM     23  C   UNL     1       1.389   8.907  19.217  0.00  0.00    +0.000 A 
ATOM     24  C   UNL     1       1.573   8.076  20.318  0.00  0.00    +0.000 A 
ATOM     25  C   UNL     1       2.468   7.005  20.246  0.00  0.00    +0.000 A 
BRANCH  23  26
ATOM     26  O   UNL     1       0.478   9.923  19.382  0.00  0.00    +0.000 OA
BRANCH  26  27
ATOM     27  C   UNL     1       0.033  10.505  18.155  0.00  0.00    +0.000 C 
BRANCH  27  28
ATOM     28  C   UNL     1      -1.442  10.896  18.230  0.00  0.00    +0.000 C 
BRANCH  28  29
ATOM     29  N   UNL     1      -2.017  10.789  16.883  0.00  0.00    +0.000 NA
ATOM     30  C   UNL     1      -2.617   9.453  16.656  0.00  0.00    +0.000 C 
ATOM     31  C   UNL     1      -3.779  10.176  15.932  0.00  0.00    +0.000 C 
ATOM     32  C   UNL     1      -3.386  11.376  16.826  0.00  0.00    +0.000 C 
BRANCH  31  33
ATOM     33  C   UNL     1      -3.601  10.395  14.444  0.00  0.00    +0.000 C 
ATOM     34  F   UNL     1      -4.503   9.607  13.796  0.00  0.00    +0.000 F 
ENDBRANCH  31  33
ENDBRANCH  28  29
ENDBRANCH  27  28
ENDBRANCH  26  27
ENDBRANCH  23  26
ENDBRANCH   4  20
BRANCH   9  35
ATOM     35  O   UNL     1       6.793   4.059  13.358  0.00  0.00    +0.000 OA
ATOM     36  H   UNL     1       7.372   3.294  13.530  0.00  0.00    +0.000 HD
ENDBRANCH   9  35
TORSDOF 8
ENDMDL
MODEL 8
REMARK VINA RESULT:      -7.4      3.930      7.520
REMARK  Name = 
REMARK  9 active torsions:
REMARK  status: ('A' for Active; 'I' for Inactive)
REMARK    1  A    between atoms: C_1  and  C_2
REMARK    2  A    between atoms: C_3  and  C_4
REMARK    3  A    between atoms: C_11  and  C_12
REMARK    4  A    between atoms: C_15  and  O_16
REMARK    5  A    between atoms: O_16  and  C_17
REMARK    6  A    between atoms: C_17  and  C_18
REMARK    7  A    between atoms: C_18  and  N_19
REMARK    8  A    between atoms: C_21  and  C_22
REMARK    9  A    between atoms: C_31  and  O_32
REMARK                            x       y       z     vdW  Elec       q    Type
REMARK                         _______ _______ _______ _____ _____    ______ ____
ROOT
ATOM      1  C   UNL     1       0.885   8.974  22.463  0.00  0.00    +0.000 C 
ATOM      2  C   UNL     1       0.858   9.401  21.021  0.00  0.00    +0.000 C 
ATOM      3  C   UNL     1       0.277  10.535  20.576  0.00  0.00    +0.000 C 
ATOM      4  C   UNL     1       0.245  10.918  19.104  0.00  0.00    +0.000 C 
ATOM      5  O   UNL     1       1.032  10.121  18.209  0.00  0.00    +0.000 OA
ATOM      6  C   UNL     1       1.515   8.929  18.661  0.00  0.00    +0.000 A 
ATOM      7  C   UNL     1       2.093   8.133  17.662  0.00  0.00    +0.000 A 
ATOM      8  C   UNL     1       2.675   6.908  17.975  0.00  0.00    +0.000 A 
ATOM      9  C   UNL     1       2.683   6.498  19.301  0.00  0.00    +0.000 A 
ATOM     10  C   UNL     1       2.100   7.291  20.298  0.00  0.00    +0.000 A 
ATOM     11  F   UNL     1       2.153   6.839  21.561  0.00  0.00    +0.000 F 
ATOM     12  C   UNL     1       1.489   8.524  20.002  0.00  0.00    +0.000 A 
ENDROOT
BRANCH   3  13
ATOM     13  C   UNL     1      -0.340  11.519  21.498  0.00  0.00    +0.000 A 
ATOM     14  C   UNL     1      -1.406  11.140  22.326  0.00  0.00    +0.000 A 
ATOM     15  C   UNL     1      -1.970  12.059  23.215  0.00  0.00    +0.000 A 
ATOM     16  C   UNL     1      -1.464  13.353  23.285  0.00  0.00    +0.000 A 
ATOM     17  F   UNL     1      -1.993  14.226  24.152  0.00  0.00    +0.000 F 
ATOM     18  C   UNL     1      -0.421  13.753  22.464  0.00  0.00    +0.000 A 
ATOM     19  C   UNL     1       0.124  12.843  21.557  0.00  0.00    +0.000 A 
ENDBRANCH   3  13
BRANCH   4  20
ATOM     20  C   UNL     1      -1.142  10.992  18.481  0.00  0.00    +0.000 A 
ATOM     21  C   UNL     1      -1.980  12.053  18.840  0.00  0.00    +0.000 A 
ATOM     22  C   UNL     1      -3.273  12.141  18.328  0.00  0.00    +0.000 A 
ATOM     23  C   UNL     1      -3.764  11.161  17.462  0.00  0.00    +0.000 A 
ATOM     24  C   UNL     1      -2.927  10.119  17.071  0.00  0.00    +0.000 A 
ATOM     25  C   UNL     1      -1.611  10.064  17.538  0.00  0.00    +0.000 A 
BRANCH  23  26
ATOM     26  O   UNL     1      -5.035  11.134  16.939  0.00  0.00    +0.000 OA
BRANCH  26  27
ATOM     27  C   UNL     1      -5.786  12.325  17.184  0.00  0.00    +0.000 C 
BRANCH  27  28
ATOM     28  C   UNL     1      -6.947  12.061  18.142  0.00  0.00    +0.000 C 
BRANCH  28  29
ATOM     29  N   UNL     1      -6.573  12.565  19.469  0.00  0.00    +0.000 NA
ATOM     30  C   UNL     1      -7.707  13.263  20.121  0.00  0.00    +0.000 C 
ATOM     31  C   UNL     1      -7.279  12.575  21.441  0.00  0.00    +0.000 C 
ATOM     32  C   UNL     1      -6.678  11.500  20.506  0.00  0.00    +0.000 C 
BRANCH  31  33
ATOM     33  C   UNL     1      -6.274  13.329  22.287  0.00  0.00    +0.000 C 
ATOM     34  F   UNL     1      -5.132  12.589  22.336  0.00  0.00    +0.000 F 
ENDBRANCH  31  33
ENDBRANCH  28  29
ENDBRANCH  27  28
ENDBRANCH  26  27
ENDBRANCH  23  26
ENDBRANCH   4  20
BRANCH   9  35
ATOM     35  O   UNL     1       3.266   5.313  19.656  0.00  0.00    +0.000 OA
ATOM     36  H   UNL     1       2.596   4.605  19.630  0.00  0.00    +0.000 HD
ENDBRANCH   9  35
TORSDOF 8
ENDMDL
MODEL 9
REMARK VINA RESULT:      -7.4      2.660      3.191
REMARK  Name = 
REMARK  9 active torsions:
REMARK  status: ('A' for Active; 'I' for Inactive)
REMARK    1  A    between atoms: C_1  and  C_2
REMARK    2  A    between atoms: C_3  and  C_4
REMARK    3  A    between atoms: C_11  and  C_12
REMARK    4  A    between atoms: C_15  and  O_16
REMARK    5  A    between atoms: O_16  and  C_17
REMARK    6  A    between atoms: C_17  and  C_18
REMARK    7  A    between atoms: C_18  and  N_19
REMARK    8  A    between atoms: C_21  and  C_22
REMARK    9  A    between atoms: C_31  and  O_32
REMARK                            x       y       z     vdW  Elec       q    Type
REMARK                         _______ _______ _______ _____ _____    ______ ____
ROOT
ATOM      1  C   UNL     1       3.780   2.226  17.204  0.00  0.00    +0.000 C 
ATOM      2  C   UNL     1       4.271   3.607  17.546  0.00  0.00    +0.000 C 
ATOM      3  C   UNL     1       3.888   4.301  18.637  0.00  0.00    +0.000 C 
ATOM      4  C   UNL     1       4.385   5.708  18.933  0.00  0.00    +0.000 C 
ATOM      5  O   UNL     1       5.442   6.209  18.103  0.00  0.00    +0.000 OA
ATOM      6  C   UNL     1       5.732   5.539  16.952  0.00  0.00    +0.000 A 
ATOM      7  C   UNL     1       6.631   6.213  16.112  0.00  0.00    +0.000 A 
ATOM      8  C   UNL     1       7.063   5.636  14.922  0.00  0.00    +0.000 A 
ATOM      9  C   UNL     1       6.595   4.371  14.591  0.00  0.00    +0.000 A 
ATOM     10  C   UNL     1       5.692   3.702  15.427  0.00  0.00    +0.000 A 
ATOM     11  F   UNL     1       5.289   2.477  15.052  0.00  0.00    +0.000 F 
ATOM     12  C   UNL     1       5.227   4.274  16.626  0.00  0.00    +0.000 A 
ENDROOT
BRANCH   3  13
ATOM     13  C   UNL     1       2.979   3.725  19.659  0.00  0.00    +0.000 A 
ATOM     14  C   UNL     1       3.503   3.079  20.788  0.00  0.00    +0.000 A 
ATOM     15  C   UNL     1       2.648   2.561  21.764  0.00  0.00    +0.000 A 
ATOM     16  C   UNL     1       1.271   2.695  21.619  0.00  0.00    +0.000 A 
ATOM     17  F   UNL     1       0.455   2.216  22.565  0.00  0.00    +0.000 F 
ATOM     18  C   UNL     1       0.732   3.316  20.503  0.00  0.00    +0.000 A 
ATOM     19  C   UNL     1       1.584   3.810  19.515  0.00  0.00    +0.000 A 
ENDBRANCH   3  13
BRANCH   4  20
ATOM     20  C   UNL     1       3.314   6.789  18.938  0.00  0.00    +0.000 A 
ATOM     21  C   UNL     1       3.110   7.533  17.771  0.00  0.00    +0.000 A 
ATOM     22  C   UNL     1       2.170   8.561  17.740  0.00  0.00    +0.000 A 
ATOM     23  C   UNL     1       1.428   8.882  18.879  0.00  0.00    +0.000 A 
ATOM     24  C   UNL     1       1.597   8.126  20.036  0.00  0.00    +0.000 A 
ATOM     25  C   UNL     1       2.498   7.056  20.048  0.00  0.00    +0.000 A 
BRANCH  23  26
ATOM     26  O   UNL     1       0.511   9.902  18.963  0.00  0.00    +0.000 OA
BRANCH  26  27
ATOM     27  C   UNL     1       0.812  10.869  19.970  0.00  0.00    +0.000 C 
BRANCH  27  28
ATOM     28  C   UNL     1       0.501  12.286  19.490  0.00  0.00    +0.000 C 
BRANCH  28  29
ATOM     29  N   UNL     1       1.763  13.035  19.416  0.00  0.00    +0.000 NA
ATOM     30  C   UNL     1       2.518  12.700  18.186  0.00  0.00    +0.000 C 
ATOM     31  C   UNL     1       2.858  14.207  18.071  0.00  0.00    +0.000 C 
ATOM     32  C   UNL     1       1.551  14.406  18.873  0.00  0.00    +0.000 C 
BRANCH  31  33
ATOM     33  C   UNL     1       4.122  14.658  18.774  0.00  0.00    +0.000 C 
ATOM     34  F   UNL     1       4.540  15.810  18.183  0.00  0.00    +0.000 F 
ENDBRANCH  31  33
ENDBRANCH  28  29
ENDBRANCH  27  28
ENDBRANCH  26  27
ENDBRANCH  23  26
ENDBRANCH   4  20
BRANCH   9  35
ATOM     35  O   UNL     1       7.013   3.757  13.443  0.00  0.00    +0.000 OA
ATOM     36  H   UNL     1       6.240   3.574  12.876  0.00  0.00    +0.000 HD
ENDBRANCH   9  35
TORSDOF 8
ENDMDL
