MODEL 1
REMARK VINA RESULT:      -8.0      0.000      0.000
REMARK  Name = 
REMARK  11 active torsions:
REMARK  status: ('A' for Active; 'I' for Inactive)
REMARK    1  A    between atoms: C_1  and  C_2
REMARK    2  A    between atoms: C_2  and  C_3
REMARK    3  A    between atoms: C_3  and  S_4
REMARK    4  A    between atoms: S_4  and  N_7
REMARK    5  A    between atoms: C_13  and  N_14
REMARK    6  A    between atoms: N_14  and  S_15
REMARK    7  A    between atoms: S_15  and  C_18
REMARK    8  A    between atoms: C_18  and  C_19
REMARK    9  A    between atoms: C_19  and  C_20
REMARK   10  A    between atoms: C_23  and  O_24
REMARK   11  A    between atoms: O_24  and  C_25
REMARK                            x       y       z     vdW  Elec       q    Type
REMARK                         _______ _______ _______ _____ _____    ______ ____
ROOT
ATOM      1  N   UNL     1       0.032  10.981  20.426  0.00  0.00    +0.000 N 
ATOM      2  C   UNL     1      -0.269  11.516  21.776  0.00  0.00    +0.000 C 
ATOM      3  C   UNL     1      -0.902  10.432  22.636  0.00  0.00    +0.000 C 
ATOM      4  C   UNL     1       0.028   9.237  22.766  0.00  0.00    +0.000 C 
ATOM      5  C   UNL     1       0.674   8.838  21.464  0.00  0.00    +0.000 A 
ATOM      6  C   UNL     1       1.366   7.612  21.418  0.00  0.00    +0.000 A 
ATOM      7  C   UNL     1       2.049   7.225  20.272  0.00  0.00    +0.000 A 
ATOM      8  C   UNL     1       2.055   8.049  19.162  0.00  0.00    +0.000 A 
ATOM      9  C   UNL     1       1.348   9.251  19.195  0.00  0.00    +0.000 A 
ATOM     10  C   UNL     1       0.656   9.678  20.336  0.00  0.00    +0.000 A 
ENDROOT
BRANCH   1  11
ATOM     11  S   UNL     1      -0.626  11.772  19.077  0.00  0.00    +0.000 S 
ATOM     12  O   UNL     1       0.421  12.546  18.436  0.00  0.00    +0.000 OA
ATOM     13  O   UNL     1      -1.872  12.404  19.465  0.00  0.00    +0.000 OA
BRANCH  11  14
ATOM     14  C   UNL     1      -1.007  10.415  17.957  0.00  0.00    +0.000 C 
BRANCH  14  16
ATOM     15  C   UNL     1      -3.040   9.926  16.566  0.00  0.00    +0.000 C 
ATOM     16  C   UNL     1      -2.493  10.080  17.977  0.00  0.00    +0.000 C 
ENDBRANCH  14  16
ENDBRANCH  11  14
ENDBRANCH   1  11
BRANCH   7  17
ATOM     17  N   UNL     1       2.805   6.024  20.275  0.00  0.00    +0.000 N 
ATOM     18  H   UNL     1       3.344   5.843  21.125  0.00  0.00    +0.000 HD
BRANCH  17  19
ATOM     19  S   UNL     1       2.001   4.620  19.791  0.00  0.00    +0.000 S 
ATOM     20  O   UNL     1       2.908   3.527  20.114  0.00  0.00    +0.000 OA
ATOM     21  O   UNL     1       0.645   4.617  20.278  0.00  0.00    +0.000 OA
BRANCH  19  22
ATOM     22  C   UNL     1       1.985   4.814  18.019  0.00  0.00    +0.000 C 
BRANCH  22  23
ATOM     23  C   UNL     1       3.089   3.984  17.376  0.00  0.00    +0.000 C 
BRANCH  23  24
ATOM     24  C   UNL     1       4.360   4.767  17.194  0.00  0.00    +0.000 A 
ATOM     25  C   UNL     1       4.340   6.166  17.218  0.00  0.00    +0.000 A 
ATOM     26  C   UNL     1       5.524   6.888  17.059  0.00  0.00    +0.000 A 
ATOM     27  C   UNL     1       6.740   6.224  16.897  0.00  0.00    +0.000 A 
ATOM     28  C   UNL     1       6.765   4.831  16.855  0.00  0.00    +0.000 A 
ATOM     29  C   UNL     1       5.578   4.107  17.002  0.00  0.00    +0.000 A 
BRANCH  27  30
ATOM     30  O   UNL     1       7.829   7.039  16.745  0.00  0.00    +0.000 OA
ATOM     31  C   UNL     1       7.816   8.234  17.517  0.00  0.00    +0.000 C 
ENDBRANCH  27  30
ENDBRANCH  23  24
ENDBRANCH  22  23
ENDBRANCH  19  22
ENDBRANCH  17  19
ENDBRANCH   7  17
TORSDOF 9
ENDMDL
MODEL 2
REMARK VINA RESULT:      -7.9      1.415      1.780
REMARK  Name = 
REMARK  11 active torsions:
REMARK  status: ('A' for Active; 'I' for Inactive)
REMARK    1  A    between atoms: C_1  and  C_2
REMARK    2  A    between atoms: C_2  and  C_3
REMARK    3  A    between atoms: C_3  and  S_4
REMARK    4  A    between atoms: S_4  and  N_7
REMARK    5  A    between atoms: C_13  and  N_14
REMARK    6  A    between atoms: N_14  and  S_15
REMARK    7  A    between atoms: S_15  and  C_18
REMARK    8  A    between atoms: C_18  and  C_19
REMARK    9  A    between atoms: C_19  and  C_20
REMARK   10  A    between atoms: C_23  and  O_24
REMARK   11  A    between atoms: O_24  and  C_25
REMARK                            x       y       z     vdW  Elec       q    Type
REMARK                         _______ _______ _______ _____ _____    ______ ____
ROOT
ATOM      1  N   UNL     1       0.033  10.906  20.280  0.00  0.00    +0.000 N 
ATOM      2  C   UNL     1      -0.182  11.442  21.647  0.00  0.00    +0.000 C 
ATOM      3  C   UNL     1      -0.680  10.336  22.566  0.00  0.00    +0.000 C 
ATOM      4  C   UNL     1       0.321   9.194  22.626  0.00  0.00    +0.000 C 
ATOM      5  C   UNL     1       0.875   8.814  21.277  0.00  0.00    +0.000 A 
ATOM      6  C   UNL     1       1.626   7.626  21.182  0.00  0.00    +0.000 A 
ATOM      7  C   UNL     1       2.230   7.262  19.985  0.00  0.00    +0.000 A 
ATOM      8  C   UNL     1       2.098   8.071  18.872  0.00  0.00    +0.000 A 
ATOM      9  C   UNL     1       1.331   9.233  18.955  0.00  0.00    +0.000 A 
ATOM     10  C   UNL     1       0.716   9.637  20.148  0.00  0.00    +0.000 A 
ENDROOT
BRANCH   1  11
ATOM     11  S   UNL     1      -0.779  11.645  18.986  0.00  0.00    +0.000 S 
ATOM     12  O   UNL     1      -1.624  10.655  18.343  0.00  0.00    +0.000 OA
ATOM     13  O   UNL     1       0.176  12.410  18.208  0.00  0.00    +0.000 OA
BRANCH  11  14
ATOM     14  C   UNL     1      -1.889  12.797  19.809  0.00  0.00    +0.000 C 
BRANCH  14  16
ATOM     15  C   UNL     1      -4.165  12.878  20.869  0.00  0.00    +0.000 C 
ATOM     16  C   UNL     1      -3.338  12.336  19.712  0.00  0.00    +0.000 C 
ENDBRANCH  14  16
ENDBRANCH  11  14
ENDBRANCH   1  11
BRANCH   7  17
ATOM     17  N   UNL     1       3.047   6.103  19.933  0.00  0.00    +0.000 N 
ATOM     18  H   UNL     1       3.797   6.059  20.628  0.00  0.00    +0.000 HD
BRANCH  17  19
ATOM     19  S   UNL     1       2.251   4.616  19.849  0.00  0.00    +0.000 S 
ATOM     20  O   UNL     1       1.755   4.369  21.197  0.00  0.00    +0.000 OA
ATOM     21  O   UNL     1       1.357   4.580  18.721  0.00  0.00    +0.000 OA
BRANCH  19  22
ATOM     22  C   UNL     1       3.611   3.502  19.555  0.00  0.00    +0.000 C 
BRANCH  22  23
ATOM     23  C   UNL     1       3.979   3.478  18.077  0.00  0.00    +0.000 C 
BRANCH  23  24
ATOM     24  C   UNL     1       4.948   4.568  17.712  0.00  0.00    +0.000 A 
ATOM     25  C   UNL     1       6.090   4.790  18.490  0.00  0.00    +0.000 A 
ATOM     26  C   UNL     1       6.993   5.796  18.141  0.00  0.00    +0.000 A 
ATOM     27  C   UNL     1       6.778   6.575  17.003  0.00  0.00    +0.000 A 
ATOM     28  C   UNL     1       5.634   6.370  16.234  0.00  0.00    +0.000 A 
ATOM     29  C   UNL     1       4.723   5.371  16.589  0.00  0.00    +0.000 A 
BRANCH  27  30
ATOM     30  O   UNL     1       7.727   7.532  16.769  0.00  0.00    +0.000 OA
ATOM     31  C   UNL     1       8.114   8.306  17.899  0.00  0.00    +0.000 C 
ENDBRANCH  27  30
ENDBRANCH  23  24
ENDBRANCH  22  23
ENDBRANCH  19  22
ENDBRANCH  17  19
ENDBRANCH   7  17
TORSDOF 9
ENDMDL
MODEL 3
REMARK VINA RESULT:      -7.9      2.045      3.127
REMARK  Name = 
REMARK  11 active torsions:
REMARK  status: ('A' for Active; 'I' for Inactive)
REMARK    1  A    between atoms: C_1  and  C_2
REMARK    2  A    between atoms: C_2  and  C_3
REMARK    3  A    between atoms: C_3  and  S_4
REMARK    4  A    between atoms: S_4  and  N_7
REMARK    5  A    between atoms: C_13  and  N_14
REMARK    6  A    between atoms: N_14  and  S_15
REMARK    7  A    between atoms: S_15  and  C_18
REMARK    8  A    between atoms: C_18  and  C_19
REMARK    9  A    between atoms: C_19  and  C_20
REMARK   10  A    between atoms: C_23  and  O_24
REMARK   11  A    between atoms: O_24  and  C_25
REMARK                            x       y       z     vdW  Elec       q    Type
REMARK                         _______ _______ _______ _____ _____    ______ ____
ROOT
ATOM      1  N   UNL     1       1.012   9.740  19.876  0.00  0.00    +0.000 N 
ATOM      2  C   UNL     1       1.032  10.453  18.576  0.00  0.00    +0.000 C 
ATOM      3  C   UNL     1       2.347  10.187  17.857  0.00  0.00    +0.000 C 
ATOM      4  C   UNL     1       2.537   8.698  17.616  0.00  0.00    +0.000 C 
ATOM      5  C   UNL     1       2.184   7.850  18.811  0.00  0.00    +0.000 A 
ATOM      6  C   UNL     1       2.540   6.488  18.782  0.00  0.00    +0.000 A 
ATOM      7  C   UNL     1       2.174   5.636  19.817  0.00  0.00    +0.000 A 
ATOM      8  C   UNL     1       1.449   6.125  20.888  0.00  0.00    +0.000 A 
ATOM      9  C   UNL     1       1.120   7.479  20.933  0.00  0.00    +0.000 A 
ATOM     10  C   UNL     1       1.464   8.365  19.904  0.00  0.00    +0.000 A 
ENDROOT
BRANCH   1  11
ATOM     11  S   UNL     1       0.748  10.642  21.289  0.00  0.00    +0.000 S 
ATOM     12  O   UNL     1       1.487  11.887  21.188  0.00  0.00    +0.000 OA
ATOM     13  O   UNL     1       0.923   9.777  22.438  0.00  0.00    +0.000 OA
BRANCH  11  14
ATOM     14  C   UNL     1      -0.994  11.079  21.171  0.00  0.00    +0.000 C 
BRANCH  14  16
ATOM     15  C   UNL     1      -2.130  11.717  23.319  0.00  0.00    +0.000 C 
ATOM     16  C   UNL     1      -1.344  12.221  22.117  0.00  0.00    +0.000 C 
ENDBRANCH  14  16
ENDBRANCH  11  14
ENDBRANCH   1  11
BRANCH   7  17
ATOM     17  N   UNL     1       2.474   4.252  19.729  0.00  0.00    +0.000 N 
ATOM     18  H   UNL     1       2.426   3.733  20.610  0.00  0.00    +0.000 HD
BRANCH  17  19
ATOM     19  S   UNL     1       1.698   3.383  18.506  0.00  0.00    +0.000 S 
ATOM     20  O   UNL     1       0.874   2.399  19.196  0.00  0.00    +0.000 OA
ATOM     21  O   UNL     1       1.117   4.276  17.537  0.00  0.00    +0.000 OA
BRANCH  19  22
ATOM     22  C   UNL     1       3.069   2.521  17.760  0.00  0.00    +0.000 C 
BRANCH  22  23
ATOM     23  C   UNL     1       4.362   2.814  18.509  0.00  0.00    +0.000 C 
BRANCH  23  24
ATOM     24  C   UNL     1       5.049   4.051  17.999  0.00  0.00    +0.000 A 
ATOM     25  C   UNL     1       5.880   4.799  18.841  0.00  0.00    +0.000 A 
ATOM     26  C   UNL     1       6.525   5.939  18.359  0.00  0.00    +0.000 A 
ATOM     27  C   UNL     1       6.364   6.334  17.030  0.00  0.00    +0.000 A 
ATOM     28  C   UNL     1       5.524   5.604  16.191  0.00  0.00    +0.000 A 
ATOM     29  C   UNL     1       4.870   4.467  16.675  0.00  0.00    +0.000 A 
BRANCH  27  30
ATOM     30  O   UNL     1       7.040   7.470  16.677  0.00  0.00    +0.000 OA
ATOM     31  C   UNL     1       7.820   8.067  17.707  0.00  0.00    +0.000 C 
ENDBRANCH  27  30
ENDBRANCH  23  24
ENDBRANCH  22  23
ENDBRANCH  19  22
ENDBRANCH  17  19
ENDBRANCH   7  17
TORSDOF 9
ENDMDL
MODEL 4
REMARK VINA RESULT:      -7.9      1.544      1.976
REMARK  Name = 
REMARK  11 active torsions:
REMARK  status: ('A' for Active; 'I' for Inactive)
REMARK    1  A    between atoms: C_1  and  C_2
REMARK    2  A    between atoms: C_2  and  C_3
REMARK    3  A    between atoms: C_3  and  S_4
REMARK    4  A    between atoms: S_4  and  N_7
REMARK    5  A    between atoms: C_13  and  N_14
REMARK    6  A    between atoms: N_14  and  S_15
REMARK    7  A    between atoms: S_15  and  C_18
REMARK    8  A    between atoms: C_18  and  C_19
REMARK    9  A    between atoms: C_19  and  C_20
REMARK   10  A    between atoms: C_23  and  O_24
REMARK   11  A    between atoms: O_24  and  C_25
REMARK                            x       y       z     vdW  Elec       q    Type
REMARK                         _______ _______ _______ _____ _____    ______ ____
ROOT
ATOM      1  N   UNL     1      -0.206  11.148  20.558  0.00  0.00    +0.000 N 
ATOM      2  C   UNL     1      -0.420  11.693  21.921  0.00  0.00    +0.000 C 
ATOM      3  C   UNL     1      -0.921  10.594  22.847  0.00  0.00    +0.000 C 
ATOM      4  C   UNL     1       0.077   9.449  22.914  0.00  0.00    +0.000 C 
ATOM      5  C   UNL     1       0.630   9.060  21.567  0.00  0.00    +0.000 A 
ATOM      6  C   UNL     1       1.377   7.869  21.480  0.00  0.00    +0.000 A 
ATOM      7  C   UNL     1       1.981   7.496  20.285  0.00  0.00    +0.000 A 
ATOM      8  C   UNL     1       1.851   8.299  19.167  0.00  0.00    +0.000 A 
ATOM      9  C   UNL     1       1.087   9.464  19.243  0.00  0.00    +0.000 A 
ATOM     10  C   UNL     1       0.473   9.877  20.433  0.00  0.00    +0.000 A 
ENDROOT
BRANCH   1  11
ATOM     11  S   UNL     1      -1.016  11.881  19.259  0.00  0.00    +0.000 S 
ATOM     12  O   UNL     1      -1.893  10.900  18.647  0.00  0.00    +0.000 OA
ATOM     13  O   UNL     1      -0.053  12.607  18.455  0.00  0.00    +0.000 OA
BRANCH  11  14
ATOM     14  C   UNL     1      -2.087  13.077  20.072  0.00  0.00    +0.000 C 
BRANCH  14  16
ATOM     15  C   UNL     1      -4.243  13.013  21.359  0.00  0.00    +0.000 C 
ATOM     16  C   UNL     1      -3.538  12.613  20.072  0.00  0.00    +0.000 C 
ENDBRANCH  14  16
ENDBRANCH  11  14
ENDBRANCH   1  11
BRANCH   7  17
ATOM     17  N   UNL     1       2.795   6.335  20.240  0.00  0.00    +0.000 N 
ATOM     18  H   UNL     1       3.654   6.376  20.793  0.00  0.00    +0.000 HD
BRANCH  17  19
ATOM     19  S   UNL     1       2.020   4.855  20.488  0.00  0.00    +0.000 S 
ATOM     20  O   UNL     1       2.513   4.372  21.771  0.00  0.00    +0.000 OA
ATOM     21  O   UNL     1       0.605   4.974  20.244  0.00  0.00    +0.000 OA
BRANCH  19  22
ATOM     22  C   UNL     1       2.752   3.853  19.207  0.00  0.00    +0.000 C 
BRANCH  22  23
ATOM     23  C   UNL     1       2.548   4.491  17.840  0.00  0.00    +0.000 C 
BRANCH  23  24
ATOM     24  C   UNL     1       3.846   4.715  17.115  0.00  0.00    +0.000 A 
ATOM     25  C   UNL     1       4.354   6.009  16.955  0.00  0.00    +0.000 A 
ATOM     26  C   UNL     1       5.566   6.210  16.291  0.00  0.00    +0.000 A 
ATOM     27  C   UNL     1       6.292   5.125  15.799  0.00  0.00    +0.000 A 
ATOM     28  C   UNL     1       5.783   3.836  15.940  0.00  0.00    +0.000 A 
ATOM     29  C   UNL     1       4.565   3.633  16.595  0.00  0.00    +0.000 A 
BRANCH  27  30
ATOM     30  O   UNL     1       7.459   5.449  15.162  0.00  0.00    +0.000 OA
ATOM     31  C   UNL     1       7.499   5.164  13.768  0.00  0.00    +0.000 C 
ENDBRANCH  27  30
ENDBRANCH  23  24
ENDBRANCH  22  23
ENDBRANCH  19  22
ENDBRANCH  17  19
ENDBRANCH   7  17
TORSDOF 9
ENDMDL
MODEL 5
REMARK VINA RESULT:      -7.8      1.358      1.878
REMARK  Name = 
REMARK  11 active torsions:
REMARK  status: ('A' for Active; 'I' for Inactive)
REMARK    1  A    between atoms: C_1  and  C_2
REMARK    2  A    between atoms: C_2  and  C_3
REMARK    3  A    between atoms: C_3  and  S_4
REMARK    4  A    between atoms: S_4  and  N_7
REMARK    5  A    between atoms: C_13  and  N_14
REMARK    6  A    between atoms: N_14  and  S_15
REMARK    7  A    between atoms: S_15  and  C_18
REMARK    8  A    between atoms: C_18  and  C_19
REMARK    9  A    between atoms: C_19  and  C_20
REMARK   10  A    between atoms: C_23  and  O_24
REMARK   11  A    between atoms: O_24  and  C_25
REMARK                            x       y       z     vdW  Elec       q    Type
REMARK                         _______ _______ _______ _____ _____    ______ ____
ROOT
ATOM      1  N   UNL     1      -0.125  11.132  20.401  0.00  0.00    +0.000 N 
ATOM      2  C   UNL     1      -0.353  11.612  21.786  0.00  0.00    +0.000 C 
ATOM      3  C   UNL     1      -0.857  10.470  22.656  0.00  0.00    +0.000 C 
ATOM      4  C   UNL     1       0.145   9.327  22.679  0.00  0.00    +0.000 C 
ATOM      5  C   UNL     1       0.711   9.002  21.320  0.00  0.00    +0.000 A 
ATOM      6  C   UNL     1       1.465   7.820  21.185  0.00  0.00    +0.000 A 
ATOM      7  C   UNL     1       2.081   7.505  19.980  0.00  0.00    +0.000 A 
ATOM      8  C   UNL     1       1.957   8.358  18.899  0.00  0.00    +0.000 A 
ATOM      9  C   UNL     1       1.188   9.515  19.022  0.00  0.00    +0.000 A 
ATOM     10  C   UNL     1       0.561   9.870  20.224  0.00  0.00    +0.000 A 
ENDROOT
BRANCH   1  11
ATOM     11  S   UNL     1      -0.926  11.920  19.130  0.00  0.00    +0.000 S 
ATOM     12  O   UNL     1       0.035  12.737  18.411  0.00  0.00    +0.000 OA
ATOM     13  O   UNL     1      -2.151  12.506  19.639  0.00  0.00    +0.000 OA
BRANCH  11  14
ATOM     14  C   UNL     1      -1.364  10.568  18.026  0.00  0.00    +0.000 C 
BRANCH  14  16
ATOM     15  C   UNL     1      -3.783  10.196  17.458  0.00  0.00    +0.000 C 
ATOM     16  C   UNL     1      -2.513  10.955  17.103  0.00  0.00    +0.000 C 
ENDBRANCH  14  16
ENDBRANCH  11  14
ENDBRANCH   1  11
BRANCH   7  17
ATOM     17  N   UNL     1       2.900   6.350  19.889  0.00  0.00    +0.000 N 
ATOM     18  H   UNL     1       3.456   6.136  20.720  0.00  0.00    +0.000 HD
BRANCH  17  19
ATOM     19  S   UNL     1       2.168   4.944  19.307  0.00  0.00    +0.000 S 
ATOM     20  O   UNL     1       1.215   4.552  20.337  0.00  0.00    +0.000 OA
ATOM     21  O   UNL     1       1.742   5.119  17.942  0.00  0.00    +0.000 OA
BRANCH  19  22
ATOM     22  C   UNL     1       3.528   3.791  19.353  0.00  0.00    +0.000 C 
BRANCH  22  23
ATOM     23  C   UNL     1       4.860   4.529  19.360  0.00  0.00    +0.000 C 
BRANCH  23  24
ATOM     24  C   UNL     1       5.473   4.612  17.989  0.00  0.00    +0.000 A 
ATOM     25  C   UNL     1       4.919   3.898  16.920  0.00  0.00    +0.000 A 
ATOM     26  C   UNL     1       5.485   3.988  15.648  0.00  0.00    +0.000 A 
ATOM     27  C   UNL     1       6.594   4.805  15.423  0.00  0.00    +0.000 A 
ATOM     28  C   UNL     1       7.161   5.505  16.486  0.00  0.00    +0.000 A 
ATOM     29  C   UNL     1       6.602   5.407  17.764  0.00  0.00    +0.000 A 
BRANCH  27  30
ATOM     30  O   UNL     1       7.062   4.805  14.137  0.00  0.00    +0.000 OA
ATOM     31  C   UNL     1       6.403   3.917  13.242  0.00  0.00    +0.000 C 
ENDBRANCH  27  30
ENDBRANCH  23  24
ENDBRANCH  22  23
ENDBRANCH  19  22
ENDBRANCH  17  19
ENDBRANCH   7  17
TORSDOF 9
ENDMDL
MODEL 6
REMARK VINA RESULT:      -7.8      1.233      1.430
REMARK  Name = 
REMARK  11 active torsions:
REMARK  status: ('A' for Active; 'I' for Inactive)
REMARK    1  A    between atoms: C_1  and  C_2
REMARK    2  A    between atoms: C_2  and  C_3
REMARK    3  A    between atoms: C_3  and  S_4
REMARK    4  A    between atoms: S_4  and  N_7
REMARK    5  A    between atoms: C_13  and  N_14
REMARK    6  A    between atoms: N_14  and  S_15
REMARK    7  A    between atoms: S_15  and  C_18
REMARK    8  A    between atoms: C_18  and  C_19
REMARK    9  A    between atoms: C_19  and  C_20
REMARK   10  A    between atoms: C_23  and  O_24
REMARK   11  A    between atoms: O_24  and  C_25
REMARK                            x       y       z     vdW  Elec       q    Type
REMARK                         _______ _______ _______ _____ _____    ______ ____
ROOT
ATOM      1  N   UNL     1       0.118  10.933  20.195  0.00  0.00    +0.000 N 
ATOM      2  C   UNL     1      -0.076  11.484  21.558  0.00  0.00    +0.000 C 
ATOM      3  C   UNL     1      -0.588  10.396  22.491  0.00  0.00    +0.000 C 
ATOM      4  C   UNL     1       0.392   9.236  22.554  0.00  0.00    +0.000 C 
ATOM      5  C   UNL     1       0.929   8.833  21.204  0.00  0.00    +0.000 A 
ATOM      6  C   UNL     1       1.657   7.632  21.115  0.00  0.00    +0.000 A 
ATOM      7  C   UNL     1       2.246   7.245  19.917  0.00  0.00    +0.000 A 
ATOM      8  C   UNL     1       2.120   8.047  18.798  0.00  0.00    +0.000 A 
ATOM      9  C   UNL     1       1.376   9.224  18.876  0.00  0.00    +0.000 A 
ATOM     10  C   UNL     1       0.777   9.650  20.069  0.00  0.00    +0.000 A 
ENDROOT
BRANCH   1  11
ATOM     11  S   UNL     1      -0.689  11.674  18.900  0.00  0.00    +0.000 S 
ATOM     12  O   UNL     1      -1.384  10.652  18.140  0.00  0.00    +0.000 OA
ATOM     13  O   UNL     1       0.223  12.587  18.239  0.00  0.00    +0.000 OA
BRANCH  11  14
ATOM     14  C   UNL     1      -1.963  12.646  19.720  0.00  0.00    +0.000 C 
BRANCH  14  16
ATOM     15  C   UNL     1      -4.420  12.843  20.204  0.00  0.00    +0.000 C 
ATOM     16  C   UNL     1      -3.356  12.133  19.379  0.00  0.00    +0.000 C 
ENDBRANCH  14  16
ENDBRANCH  11  14
ENDBRANCH   1  11
BRANCH   7  17
ATOM     17  N   UNL     1       3.041   6.071  19.870  0.00  0.00    +0.000 N 
ATOM     18  H   UNL     1       3.812   6.033  20.541  0.00  0.00    +0.000 HD
BRANCH  17  19
ATOM     19  S   UNL     1       2.217   4.597  19.851  0.00  0.00    +0.000 S 
ATOM     20  O   UNL     1       3.080   3.665  20.565  0.00  0.00    +0.000 OA
ATOM     21  O   UNL     1       0.844   4.776  20.248  0.00  0.00    +0.000 OA
BRANCH  19  22
ATOM     22  C   UNL     1       2.276   4.180  18.119  0.00  0.00    +0.000 C 
BRANCH  22  23
ATOM     23  C   UNL     1       3.592   3.497  17.773  0.00  0.00    +0.000 C 
BRANCH  23  24
ATOM     24  C   UNL     1       4.695   4.483  17.508  0.00  0.00    +0.000 A 
ATOM     25  C   UNL     1       4.550   5.459  16.515  0.00  0.00    +0.000 A 
ATOM     26  C   UNL     1       5.573   6.380  16.282  0.00  0.00    +0.000 A 
ATOM     27  C   UNL     1       6.740   6.351  17.046  0.00  0.00    +0.000 A 
ATOM     28  C   UNL     1       6.897   5.370  18.024  0.00  0.00    +0.000 A 
ATOM     29  C   UNL     1       5.879   4.441  18.252  0.00  0.00    +0.000 A 
BRANCH  27  30
ATOM     30  O   UNL     1       7.671   7.298  16.719  0.00  0.00    +0.000 OA
ATOM     31  C   UNL     1       8.021   8.202  17.761  0.00  0.00    +0.000 C 
ENDBRANCH  27  30
ENDBRANCH  23  24
ENDBRANCH  22  23
ENDBRANCH  19  22
ENDBRANCH  17  19
ENDBRANCH   7  17
TORSDOF 9
ENDMDL
MODEL 7
REMARK VINA RESULT:      -7.7      1.567      2.131
REMARK  Name = 
REMARK  11 active torsions:
REMARK  status: ('A' for Active; 'I' for Inactive)
REMARK    1  A    between atoms: C_1  and  C_2
REMARK    2  A    between atoms: C_2  and  C_3
REMARK    3  A    between atoms: C_3  and  S_4
REMARK    4  A    between atoms: S_4  and  N_7
REMARK    5  A    between atoms: C_13  and  N_14
REMARK    6  A    between atoms: N_14  and  S_15
REMARK    7  A    between atoms: S_15  and  C_18
REMARK    8  A    between atoms: C_18  and  C_19
REMARK    9  A    between atoms: C_19  and  C_20
REMARK   10  A    between atoms: C_23  and  O_24
REMARK   11  A    between atoms: O_24  and  C_25
REMARK                            x       y       z     vdW  Elec       q    Type
REMARK                         _______ _______ _______ _____ _____    ______ ____
ROOT
ATOM      1  N   UNL     1       0.178  11.129  20.466  0.00  0.00    +0.000 N 
ATOM      2  C   UNL     1      -0.118  11.603  21.841  0.00  0.00    +0.000 C 
ATOM      3  C   UNL     1      -0.806  10.502  22.633  0.00  0.00    +0.000 C 
ATOM      4  C   UNL     1       0.072   9.262  22.707  0.00  0.00    +0.000 C 
ATOM      5  C   UNL     1       0.716   8.908  21.391  0.00  0.00    +0.000 A 
ATOM      6  C   UNL     1       1.357   7.659  21.286  0.00  0.00    +0.000 A 
ATOM      7  C   UNL     1       2.038   7.306  20.127  0.00  0.00    +0.000 A 
ATOM      8  C   UNL     1       2.093   8.188  19.064  0.00  0.00    +0.000 A 
ATOM      9  C   UNL     1       1.435   9.414  19.155  0.00  0.00    +0.000 A 
ATOM     10  C   UNL     1       0.747   9.808  20.311  0.00  0.00    +0.000 A 
ENDROOT
BRANCH   1  11
ATOM     11  S   UNL     1      -0.430  12.020  19.156  0.00  0.00    +0.000 S 
ATOM     12  O   UNL     1      -1.570  11.313  18.603  0.00  0.00    +0.000 OA
ATOM     13  O   UNL     1       0.674  12.412  18.302  0.00  0.00    +0.000 OA
BRANCH  11  14
ATOM     14  C   UNL     1      -1.087  13.499  19.942  0.00  0.00    +0.000 C 
BRANCH  14  16
ATOM     15  C   UNL     1      -0.608  15.906  19.404  0.00  0.00    +0.000 C 
ATOM     16  C   UNL     1      -0.049  14.614  19.982  0.00  0.00    +0.000 C 
ENDBRANCH  14  16
ENDBRANCH  11  14
ENDBRANCH   1  11
BRANCH   7  17
ATOM     17  N   UNL     1       2.743   6.075  20.072  0.00  0.00    +0.000 N 
ATOM     18  H   UNL     1       3.199   5.788  20.941  0.00  0.00    +0.000 HD
BRANCH  17  19
ATOM     19  S   UNL     1       1.928   4.764  19.387  0.00  0.00    +0.000 S 
ATOM     20  O   UNL     1       0.911   4.393  20.361  0.00  0.00    +0.000 OA
ATOM     21  O   UNL     1       1.569   5.045  18.021  0.00  0.00    +0.000 OA
BRANCH  19  22
ATOM     22  C   UNL     1       3.194   3.509  19.412  0.00  0.00    +0.000 C 
BRANCH  22  23
ATOM     23  C   UNL     1       3.797   3.323  18.026  0.00  0.00    +0.000 C 
BRANCH  23  24
ATOM     24  C   UNL     1       4.858   4.345  17.724  0.00  0.00    +0.000 A 
ATOM     25  C   UNL     1       4.891   4.985  16.480  0.00  0.00    +0.000 A 
ATOM     26  C   UNL     1       5.870   5.942  16.208  0.00  0.00    +0.000 A 
ATOM     27  C   UNL     1       6.813   6.284  17.178  0.00  0.00    +0.000 A 
ATOM     28  C   UNL     1       6.797   5.637  18.413  0.00  0.00    +0.000 A 
ATOM     29  C   UNL     1       5.823   4.671  18.683  0.00  0.00    +0.000 A 
BRANCH  27  30
ATOM     30  O   UNL     1       7.725   7.228  16.792  0.00  0.00    +0.000 OA
ATOM     31  C   UNL     1       7.835   8.363  17.644  0.00  0.00    +0.000 C 
ENDBRANCH  27  30
ENDBRANCH  23  24
ENDBRANCH  22  23
ENDBRANCH  19  22
ENDBRANCH  17  19
ENDBRANCH   7  17
TORSDOF 9
ENDMDL
MODEL 8
REMARK VINA RESULT:      -7.7      1.873      2.610
REMARK  Name = 
REMARK  11 active torsions:
REMARK  status: ('A' for Active; 'I' for Inactive)
REMARK    1  A    between atoms: C_1  and  C_2
REMARK    2  A    between atoms: C_2  and  C_3
REMARK    3  A    between atoms: C_3  and  S_4
REMARK    4  A    between atoms: S_4  and  N_7
REMARK    5  A    between atoms: C_13  and  N_14
REMARK    6  A    between atoms: N_14  and  S_15
REMARK    7  A    between atoms: S_15  and  C_18
REMARK    8  A    between atoms: C_18  and  C_19
REMARK    9  A    between atoms: C_19  and  C_20
REMARK   10  A    between atoms: C_23  and  O_24
REMARK   11  A    between atoms: O_24  and  C_25
REMARK                            x       y       z     vdW  Elec       q    Type
REMARK                         _______ _______ _______ _____ _____    ______ ____
ROOT
ATOM      1  N   UNL     1      -0.423  11.108  20.610  0.00  0.00    +0.000 N 
ATOM      2  C   UNL     1      -0.553  11.587  22.009  0.00  0.00    +0.000 C 
ATOM      3  C   UNL     1      -0.880  10.421  22.929  0.00  0.00    +0.000 C 
ATOM      4  C   UNL     1       0.205   9.359  22.861  0.00  0.00    +0.000 C 
ATOM      5  C   UNL     1       0.662   9.061  21.456  0.00  0.00    +0.000 A 
ATOM      6  C   UNL     1       1.489   7.940  21.254  0.00  0.00    +0.000 A 
ATOM      7  C   UNL     1       2.009   7.657  19.997  0.00  0.00    +0.000 A 
ATOM      8  C   UNL     1       1.715   8.484  18.928  0.00  0.00    +0.000 A 
ATOM      9  C   UNL     1       0.874   9.580  19.119  0.00  0.00    +0.000 A 
ATOM     10  C   UNL     1       0.340   9.901  20.375  0.00  0.00    +0.000 A 
ENDROOT
BRANCH   1  11
ATOM     11  S   UNL     1      -1.402  11.816  19.419  0.00  0.00    +0.000 S 
ATOM     12  O   UNL     1      -2.289  12.772  20.056  0.00  0.00    +0.000 OA
ATOM     13  O   UNL     1      -1.937  10.771  18.569  0.00  0.00    +0.000 OA
BRANCH  11  14
ATOM     14  C   UNL     1      -0.230  12.783  18.454  0.00  0.00    +0.000 C 
BRANCH  14  16
ATOM     15  C   UNL     1       0.784  14.546  19.929  0.00  0.00    +0.000 C 
ATOM     16  C   UNL     1      -0.257  14.252  18.859  0.00  0.00    +0.000 C 
ENDBRANCH  14  16
ENDBRANCH  11  14
ENDBRANCH   1  11
BRANCH   7  17
ATOM     17  N   UNL     1       2.903   6.568  19.833  0.00  0.00    +0.000 N 
ATOM     18  H   UNL     1       3.669   6.519  20.510  0.00  0.00    +0.000 HD
BRANCH  17  19
ATOM     19  S   UNL     1       2.211   5.041  19.634  0.00  0.00    +0.000 S 
ATOM     20  O   UNL     1       1.537   4.757  20.894  0.00  0.00    +0.000 OA
ATOM     21  O   UNL     1       1.496   4.964  18.386  0.00  0.00    +0.000 OA
BRANCH  19  22
ATOM     22  C   UNL     1       3.659   4.004  19.543  0.00  0.00    +0.000 C 
BRANCH  22  23
ATOM     23  C   UNL     1       4.910   4.844  19.321  0.00  0.00    +0.000 C 
BRANCH  23  24
ATOM     24  C   UNL     1       5.425   4.739  17.912  0.00  0.00    +0.000 A 
ATOM     25  C   UNL     1       6.801   4.739  17.659  0.00  0.00    +0.000 A 
ATOM     26  C   UNL     1       7.274   4.630  16.350  0.00  0.00    +0.000 A 
ATOM     27  C   UNL     1       6.383   4.500  15.285  0.00  0.00    +0.000 A 
ATOM     28  C   UNL     1       5.011   4.518  15.528  0.00  0.00    +0.000 A 
ATOM     29  C   UNL     1       4.535   4.638  16.837  0.00  0.00    +0.000 A 
BRANCH  27  30
ATOM     30  O   UNL     1       6.966   4.409  14.050  0.00  0.00    +0.000 OA
ATOM     31  C   UNL     1       6.228   3.682  13.074  0.00  0.00    +0.000 C 
ENDBRANCH  27  30
ENDBRANCH  23  24
ENDBRANCH  22  23
ENDBRANCH  19  22
ENDBRANCH  17  19
ENDBRANCH   7  17
TORSDOF 9
ENDMDL
MODEL 9
REMARK VINA RESULT:      -7.7      1.600      2.264
REMARK  Name = 
REMARK  11 active torsions:
REMARK  status: ('A' for Active; 'I' for Inactive)
REMARK    1  A    between atoms: C_1  and  C_2
REMARK    2  A    between atoms: C_2  and  C_3
REMARK    3  A    between atoms: C_3  and  S_4
REMARK    4  A    between atoms: S_4  and  N_7
REMARK    5  A    between atoms: C_13  and  N_14
REMARK    6  A    between atoms: N_14  and  S_15
REMARK    7  A    between atoms: S_15  and  C_18
REMARK    8  A    between atoms: C_18  and  C_19
REMARK    9  A    between atoms: C_19  and  C_20
REMARK   10  A    between atoms: C_23  and  O_24
REMARK   11  A    between atoms: O_24  and  C_25
REMARK                            x       y       z     vdW  Elec       q    Type
REMARK                         _______ _______ _______ _____ _____    ______ ____
ROOT
ATOM      1  N   UNL     1       0.509  10.777  20.160  0.00  0.00    +0.000 N 
ATOM      2  C   UNL     1       0.239  11.224  21.549  0.00  0.00    +0.000 C 
ATOM      3  C   UNL     1      -0.483  10.127  22.317  0.00  0.00    +0.000 C 
ATOM      4  C   UNL     1       0.350   8.856  22.352  0.00  0.00    +0.000 C 
ATOM      5  C   UNL     1       0.973   8.514  21.023  0.00  0.00    +0.000 A 
ATOM      6  C   UNL     1       1.568   7.246  20.880  0.00  0.00    +0.000 A 
ATOM      7  C   UNL     1       2.229   6.900  19.707  0.00  0.00    +0.000 A 
ATOM      8  C   UNL     1       2.309   7.807  18.667  0.00  0.00    +0.000 A 
ATOM      9  C   UNL     1       1.696   9.054  18.796  0.00  0.00    +0.000 A 
ATOM     10  C   UNL     1       1.030   9.441  19.967  0.00  0.00    +0.000 A 
ENDROOT
BRANCH   1  11
ATOM     11  S   UNL     1      -0.074  11.724  18.879  0.00  0.00    +0.000 S 
ATOM     12  O   UNL     1      -1.015  10.932  18.108  0.00  0.00    +0.000 OA
ATOM     13  O   UNL     1       1.046  12.372  18.226  0.00  0.00    +0.000 OA
BRANCH  11  14
ATOM     14  C   UNL     1      -1.045  12.986  19.717  0.00  0.00    +0.000 C 
BRANCH  14  16
ATOM     15  C   UNL     1       0.376  14.849  20.623  0.00  0.00    +0.000 C 
ATOM     16  C   UNL     1      -0.485  14.379  19.459  0.00  0.00    +0.000 C 
ENDBRANCH  14  16
ENDBRANCH  11  14
ENDBRANCH   1  11
BRANCH   7  17
ATOM     17  N   UNL     1       2.889   5.647  19.614  0.00  0.00    +0.000 N 
ATOM     18  H   UNL     1       3.275   5.285  20.490  0.00  0.00    +0.000 HD
BRANCH  17  19
ATOM     19  S   UNL     1       2.073   4.419  18.791  0.00  0.00    +0.000 S 
ATOM     20  O   UNL     1       1.280   3.737  19.806  0.00  0.00    +0.000 OA
ATOM     21  O   UNL     1       1.452   4.931  17.597  0.00  0.00    +0.000 OA
BRANCH  19  22
ATOM     22  C   UNL     1       3.420   3.343  18.335  0.00  0.00    +0.000 C 
BRANCH  22  23
ATOM     23  C   UNL     1       4.121   3.857  17.085  0.00  0.00    +0.000 C 
BRANCH  23  24
ATOM     24  C   UNL     1       5.188   4.867  17.405  0.00  0.00    +0.000 A 
ATOM     25  C   UNL     1       6.214   4.555  18.304  0.00  0.00    +0.000 A 
ATOM     26  C   UNL     1       7.208   5.493  18.588  0.00  0.00    +0.000 A 
ATOM     27  C   UNL     1       7.202   6.741  17.965  0.00  0.00    +0.000 A 
ATOM     28  C   UNL     1       6.173   7.065  17.082  0.00  0.00    +0.000 A 
ATOM     29  C   UNL     1       5.171   6.131  16.804  0.00  0.00    +0.000 A 
BRANCH  27  30
ATOM     30  O   UNL     1       8.223   7.576  18.329  0.00  0.00    +0.000 OA
ATOM     31  C   UNL     1       8.104   8.923  17.886  0.00  0.00    +0.000 C 
ENDBRANCH  27  30
ENDBRANCH  23  24
ENDBRANCH  22  23
ENDBRANCH  19  22
ENDBRANCH  17  19
ENDBRANCH   7  17
TORSDOF 9
ENDMDL
