MODEL 1
REMARK VINA RESULT:      -7.4      0.000      0.000
REMARK  Name = 
REMARK  3 active torsions:
REMARK  status: ('A' for Active; 'I' for Inactive)
REMARK    1  A    between atoms: C_2  and  C_13
REMARK    2  A    between atoms: N_3  and  C_4
REMARK    3  A    between atoms: C_4  and  C_5
REMARK                            x       y       z     vdW  Elec       q    Type
REMARK                         _______ _______ _______ _____ _____    ______ ____
ROOT
ATOM      1  O   UNL     1       4.068   5.566  16.958  0.00  0.00    +0.000 OA
ATOM      2  C   UNL     1       5.061   5.134  17.540  0.00  0.00    +0.000 C 
ATOM      3  N   UNL     1       5.139   3.847  18.021  0.00  0.00    +0.000 N 
ATOM      4  H   UNL     1       5.890   3.619  18.654  0.00  0.00    +0.000 HD
ENDROOT
BRANCH   2   5
ATOM      5  C   UNL     1       6.231   5.950  17.788  0.00  0.00    +0.000 A 
ATOM      6  C   UNL     1       7.295   5.797  18.665  0.00  0.00    +0.000 A 
ATOM      7  C   UNL     1       8.173   6.894  18.494  0.00  0.00    +0.000 A 
ATOM      8  C   UNL     1       7.636   7.696  17.514  0.00  0.00    +0.000 A 
ATOM      9  N   UNL     1       6.468   7.117  17.088  0.00  0.00    +0.000 N 
ATOM     10  H   UNL     1       5.853   7.475  16.370  0.00  0.00    +0.000 HD
ENDBRANCH   2   5
BRANCH   3  11
ATOM     11  C   UNL     1       4.003   2.958  17.946  0.00  0.00    +0.000 C 
BRANCH  11  12
ATOM     12  C   UNL     1       3.073   3.085  19.123  0.00  0.00    +0.000 A 
ATOM     13  C   UNL     1       3.482   2.612  20.375  0.00  0.00    +0.000 A 
ATOM     14  F   UNL     1       4.708   2.091  20.526  0.00  0.00    +0.000 F 
ATOM     15  C   UNL     1       2.644   2.646  21.489  0.00  0.00    +0.000 A 
ATOM     16  C   UNL     1       1.359   3.165  21.372  0.00  0.00    +0.000 A 
ATOM     17  C   UNL     1       0.927   3.652  20.139  0.00  0.00    +0.000 A 
ATOM     18  C   UNL     1       1.775   3.611  19.024  0.00  0.00    +0.000 A 
ATOM     19 CL   UNL     1       1.151   4.223  17.532  0.00  0.00    +0.000 Cl
ENDBRANCH  11  12
ENDBRANCH   3  11
TORSDOF 3
ENDMDL
MODEL 2
REMARK VINA RESULT:      -7.4      2.381      2.823
REMARK  Name = 
REMARK  3 active torsions:
REMARK  status: ('A' for Active; 'I' for Inactive)
REMARK    1  A    between atoms: C_2  and  C_13
REMARK    2  A    between atoms: N_3  and  C_4
REMARK    3  A    between atoms: C_4  and  C_5
REMARK                            x       y       z     vdW  Elec       q    Type
REMARK                         _______ _______ _______ _____ _____    ______ ____
ROOT
ATOM      1  O   UNL     1       7.187   4.459  18.298  0.00  0.00    +0.000 OA
ATOM      2  C   UNL     1       6.268   4.748  17.534  0.00  0.00    +0.000 C 
ATOM      3  N   UNL     1       5.057   5.228  17.978  0.00  0.00    +0.000 N 
ATOM      4  H   UNL     1       4.288   5.257  17.325  0.00  0.00    +0.000 HD
ENDROOT
BRANCH   2   5
ATOM      5  C   UNL     1       6.374   4.589  16.099  0.00  0.00    +0.000 A 
ATOM      6  C   UNL     1       5.628   3.849  15.194  0.00  0.00    +0.000 A 
ATOM      7  C   UNL     1       6.164   4.056  13.901  0.00  0.00    +0.000 A 
ATOM      8  C   UNL     1       7.223   4.923  14.034  0.00  0.00    +0.000 A 
ATOM      9  N   UNL     1       7.340   5.245  15.362  0.00  0.00    +0.000 N 
ATOM     10  H   UNL     1       8.027   5.867  15.765  0.00  0.00    +0.000 HD
ENDBRANCH   2   5
BRANCH   3  11
ATOM     11  C   UNL     1       4.771   5.328  19.390  0.00  0.00    +0.000 C 
BRANCH  11  12
ATOM     12  C   UNL     1       3.507   4.616  19.790  0.00  0.00    +0.000 A 
ATOM     13  C   UNL     1       3.501   3.218  19.867  0.00  0.00    +0.000 A 
ATOM     14  F   UNL     1       4.626   2.530  19.627  0.00  0.00    +0.000 F 
ATOM     15  C   UNL     1       2.347   2.499  20.174  0.00  0.00    +0.000 A 
ATOM     16  C   UNL     1       1.155   3.173  20.417  0.00  0.00    +0.000 A 
ATOM     17  C   UNL     1       1.133   4.566  20.356  0.00  0.00    +0.000 A 
ATOM     18  C   UNL     1       2.297   5.281  20.044  0.00  0.00    +0.000 A 
ATOM     19 CL   UNL     1       2.173   7.004  19.976  0.00  0.00    +0.000 Cl
ENDBRANCH  11  12
ENDBRANCH   3  11
TORSDOF 3
ENDMDL
MODEL 3
REMARK VINA RESULT:      -7.3      2.844      3.330
REMARK  Name = 
REMARK  3 active torsions:
REMARK  status: ('A' for Active; 'I' for Inactive)
REMARK    1  A    between atoms: C_2  and  C_13
REMARK    2  A    between atoms: N_3  and  C_4
REMARK    3  A    between atoms: C_4  and  C_5
REMARK                            x       y       z     vdW  Elec       q    Type
REMARK                         _______ _______ _______ _____ _____    ______ ____
ROOT
ATOM      1  O   UNL     1       7.580   4.601  18.078  0.00  0.00    +0.000 OA
ATOM      2  C   UNL     1       6.561   4.656  17.392  0.00  0.00    +0.000 C 
ATOM      3  N   UNL     1       5.309   4.835  17.934  0.00  0.00    +0.000 N 
ATOM      4  H   UNL     1       4.507   4.674  17.344  0.00  0.00    +0.000 HD
ENDROOT
BRANCH   2   5
ATOM      5  C   UNL     1       6.588   4.517  15.951  0.00  0.00    +0.000 A 
ATOM      6  C   UNL     1       5.827   3.749  15.082  0.00  0.00    +0.000 A 
ATOM      7  C   UNL     1       6.274   3.996  13.762  0.00  0.00    +0.000 A 
ATOM      8  C   UNL     1       7.296   4.913  13.844  0.00  0.00    +0.000 A 
ATOM      9  N   UNL     1       7.477   5.227  15.166  0.00  0.00    +0.000 N 
ATOM     10  H   UNL     1       8.155   5.878  15.536  0.00  0.00    +0.000 HD
ENDBRANCH   2   5
BRANCH   3  11
ATOM     11  C   UNL     1       5.119   4.873  19.365  0.00  0.00    +0.000 C 
BRANCH  11  12
ATOM     12  C   UNL     1       3.748   4.425  19.793  0.00  0.00    +0.000 A 
ATOM     13  C   UNL     1       2.735   5.377  19.958  0.00  0.00    +0.000 A 
ATOM     14  F   UNL     1       2.980   6.667  19.693  0.00  0.00    +0.000 F 
ATOM     15  C   UNL     1       1.462   5.031  20.410  0.00  0.00    +0.000 A 
ATOM     16  C   UNL     1       1.169   3.705  20.708  0.00  0.00    +0.000 A 
ATOM     17  C   UNL     1       2.156   2.734  20.545  0.00  0.00    +0.000 A 
ATOM     18  C   UNL     1       3.434   3.090  20.094  0.00  0.00    +0.000 A 
ATOM     19 CL   UNL     1       4.599   1.823  19.935  0.00  0.00    +0.000 Cl
ENDBRANCH  11  12
ENDBRANCH   3  11
TORSDOF 3
ENDMDL
MODEL 4
REMARK VINA RESULT:      -7.2      1.768      2.116
REMARK  Name = 
REMARK  3 active torsions:
REMARK  status: ('A' for Active; 'I' for Inactive)
REMARK    1  A    between atoms: C_2  and  C_13
REMARK    2  A    between atoms: N_3  and  C_4
REMARK    3  A    between atoms: C_4  and  C_5
REMARK                            x       y       z     vdW  Elec       q    Type
REMARK                         _______ _______ _______ _____ _____    ______ ____
ROOT
ATOM      1  O   UNL     1       3.858   5.845  17.232  0.00  0.00    +0.000 OA
ATOM      2  C   UNL     1       4.896   5.291  17.590  0.00  0.00    +0.000 C 
ATOM      3  N   UNL     1       4.979   3.935  17.803  0.00  0.00    +0.000 N 
ATOM      4  H   UNL     1       5.792   3.576  18.280  0.00  0.00    +0.000 HD
ENDROOT
BRANCH   2   5
ATOM      5  C   UNL     1       6.119   6.025  17.839  0.00  0.00    +0.000 A 
ATOM      6  C   UNL     1       7.116   5.862  18.790  0.00  0.00    +0.000 A 
ATOM      7  C   UNL     1       8.097   6.861  18.581  0.00  0.00    +0.000 A 
ATOM      8  C   UNL     1       7.687   7.614  17.505  0.00  0.00    +0.000 A 
ATOM      9  N   UNL     1       6.496   7.100  17.060  0.00  0.00    +0.000 N 
ATOM     10  H   UNL     1       5.955   7.443  16.277  0.00  0.00    +0.000 HD
ENDBRANCH   2   5
BRANCH   3  11
ATOM     11  C   UNL     1       3.807   3.095  17.704  0.00  0.00    +0.000 C 
BRANCH  11  12
ATOM     12  C   UNL     1       2.950   3.127  18.941  0.00  0.00    +0.000 A 
ATOM     13  C   UNL     1       1.688   3.732  18.886  0.00  0.00    +0.000 A 
ATOM     14  F   UNL     1       1.239   4.237  17.729  0.00  0.00    +0.000 F 
ATOM     15  C   UNL     1       0.873   3.846  20.011  0.00  0.00    +0.000 A 
ATOM     16  C   UNL     1       1.308   3.347  21.234  0.00  0.00    +0.000 A 
ATOM     17  C   UNL     1       2.556   2.732  21.317  0.00  0.00    +0.000 A 
ATOM     18  C   UNL     1       3.370   2.624  20.182  0.00  0.00    +0.000 A 
ATOM     19 CL   UNL     1       4.908   1.859  20.380  0.00  0.00    +0.000 Cl
ENDBRANCH  11  12
ENDBRANCH   3  11
TORSDOF 3
ENDMDL
MODEL 5
REMARK VINA RESULT:      -7.1      0.830      1.037
REMARK  Name = 
REMARK  3 active torsions:
REMARK  status: ('A' for Active; 'I' for Inactive)
REMARK    1  A    between atoms: C_2  and  C_13
REMARK    2  A    between atoms: N_3  and  C_4
REMARK    3  A    between atoms: C_4  and  C_5
REMARK                            x       y       z     vdW  Elec       q    Type
REMARK                         _______ _______ _______ _____ _____    ______ ____
ROOT
ATOM      1  O   UNL     1       4.917   4.539  16.359  0.00  0.00    +0.000 OA
ATOM      2  C   UNL     1       5.519   4.677  17.422  0.00  0.00    +0.000 C 
ATOM      3  N   UNL     1       5.348   3.823  18.487  0.00  0.00    +0.000 N 
ATOM      4  H   UNL     1       5.716   4.102  19.385  0.00  0.00    +0.000 HD
ENDROOT
BRANCH   2   5
ATOM      5  C   UNL     1       6.447   5.764  17.652  0.00  0.00    +0.000 A 
ATOM      6  C   UNL     1       6.621   6.982  17.012  0.00  0.00    +0.000 A 
ATOM      7  C   UNL     1       7.680   7.672  17.649  0.00  0.00    +0.000 A 
ATOM      8  C   UNL     1       8.133   6.868  18.669  0.00  0.00    +0.000 A 
ATOM      9  N   UNL     1       7.382   5.722  18.669  0.00  0.00    +0.000 N 
ATOM     10  H   UNL     1       7.480   4.946  19.309  0.00  0.00    +0.000 HD
ENDBRANCH   2   5
BRANCH   3  11
ATOM     11  C   UNL     1       4.368   2.764  18.439  0.00  0.00    +0.000 C 
BRANCH  11  12
ATOM     12  C   UNL     1       3.250   2.945  19.430  0.00  0.00    +0.000 A 
ATOM     13  C   UNL     1       3.406   2.467  20.737  0.00  0.00    +0.000 A 
ATOM     14  F   UNL     1       4.559   1.893  21.105  0.00  0.00    +0.000 F 
ATOM     15  C   UNL     1       2.385   2.551  21.682  0.00  0.00    +0.000 A 
ATOM     16  C   UNL     1       1.168   3.127  21.336  0.00  0.00    +0.000 A 
ATOM     17  C   UNL     1       0.986   3.621  20.045  0.00  0.00    +0.000 A 
ATOM     18  C   UNL     1       2.017   3.529  19.100  0.00  0.00    +0.000 A 
ATOM     19 CL   UNL     1       1.699   4.153  17.519  0.00  0.00    +0.000 Cl
ENDBRANCH  11  12
ENDBRANCH   3  11
TORSDOF 3
ENDMDL
MODEL 6
REMARK VINA RESULT:      -7.0      3.069      3.546
REMARK  Name = 
REMARK  3 active torsions:
REMARK  status: ('A' for Active; 'I' for Inactive)
REMARK    1  A    between atoms: C_2  and  C_13
REMARK    2  A    between atoms: N_3  and  C_4
REMARK    3  A    between atoms: C_4  and  C_5
REMARK                            x       y       z     vdW  Elec       q    Type
REMARK                         _______ _______ _______ _____ _____    ______ ____
ROOT
ATOM      1  O   UNL     1       7.710   4.621  16.751  0.00  0.00    +0.000 OA
ATOM      2  C   UNL     1       6.760   4.460  15.987  0.00  0.00    +0.000 C 
ATOM      3  N   UNL     1       5.483   4.209  16.433  0.00  0.00    +0.000 N 
ATOM      4  H   UNL     1       4.798   3.894  15.763  0.00  0.00    +0.000 HD
ENDROOT
BRANCH   2   5
ATOM      5  C   UNL     1       6.907   4.503  14.547  0.00  0.00    +0.000 A 
ATOM      6  C   UNL     1       6.295   3.781  13.534  0.00  0.00    +0.000 A 
ATOM      7  C   UNL     1       6.810   4.229  12.294  0.00  0.00    +0.000 A 
ATOM      8  C   UNL     1       7.723   5.220  12.568  0.00  0.00    +0.000 A 
ATOM      9  N   UNL     1       7.773   5.384  13.928  0.00  0.00    +0.000 N 
ATOM     10  H   UNL     1       8.352   6.045  14.427  0.00  0.00    +0.000 HD
ENDBRANCH   2   5
BRANCH   3  11
ATOM     11  C   UNL     1       5.211   4.025  17.839  0.00  0.00    +0.000 C 
BRANCH  11  12
ATOM     12  C   UNL     1       3.758   3.770  18.133  0.00  0.00    +0.000 A 
ATOM     13  C   UNL     1       3.267   2.459  18.083  0.00  0.00    +0.000 A 
ATOM     14  F   UNL     1       4.099   1.443  17.817  0.00  0.00    +0.000 F 
ATOM     15  C   UNL     1       1.919   2.166  18.287  0.00  0.00    +0.000 A 
ATOM     16  C   UNL     1       1.020   3.193  18.552  0.00  0.00    +0.000 A 
ATOM     17  C   UNL     1       1.482   4.507  18.617  0.00  0.00    +0.000 A 
ATOM     18  C   UNL     1       2.838   4.793  18.408  0.00  0.00    +0.000 A 
ATOM     19 CL   UNL     1       3.318   6.452  18.493  0.00  0.00    +0.000 Cl
ENDBRANCH  11  12
ENDBRANCH   3  11
TORSDOF 3
ENDMDL
MODEL 7
REMARK VINA RESULT:      -7.0      1.967      2.282
REMARK  Name = 
REMARK  3 active torsions:
REMARK  status: ('A' for Active; 'I' for Inactive)
REMARK    1  A    between atoms: C_2  and  C_13
REMARK    2  A    between atoms: N_3  and  C_4
REMARK    3  A    between atoms: C_4  and  C_5
REMARK                            x       y       z     vdW  Elec       q    Type
REMARK                         _______ _______ _______ _____ _____    ______ ____
ROOT
ATOM      1  O   UNL     1       6.511   3.938  16.744  0.00  0.00    +0.000 OA
ATOM      2  C   UNL     1       6.134   4.815  17.518  0.00  0.00    +0.000 C 
ATOM      3  N   UNL     1       4.937   4.746  18.194  0.00  0.00    +0.000 N 
ATOM      4  H   UNL     1       4.601   5.578  18.653  0.00  0.00    +0.000 HD
ENDROOT
BRANCH   2   5
ATOM      5  C   UNL     1       6.910   6.010  17.773  0.00  0.00    +0.000 A 
ATOM      6  C   UNL     1       7.828   6.322  18.765  0.00  0.00    +0.000 A 
ATOM      7  C   UNL     1       8.296   7.639  18.540  0.00  0.00    +0.000 A 
ATOM      8  C   UNL     1       7.663   8.108  17.413  0.00  0.00    +0.000 A 
ATOM      9  N   UNL     1       6.833   7.119  16.952  0.00  0.00    +0.000 N 
ATOM     10  H   UNL     1       6.241   7.172  16.135  0.00  0.00    +0.000 HD
ENDBRANCH   2   5
BRANCH   3  11
ATOM     11  C   UNL     1       4.009   3.667  17.949  0.00  0.00    +0.000 C 
BRANCH  11  12
ATOM     12  C   UNL     1       3.054   3.437  19.089  0.00  0.00    +0.000 A 
ATOM     13  C   UNL     1       1.792   4.042  19.060  0.00  0.00    +0.000 A 
ATOM     14  F   UNL     1       1.429   4.783  18.004  0.00  0.00    +0.000 F 
ATOM     15  C   UNL     1       0.887   3.915  20.113  0.00  0.00    +0.000 A 
ATOM     16  C   UNL     1       1.229   3.167  21.234  0.00  0.00    +0.000 A 
ATOM     17  C   UNL     1       2.476   2.545  21.286  0.00  0.00    +0.000 A 
ATOM     18  C   UNL     1       3.381   2.680  20.225  0.00  0.00    +0.000 A 
ATOM     19 CL   UNL     1       4.909   1.887  20.382  0.00  0.00    +0.000 Cl
ENDBRANCH  11  12
ENDBRANCH   3  11
TORSDOF 3
ENDMDL
MODEL 8
REMARK VINA RESULT:      -7.0      2.423      2.883
REMARK  Name = 
REMARK  3 active torsions:
REMARK  status: ('A' for Active; 'I' for Inactive)
REMARK    1  A    between atoms: C_2  and  C_13
REMARK    2  A    between atoms: N_3  and  C_4
REMARK    3  A    between atoms: C_4  and  C_5
REMARK                            x       y       z     vdW  Elec       q    Type
REMARK                         _______ _______ _______ _____ _____    ______ ____
ROOT
ATOM      1  O   UNL     1       5.713   6.057  17.266  0.00  0.00    +0.000 OA
ATOM      2  C   UNL     1       5.741   4.934  16.766  0.00  0.00    +0.000 C 
ATOM      3  N   UNL     1       5.366   3.804  17.457  0.00  0.00    +0.000 N 
ATOM      4  H   UNL     1       5.598   2.906  17.061  0.00  0.00    +0.000 HD
ENDROOT
BRANCH   2   5
ATOM      5  C   UNL     1       6.190   4.700  15.410  0.00  0.00    +0.000 A 
ATOM      6  C   UNL     1       5.717   3.861  14.411  0.00  0.00    +0.000 A 
ATOM      7  C   UNL     1       6.532   4.028  13.267  0.00  0.00    +0.000 A 
ATOM      8  C   UNL     1       7.486   4.968  13.581  0.00  0.00    +0.000 A 
ATOM      9  N   UNL     1       7.271   5.372  14.873  0.00  0.00    +0.000 N 
ATOM     10  H   UNL     1       7.811   6.060  15.379  0.00  0.00    +0.000 HD
ENDBRANCH   2   5
BRANCH   3  11
ATOM     11  C   UNL     1       5.007   3.874  18.854  0.00  0.00    +0.000 C 
BRANCH  11  12
ATOM     12  C   UNL     1       3.557   3.562  19.109  0.00  0.00    +0.000 A 
ATOM     13  C   UNL     1       3.103   2.245  18.963  0.00  0.00    +0.000 A 
ATOM     14  F   UNL     1       3.965   1.272  18.641  0.00  0.00    +0.000 F 
ATOM     15  C   UNL     1       1.761   1.904  19.127  0.00  0.00    +0.000 A 
ATOM     16  C   UNL     1       0.830   2.886  19.448  0.00  0.00    +0.000 A 
ATOM     17  C   UNL     1       1.255   4.205  19.608  0.00  0.00    +0.000 A 
ATOM     18  C   UNL     1       2.606   4.540  19.438  0.00  0.00    +0.000 A 
ATOM     19 CL   UNL     1       3.040   6.201  19.642  0.00  0.00    +0.000 Cl
ENDBRANCH  11  12
ENDBRANCH   3  11
TORSDOF 3
ENDMDL
MODEL 9
REMARK VINA RESULT:      -6.9      2.994      3.477
REMARK  Name = 
REMARK  3 active torsions:
REMARK  status: ('A' for Active; 'I' for Inactive)
REMARK    1  A    between atoms: C_2  and  C_13
REMARK    2  A    between atoms: N_3  and  C_4
REMARK    3  A    between atoms: C_4  and  C_5
REMARK                            x       y       z     vdW  Elec       q    Type
REMARK                         _______ _______ _______ _____ _____    ______ ____
ROOT
ATOM      1  O   UNL     1       7.307   6.214  16.442  0.00  0.00    +0.000 OA
ATOM      2  C   UNL     1       6.771   5.196  16.010  0.00  0.00    +0.000 C 
ATOM      3  N   UNL     1       6.058   4.334  16.811  0.00  0.00    +0.000 N 
ATOM      4  H   UNL     1       5.815   3.428  16.439  0.00  0.00    +0.000 HD
ENDROOT
BRANCH   2   5
ATOM      5  C   UNL     1       6.859   4.804  14.618  0.00  0.00    +0.000 A 
ATOM      6  C   UNL     1       6.152   3.872  13.874  0.00  0.00    +0.000 A 
ATOM      7  C   UNL     1       6.646   3.894  12.548  0.00  0.00    +0.000 A 
ATOM      8  C   UNL     1       7.642   4.841  12.501  0.00  0.00    +0.000 A 
ATOM      9  N   UNL     1       7.762   5.390  13.752  0.00  0.00    +0.000 N 
ATOM     10  H   UNL     1       8.410   6.117  14.023  0.00  0.00    +0.000 HD
ENDBRANCH   2   5
BRANCH   3  11
ATOM     11  C   UNL     1       5.984   4.538  18.239  0.00  0.00    +0.000 C 
BRANCH  11  12
ATOM     12  C   UNL     1       4.575   4.528  18.767  0.00  0.00    +0.000 A 
ATOM     13  C   UNL     1       4.128   3.427  19.508  0.00  0.00    +0.000 A 
ATOM     14  F   UNL     1       4.966   2.416  19.776  0.00  0.00    +0.000 F 
ATOM     15  C   UNL     1       2.817   3.332  19.972  0.00  0.00    +0.000 A 
ATOM     16  C   UNL     1       1.912   4.353  19.705  0.00  0.00    +0.000 A 
ATOM     17  C   UNL     1       2.331   5.466  18.977  0.00  0.00    +0.000 A 
ATOM     18  C   UNL     1       3.650   5.552  18.510  0.00  0.00    +0.000 A 
ATOM     19 CL   UNL     1       4.079   6.960  17.604  0.00  0.00    +0.000 Cl
ENDBRANCH  11  12
ENDBRANCH   3  11
TORSDOF 3
ENDMDL
