MODEL 1
REMARK VINA RESULT:      -9.3      0.000      0.000
REMARK  Name = 
REMARK  5 active torsions:
REMARK  status: ('A' for Active; 'I' for Inactive)
REMARK    1  A    between atoms: C_2  and  C_5
REMARK    2  A    between atoms: C_8  and  C_9
REMARK    3  A    between atoms: C_12  and  O_13
REMARK    4  A    between atoms: O_13  and  C_14
REMARK    5  A    between atoms: C_20  and  C_21
REMARK                            x       y       z     vdW  Elec       q    Type
REMARK                         _______ _______ _______ _____ _____    ______ ____
ROOT
ATOM      1  C   UNL     1       2.655   7.548  18.503  0.00  0.00    +0.000 A 
ATOM      2  C   UNL     1       2.362   7.239  19.844  0.00  0.00    +0.000 A 
ATOM      3  C   UNL     1       1.465   8.010  20.593  0.00  0.00    +0.000 A 
ATOM      4  C   UNL     1       0.855   9.125  20.026  0.00  0.00    +0.000 A 
ATOM      5  C   UNL     1       1.104   9.435  18.690  0.00  0.00    +0.000 A 
ATOM      6  C   UNL     1       2.005   8.665  17.947  0.00  0.00    +0.000 A 
ENDROOT
BRANCH   1  10
ATOM      7  C   UNL     1       5.264   5.073  16.087  0.00  0.00    +0.000 A 
ATOM      8  C   UNL     1       4.431   4.506  17.056  0.00  0.00    +0.000 A 
ATOM      9  C   UNL     1       3.600   5.313  17.841  0.00  0.00    +0.000 A 
ATOM     10  C   UNL     1       3.573   6.711  17.695  0.00  0.00    +0.000 A 
ATOM     11  C   UNL     1       4.434   7.268  16.732  0.00  0.00    +0.000 A 
ATOM     12  C   UNL     1       5.261   6.467  15.935  0.00  0.00    +0.000 A 
BRANCH   7  14
ATOM     13  F   UNL     1       7.472   4.439  15.386  0.00  0.00    +0.000 F 
ATOM     14  C   UNL     1       6.139   4.214  15.211  0.00  0.00    +0.000 C 
ATOM     15  F   UNL     1       5.900   4.407  13.884  0.00  0.00    +0.000 F 
ATOM     16  F   UNL     1       5.955   2.884  15.435  0.00  0.00    +0.000 F 
ENDBRANCH   7  14
ENDBRANCH   1  10
BRANCH   4  17
ATOM     17  O   UNL     1      -0.016   9.811  20.843  0.00  0.00    +0.000 OA
BRANCH  17  18
ATOM     18  C   UNL     1       0.221  11.141  21.110  0.00  0.00    +0.000 A 
ATOM     19  C   UNL     1       1.417  11.784  20.810  0.00  0.00    +0.000 A 
ATOM     20  N   UNL     1       1.665  13.090  21.045  0.00  0.00    +0.000 NA
ATOM     21  C   UNL     1       0.708  13.834  21.642  0.00  0.00    +0.000 A 
ATOM     22  C   UNL     1      -0.495  13.245  22.037  0.00  0.00    +0.000 A 
ATOM     23  S   UNL     1      -1.816  14.011  22.832  0.00  0.00    +0.000 S 
ATOM     24  C   UNL     1      -2.699  12.561  22.936  0.00  0.00    +0.000 A 
ATOM     25  C   UNL     1      -2.031  11.511  22.345  0.00  0.00    +0.000 A 
ATOM     26  C   UNL     1      -0.754  11.892  21.801  0.00  0.00    +0.000 A 
BRANCH  24  27
ATOM     27  C   UNL     1      -4.033  12.450  23.594  0.00  0.00    +0.000 A 
ATOM     28  N   UNL     1      -5.219  12.728  22.960  0.00  0.00    +0.000 NA
ATOM     29  N   UNL     1      -6.181  12.538  23.852  0.00  0.00    +0.000 NA
ATOM     30  N   UNL     1      -5.539  12.172  24.966  0.00  0.00    +0.000 N 
ATOM     31  N   UNL     1      -4.203  12.081  24.876  0.00  0.00    +0.000 NA
ATOM     32  H   UNL     1      -6.039  11.983  25.831  0.00  0.00    +0.000 HD
ENDBRANCH  24  27
ENDBRANCH  17  18
ENDBRANCH   4  17
TORSDOF 5
ENDMDL
MODEL 2
REMARK VINA RESULT:      -9.2      0.413      1.181
REMARK  Name = 
REMARK  5 active torsions:
REMARK  status: ('A' for Active; 'I' for Inactive)
REMARK    1  A    between atoms: C_2  and  C_5
REMARK    2  A    between atoms: C_8  and  C_9
REMARK    3  A    between atoms: C_12  and  O_13
REMARK    4  A    between atoms: O_13  and  C_14
REMARK    5  A    between atoms: C_20  and  C_21
REMARK                            x       y       z     vdW  Elec       q    Type
REMARK                         _______ _______ _______ _____ _____    ______ ____
ROOT
ATOM      1  C   UNL     1       2.486   7.680  18.536  0.00  0.00    +0.000 A 
ATOM      2  C   UNL     1       2.215   7.446  19.896  0.00  0.00    +0.000 A 
ATOM      3  C   UNL     1       1.330   8.257  20.616  0.00  0.00    +0.000 A 
ATOM      4  C   UNL     1       0.710   9.340  19.998  0.00  0.00    +0.000 A 
ATOM      5  C   UNL     1       0.937   9.575  18.643  0.00  0.00    +0.000 A 
ATOM      6  C   UNL     1       1.827   8.764  17.929  0.00  0.00    +0.000 A 
ENDROOT
BRANCH   1  10
ATOM      7  C   UNL     1       5.203   5.120  16.337  0.00  0.00    +0.000 A 
ATOM      8  C   UNL     1       5.347   6.511  16.311  0.00  0.00    +0.000 A 
ATOM      9  C   UNL     1       4.459   7.331  17.014  0.00  0.00    +0.000 A 
ATOM     10  C   UNL     1       3.392   6.799  17.761  0.00  0.00    +0.000 A 
ATOM     11  C   UNL     1       3.248   5.400  17.758  0.00  0.00    +0.000 A 
ATOM     12  C   UNL     1       4.139   4.571  17.066  0.00  0.00    +0.000 A 
BRANCH   7  14
ATOM     13  F   UNL     1       5.866   2.897  15.712  0.00  0.00    +0.000 F 
ATOM     14  C   UNL     1       6.173   4.222  15.613  0.00  0.00    +0.000 C 
ATOM     15  F   UNL     1       7.447   4.344  16.079  0.00  0.00    +0.000 F 
ATOM     16  F   UNL     1       6.235   4.489  14.279  0.00  0.00    +0.000 F 
ENDBRANCH   7  14
ENDBRANCH   1  10
BRANCH   4  17
ATOM     17  O   UNL     1      -0.148  10.070  20.789  0.00  0.00    +0.000 OA
BRANCH  17  18
ATOM     18  C   UNL     1       0.163  11.378  21.086  0.00  0.00    +0.000 A 
ATOM     19  C   UNL     1       1.400  11.954  20.819  0.00  0.00    +0.000 A 
ATOM     20  N   UNL     1       1.721  13.238  21.084  0.00  0.00    +0.000 NA
ATOM     21  C   UNL     1       0.799  14.027  21.679  0.00  0.00    +0.000 A 
ATOM     22  C   UNL     1      -0.444  13.504  22.042  0.00  0.00    +0.000 A 
ATOM     23  S   UNL     1      -1.731  14.332  22.830  0.00  0.00    +0.000 S 
ATOM     24  C   UNL     1      -2.700  12.935  22.890  0.00  0.00    +0.000 A 
ATOM     25  C   UNL     1      -2.085  11.859  22.290  0.00  0.00    +0.000 A 
ATOM     26  C   UNL     1      -0.778  12.173  21.775  0.00  0.00    +0.000 A 
BRANCH  24  27
ATOM     27  C   UNL     1      -4.050  12.892  23.523  0.00  0.00    +0.000 A 
ATOM     28  N   UNL     1      -5.061  13.770  23.218  0.00  0.00    +0.000 NA
ATOM     29  N   UNL     1      -6.094  13.441  23.981  0.00  0.00    +0.000 NA
ATOM     30  N   UNL     1      -5.660  12.405  24.706  0.00  0.00    +0.000 N 
ATOM     31  N   UNL     1      -4.404  11.999  24.464  0.00  0.00    +0.000 NA
ATOM     32  H   UNL     1      -6.249  11.960  25.405  0.00  0.00    +0.000 HD
ENDBRANCH  24  27
ENDBRANCH  17  18
ENDBRANCH   4  17
TORSDOF 5
ENDMDL
MODEL 3
REMARK VINA RESULT:      -9.0      0.647      1.350
REMARK  Name = 
REMARK  5 active torsions:
REMARK  status: ('A' for Active; 'I' for Inactive)
REMARK    1  A    between atoms: C_2  and  C_5
REMARK    2  A    between atoms: C_8  and  C_9
REMARK    3  A    between atoms: C_12  and  O_13
REMARK    4  A    between atoms: O_13  and  C_14
REMARK    5  A    between atoms: C_20  and  C_21
REMARK                            x       y       z     vdW  Elec       q    Type
REMARK                         _______ _______ _______ _____ _____    ______ ____
ROOT
ATOM      1  C   UNL     1       2.532   7.660  18.462  0.00  0.00    +0.000 A 
ATOM      2  C   UNL     1       1.904   8.731  17.800  0.00  0.00    +0.000 A 
ATOM      3  C   UNL     1       1.002   9.572  18.463  0.00  0.00    +0.000 A 
ATOM      4  C   UNL     1       0.688   9.350  19.801  0.00  0.00    +0.000 A 
ATOM      5  C   UNL     1       1.321   8.314  20.488  0.00  0.00    +0.000 A 
ATOM      6  C   UNL     1       2.217   7.472  19.820  0.00  0.00    +0.000 A 
ENDROOT
BRANCH   1  10
ATOM      7  C   UNL     1       5.345   5.104  16.382  0.00  0.00    +0.000 A 
ATOM      8  C   UNL     1       4.292   4.559  17.124  0.00  0.00    +0.000 A 
ATOM      9  C   UNL     1       3.395   5.391  17.802  0.00  0.00    +0.000 A 
ATOM     10  C   UNL     1       3.517   6.791  17.774  0.00  0.00    +0.000 A 
ATOM     11  C   UNL     1       4.595   7.323  17.042  0.00  0.00    +0.000 A 
ATOM     12  C   UNL     1       5.491   6.497  16.352  0.00  0.00    +0.000 A 
BRANCH   7  14
ATOM     13  F   UNL     1       5.890   2.924  15.534  0.00  0.00    +0.000 F 
ATOM     14  C   UNL     1       6.298   4.221  15.617  0.00  0.00    +0.000 C 
ATOM     15  F   UNL     1       7.539   4.185  16.178  0.00  0.00    +0.000 F 
ATOM     16  F   UNL     1       6.479   4.638  14.334  0.00  0.00    +0.000 F 
ENDBRANCH   7  14
ENDBRANCH   1  10
BRANCH   4  17
ATOM     17  O   UNL     1      -0.202  10.237  20.363  0.00  0.00    +0.000 OA
BRANCH  17  18
ATOM     18  C   UNL     1       0.250  11.470  20.776  0.00  0.00    +0.000 A 
ATOM     19  C   UNL     1       1.523  11.956  20.495  0.00  0.00    +0.000 A 
ATOM     20  N   UNL     1       1.981  13.168  20.874  0.00  0.00    +0.000 NA
ATOM     21  C   UNL     1       1.172  13.968  21.604  0.00  0.00    +0.000 A 
ATOM     22  C   UNL     1      -0.096  13.524  21.986  0.00  0.00    +0.000 A 
ATOM     23  S   UNL     1      -1.254  14.375  22.933  0.00  0.00    +0.000 S 
ATOM     24  C   UNL     1      -2.351  13.075  22.905  0.00  0.00    +0.000 A 
ATOM     25  C   UNL     1      -1.876  12.019  22.159  0.00  0.00    +0.000 A 
ATOM     26  C   UNL     1      -0.572  12.267  21.601  0.00  0.00    +0.000 A 
BRANCH  24  27
ATOM     27  C   UNL     1      -3.665  13.087  23.611  0.00  0.00    +0.000 A 
ATOM     28  N   UNL     1      -4.324  11.950  24.010  0.00  0.00    +0.000 NA
ATOM     29  N   UNL     1      -5.452  12.344  24.582  0.00  0.00    +0.000 NA
ATOM     30  N   UNL     1      -5.426  13.678  24.492  0.00  0.00    +0.000 N 
ATOM     31  N   UNL     1      -4.339  14.210  23.914  0.00  0.00    +0.000 NA
ATOM     32  H   UNL     1      -6.193  14.250  24.835  0.00  0.00    +0.000 HD
ENDBRANCH  24  27
ENDBRANCH  17  18
ENDBRANCH   4  17
TORSDOF 5
ENDMDL
MODEL 4
REMARK VINA RESULT:      -8.9      7.456     11.252
REMARK  Name = 
REMARK  5 active torsions:
REMARK  status: ('A' for Active; 'I' for Inactive)
REMARK    1  A    between atoms: C_2  and  C_5
REMARK    2  A    between atoms: C_8  and  C_9
REMARK    3  A    between atoms: C_12  and  O_13
REMARK    4  A    between atoms: O_13  and  C_14
REMARK    5  A    between atoms: C_20  and  C_21
REMARK                            x       y       z     vdW  Elec       q    Type
REMARK                         _______ _______ _______ _____ _____    ______ ____
ROOT
ATOM      1  C   UNL     1      -1.333  10.380  18.521  0.00  0.00    +0.000 A 
ATOM      2  C   UNL     1      -0.719   9.701  17.453  0.00  0.00    +0.000 A 
ATOM      3  C   UNL     1       0.532   9.090  17.597  0.00  0.00    +0.000 A 
ATOM      4  C   UNL     1       1.213   9.161  18.809  0.00  0.00    +0.000 A 
ATOM      5  C   UNL     1       0.613   9.801  19.893  0.00  0.00    +0.000 A 
ATOM      6  C   UNL     1      -0.636  10.416  19.742  0.00  0.00    +0.000 A 
ENDROOT
BRANCH   1  10
ATOM      7  C   UNL     1      -5.213  12.261  18.098  0.00  0.00    +0.000 A 
ATOM      8  C   UNL     1      -4.433  12.471  19.240  0.00  0.00    +0.000 A 
ATOM      9  C   UNL     1      -3.187  11.851  19.374  0.00  0.00    +0.000 A 
ATOM     10  C   UNL     1      -2.675  10.994  18.383  0.00  0.00    +0.000 A 
ATOM     11  C   UNL     1      -3.481  10.775  17.252  0.00  0.00    +0.000 A 
ATOM     12  C   UNL     1      -4.726  11.400  17.105  0.00  0.00    +0.000 A 
BRANCH   7  14
ATOM     13  F   UNL     1      -7.460  12.606  18.870  0.00  0.00    +0.000 F 
ATOM     14  C   UNL     1      -6.542  12.949  17.924  0.00  0.00    +0.000 C 
ATOM     15  F   UNL     1      -7.122  12.669  16.724  0.00  0.00    +0.000 F 
ATOM     16  F   UNL     1      -6.438  14.305  17.982  0.00  0.00    +0.000 F 
ENDBRANCH   7  14
ENDBRANCH   1  10
BRANCH   4  17
ATOM     17  O   UNL     1       2.431   8.521  18.851  0.00  0.00    +0.000 OA
BRANCH  17  18
ATOM     18  C   UNL     1       2.483   7.202  19.239  0.00  0.00    +0.000 A 
ATOM     19  C   UNL     1       1.793   6.694  20.335  0.00  0.00    +0.000 A 
ATOM     20  N   UNL     1       1.815   5.402  20.723  0.00  0.00    +0.000 NA
ATOM     21  C   UNL     1       2.578   4.529  20.029  0.00  0.00    +0.000 A 
ATOM     22  C   UNL     1       3.354   4.974  18.956  0.00  0.00    +0.000 A 
ATOM     23  S   UNL     1       4.407   4.032  17.973  0.00  0.00    +0.000 S 
ATOM     24  C   UNL     1       4.903   5.384  17.068  0.00  0.00    +0.000 A 
ATOM     25  C   UNL     1       4.259   6.533  17.468  0.00  0.00    +0.000 A 
ATOM     26  C   UNL     1       3.341   6.313  18.555  0.00  0.00    +0.000 A 
BRANCH  24  27
ATOM     27  C   UNL     1       5.918   5.321  15.976  0.00  0.00    +0.000 A 
ATOM     28  N   UNL     1       5.738   4.619  14.810  0.00  0.00    +0.000 NA
ATOM     29  N   UNL     1       6.844   4.777  14.096  0.00  0.00    +0.000 NA
ATOM     30  N   UNL     1       7.629   5.545  14.859  0.00  0.00    +0.000 N 
ATOM     31  N   UNL     1       7.114   5.934  16.035  0.00  0.00    +0.000 NA
ATOM     32  H   UNL     1       8.566   5.808  14.563  0.00  0.00    +0.000 HD
ENDBRANCH  24  27
ENDBRANCH  17  18
ENDBRANCH   4  17
TORSDOF 5
ENDMDL
MODEL 5
REMARK VINA RESULT:      -8.9      7.420     11.234
REMARK  Name = 
REMARK  5 active torsions:
REMARK  status: ('A' for Active; 'I' for Inactive)
REMARK    1  A    between atoms: C_2  and  C_5
REMARK    2  A    between atoms: C_8  and  C_9
REMARK    3  A    between atoms: C_12  and  O_13
REMARK    4  A    between atoms: O_13  and  C_14
REMARK    5  A    between atoms: C_20  and  C_21
REMARK                            x       y       z     vdW  Elec       q    Type
REMARK                         _______ _______ _______ _____ _____    ______ ____
ROOT
ATOM      1  C   UNL     1      -1.291  10.367  18.633  0.00  0.00    +0.000 A 
ATOM      2  C   UNL     1      -0.600   9.816  17.538  0.00  0.00    +0.000 A 
ATOM      3  C   UNL     1       0.641   9.189  17.698  0.00  0.00    +0.000 A 
ATOM      4  C   UNL     1       1.235   9.116  18.954  0.00  0.00    +0.000 A 
ATOM      5  C   UNL     1       0.558   9.627  20.061  0.00  0.00    +0.000 A 
ATOM      6  C   UNL     1      -0.680  10.259  19.896  0.00  0.00    +0.000 A 
ENDROOT
BRANCH   1  10
ATOM      7  C   UNL     1      -5.141  12.292  18.143  0.00  0.00    +0.000 A 
ATOM      8  C   UNL     1      -4.340  12.561  19.258  0.00  0.00    +0.000 A 
ATOM      9  C   UNL     1      -3.103  11.927  19.415  0.00  0.00    +0.000 A 
ATOM     10  C   UNL     1      -2.623  10.998  18.475  0.00  0.00    +0.000 A 
ATOM     11  C   UNL     1      -3.451  10.721  17.371  0.00  0.00    +0.000 A 
ATOM     12  C   UNL     1      -4.685  11.360  17.202  0.00  0.00    +0.000 A 
BRANCH   7  14
ATOM     13  F   UNL     1      -6.430  13.937  16.960  0.00  0.00    +0.000 F 
ATOM     14  C   UNL     1      -6.460  12.994  17.943  0.00  0.00    +0.000 C 
ATOM     15  F   UNL     1      -6.883  13.640  19.065  0.00  0.00    +0.000 F 
ATOM     16  F   UNL     1      -7.461  12.136  17.605  0.00  0.00    +0.000 F 
ENDBRANCH   7  14
ENDBRANCH   1  10
BRANCH   4  17
ATOM     17  O   UNL     1       2.451   8.472  19.006  0.00  0.00    +0.000 OA
BRANCH  17  18
ATOM     18  C   UNL     1       2.491   7.140  19.352  0.00  0.00    +0.000 A 
ATOM     19  C   UNL     1       1.815   6.609  20.446  0.00  0.00    +0.000 A 
ATOM     20  N   UNL     1       1.825   5.305  20.793  0.00  0.00    +0.000 NA
ATOM     21  C   UNL     1       2.561   4.444  20.057  0.00  0.00    +0.000 A 
ATOM     22  C   UNL     1       3.323   4.911  18.984  0.00  0.00    +0.000 A 
ATOM     23  S   UNL     1       4.342   3.984  17.951  0.00  0.00    +0.000 S 
ATOM     24  C   UNL     1       4.840   5.357  17.078  0.00  0.00    +0.000 A 
ATOM     25  C   UNL     1       4.222   6.502  17.527  0.00  0.00    +0.000 A 
ATOM     26  C   UNL     1       3.322   6.261  18.624  0.00  0.00    +0.000 A 
BRANCH  24  27
ATOM     27  C   UNL     1       5.834   5.313  15.966  0.00  0.00    +0.000 A 
ATOM     28  N   UNL     1       7.120   5.780  16.077  0.00  0.00    +0.000 NA
ATOM     29  N   UNL     1       7.696   5.594  14.897  0.00  0.00    +0.000 NA
ATOM     30  N   UNL     1       6.741   5.045  14.140  0.00  0.00    +0.000 N 
ATOM     31  N   UNL     1       5.562   4.826  14.742  0.00  0.00    +0.000 NA
ATOM     32  H   UNL     1       6.902   4.815  13.163  0.00  0.00    +0.000 HD
ENDBRANCH  24  27
ENDBRANCH  17  18
ENDBRANCH   4  17
TORSDOF 5
ENDMDL
MODEL 6
REMARK VINA RESULT:      -8.9      3.654      4.815
REMARK  Name = 
REMARK  5 active torsions:
REMARK  status: ('A' for Active; 'I' for Inactive)
REMARK    1  A    between atoms: C_2  and  C_5
REMARK    2  A    between atoms: C_8  and  C_9
REMARK    3  A    between atoms: C_12  and  O_13
REMARK    4  A    between atoms: O_13  and  C_14
REMARK    5  A    between atoms: C_20  and  C_21
REMARK                            x       y       z     vdW  Elec       q    Type
REMARK                         _______ _______ _______ _____ _____    ______ ____
ROOT
ATOM      1  C   UNL     1       1.628   7.908  20.083  0.00  0.00    +0.000 A 
ATOM      2  C   UNL     1       1.669   8.914  19.100  0.00  0.00    +0.000 A 
ATOM      3  C   UNL     1       1.335  10.240  19.396  0.00  0.00    +0.000 A 
ATOM      4  C   UNL     1       0.929  10.593  20.680  0.00  0.00    +0.000 A 
ATOM      5  C   UNL     1       0.910   9.622  21.681  0.00  0.00    +0.000 A 
ATOM      6  C   UNL     1       1.239   8.295  21.379  0.00  0.00    +0.000 A 
ENDROOT
BRANCH   1  10
ATOM      7  C   UNL     1       2.676   3.800  19.194  0.00  0.00    +0.000 A 
ATOM      8  C   UNL     1       2.138   4.151  20.436  0.00  0.00    +0.000 A 
ATOM      9  C   UNL     1       1.814   5.482  20.720  0.00  0.00    +0.000 A 
ATOM     10  C   UNL     1       2.019   6.510  19.783  0.00  0.00    +0.000 A 
ATOM     11  C   UNL     1       2.581   6.144  18.547  0.00  0.00    +0.000 A 
ATOM     12  C   UNL     1       2.899   4.813  18.252  0.00  0.00    +0.000 A 
BRANCH   7  14
ATOM     13  F   UNL     1       1.978   1.502  19.131  0.00  0.00    +0.000 F 
ATOM     14  C   UNL     1       2.998   2.365  18.862  0.00  0.00    +0.000 C 
ATOM     15  F   UNL     1       4.074   1.898  19.554  0.00  0.00    +0.000 F 
ATOM     16  F   UNL     1       3.295   2.189  17.545  0.00  0.00    +0.000 F 
ENDBRANCH   7  14
ENDBRANCH   1  10
BRANCH   4  17
ATOM     17  O   UNL     1       0.631  11.923  20.870  0.00  0.00    +0.000 OA
BRANCH  17  18
ATOM     18  C   UNL     1      -0.638  12.275  21.270  0.00  0.00    +0.000 A 
ATOM     19  C   UNL     1      -0.951  12.689  22.561  0.00  0.00    +0.000 A 
ATOM     20  N   UNL     1      -2.184  13.056  22.970  0.00  0.00    +0.000 NA
ATOM     21  C   UNL     1      -3.206  12.995  22.087  0.00  0.00    +0.000 A 
ATOM     22  C   UNL     1      -2.986  12.524  20.791  0.00  0.00    +0.000 A 
ATOM     23  S   UNL     1      -4.152  12.343  19.538  0.00  0.00    +0.000 S 
ATOM     24  C   UNL     1      -3.011  11.690  18.459  0.00  0.00    +0.000 A 
ATOM     25  C   UNL     1      -1.752  11.640  19.013  0.00  0.00    +0.000 A 
ATOM     26  C   UNL     1      -1.713  12.137  20.364  0.00  0.00    +0.000 A 
BRANCH  24  27
ATOM     27  C   UNL     1      -3.347  11.226  17.082  0.00  0.00    +0.000 A 
ATOM     28  N   UNL     1      -2.423  10.712  16.206  0.00  0.00    +0.000 NA
ATOM     29  N   UNL     1      -3.075  10.427  15.088  0.00  0.00    +0.000 NA
ATOM     30  N   UNL     1      -4.338  10.788  15.335  0.00  0.00    +0.000 N 
ATOM     31  N   UNL     1      -4.585  11.278  16.559  0.00  0.00    +0.000 NA
ATOM     32  H   UNL     1      -5.064  10.701  14.628  0.00  0.00    +0.000 HD
ENDBRANCH  24  27
ENDBRANCH  17  18
ENDBRANCH   4  17
TORSDOF 5
ENDMDL
MODEL 7
REMARK VINA RESULT:      -8.9      7.401     11.166
REMARK  Name = 
REMARK  5 active torsions:
REMARK  status: ('A' for Active; 'I' for Inactive)
REMARK    1  A    between atoms: C_2  and  C_5
REMARK    2  A    between atoms: C_8  and  C_9
REMARK    3  A    between atoms: C_12  and  O_13
REMARK    4  A    between atoms: O_13  and  C_14
REMARK    5  A    between atoms: C_20  and  C_21
REMARK                            x       y       z     vdW  Elec       q    Type
REMARK                         _______ _______ _______ _____ _____    ______ ____
ROOT
ATOM      1  C   UNL     1      -1.184  10.380  18.569  0.00  0.00    +0.000 A 
ATOM      2  C   UNL     1      -0.513   9.698  17.538  0.00  0.00    +0.000 A 
ATOM      3  C   UNL     1       0.705   9.045  17.764  0.00  0.00    +0.000 A 
ATOM      4  C   UNL     1       1.295   9.076  19.024  0.00  0.00    +0.000 A 
ATOM      5  C   UNL     1       0.635   9.718  20.072  0.00  0.00    +0.000 A 
ATOM      6  C   UNL     1      -0.579  10.375  19.840  0.00  0.00    +0.000 A 
ENDROOT
BRANCH   1  10
ATOM      7  C   UNL     1      -5.052  12.222  17.927  0.00  0.00    +0.000 A 
ATOM      8  C   UNL     1      -4.473  11.407  16.949  0.00  0.00    +0.000 A 
ATOM      9  C   UNL     1      -3.218  10.825  17.159  0.00  0.00    +0.000 A 
ATOM     10  C   UNL     1      -2.492  11.039  18.344  0.00  0.00    +0.000 A 
ATOM     11  C   UNL     1      -3.078  11.880  19.308  0.00  0.00    +0.000 A 
ATOM     12  C   UNL     1      -4.338  12.458  19.109  0.00  0.00    +0.000 A 
BRANCH   7  14
ATOM     13  F   UNL     1      -6.476  13.709  16.690  0.00  0.00    +0.000 F 
ATOM     14  C   UNL     1      -6.418  12.828  17.728  0.00  0.00    +0.000 C 
ATOM     15  F   UNL     1      -6.849  13.514  18.823  0.00  0.00    +0.000 F 
ATOM     16  F   UNL     1      -7.372  11.890  17.474  0.00  0.00    +0.000 F 
ENDBRANCH   7  14
ENDBRANCH   1  10
BRANCH   4  17
ATOM     17  O   UNL     1       2.486   8.397  19.145  0.00  0.00    +0.000 OA
BRANCH  17  18
ATOM     18  C   UNL     1       2.466   7.056  19.454  0.00  0.00    +0.000 A 
ATOM     19  C   UNL     1       1.713   6.517  20.493  0.00  0.00    +0.000 A 
ATOM     20  N   UNL     1       1.663   5.205  20.803  0.00  0.00    +0.000 NA
ATOM     21  C   UNL     1       2.414   4.340  20.086  0.00  0.00    +0.000 A 
ATOM     22  C   UNL     1       3.250   4.811  19.071  0.00  0.00    +0.000 A 
ATOM     23  S   UNL     1       4.298   3.880  18.071  0.00  0.00    +0.000 S 
ATOM     24  C   UNL     1       4.886   5.259  17.267  0.00  0.00    +0.000 A 
ATOM     25  C   UNL     1       4.278   6.411  17.712  0.00  0.00    +0.000 A 
ATOM     26  C   UNL     1       3.310   6.170  18.750  0.00  0.00    +0.000 A 
BRANCH  24  27
ATOM     27  C   UNL     1       5.940   5.213  16.212  0.00  0.00    +0.000 A 
ATOM     28  N   UNL     1       5.740   5.633  14.919  0.00  0.00    +0.000 NA
ATOM     29  N   UNL     1       6.879   5.429  14.272  0.00  0.00    +0.000 NA
ATOM     30  N   UNL     1       7.694   4.893  15.187  0.00  0.00    +0.000 N 
ATOM     31  N   UNL     1       7.183   4.744  16.419  0.00  0.00    +0.000 NA
ATOM     32  H   UNL     1       8.642   4.610  14.955  0.00  0.00    +0.000 HD
ENDBRANCH  24  27
ENDBRANCH  17  18
ENDBRANCH   4  17
TORSDOF 5
ENDMDL
MODEL 8
REMARK VINA RESULT:      -8.8      1.868      2.826
REMARK  Name = 
REMARK  5 active torsions:
REMARK  status: ('A' for Active; 'I' for Inactive)
REMARK    1  A    between atoms: C_2  and  C_5
REMARK    2  A    between atoms: C_8  and  C_9
REMARK    3  A    between atoms: C_12  and  O_13
REMARK    4  A    between atoms: O_13  and  C_14
REMARK    5  A    between atoms: C_20  and  C_21
REMARK                            x       y       z     vdW  Elec       q    Type
REMARK                         _______ _______ _______ _____ _____    ______ ____
ROOT
ATOM      1  C   UNL     1       1.371   8.422  20.610  0.00  0.00    +0.000 A 
ATOM      2  C   UNL     1       1.337   8.446  22.016  0.00  0.00    +0.000 A 
ATOM      3  C   UNL     1       0.763   9.513  22.716  0.00  0.00    +0.000 A 
ATOM      4  C   UNL     1       0.225  10.597  22.027  0.00  0.00    +0.000 A 
ATOM      5  C   UNL     1       0.218  10.584  20.633  0.00  0.00    +0.000 A 
ATOM      6  C   UNL     1       0.799   9.518  19.937  0.00  0.00    +0.000 A 
ENDROOT
BRANCH   1  10
ATOM      7  C   UNL     1       2.954   5.041  18.413  0.00  0.00    +0.000 A 
ATOM      8  C   UNL     1       2.446   4.883  19.706  0.00  0.00    +0.000 A 
ATOM      9  C   UNL     1       1.948   5.982  20.414  0.00  0.00    +0.000 A 
ATOM     10  C   UNL     1       1.943   7.276  19.864  0.00  0.00    +0.000 A 
ATOM     11  C   UNL     1       2.478   7.422  18.571  0.00  0.00    +0.000 A 
ATOM     12  C   UNL     1       2.970   6.325  17.853  0.00  0.00    +0.000 A 
BRANCH   7  14
ATOM     13  F   UNL     1       3.811   2.797  18.404  0.00  0.00    +0.000 F 
ATOM     14  C   UNL     1       3.463   3.860  17.625  0.00  0.00    +0.000 C 
ATOM     15  F   UNL     1       4.568   4.161  16.890  0.00  0.00    +0.000 F 
ATOM     16  F   UNL     1       2.541   3.387  16.741  0.00  0.00    +0.000 F 
ENDBRANCH   7  14
ENDBRANCH   1  10
BRANCH   4  17
ATOM     17  O   UNL     1      -0.323  11.590  22.807  0.00  0.00    +0.000 OA
BRANCH  17  18
ATOM     18  C   UNL     1      -0.718  12.768  22.213  0.00  0.00    +0.000 A 
ATOM     19  C   UNL     1       0.171  13.742  21.770  0.00  0.00    +0.000 A 
ATOM     20  N   UNL     1      -0.193  14.895  21.170  0.00  0.00    +0.000 NA
ATOM     21  C   UNL     1      -1.509  15.154  21.006  0.00  0.00    +0.000 A 
ATOM     22  C   UNL     1      -2.466  14.257  21.486  0.00  0.00    +0.000 A 
ATOM     23  S   UNL     1      -4.178  14.419  21.402  0.00  0.00    +0.000 S 
ATOM     24  C   UNL     1      -4.437  12.968  22.250  0.00  0.00    +0.000 A 
ATOM     25  C   UNL     1      -3.253  12.339  22.565  0.00  0.00    +0.000 A 
ATOM     26  C   UNL     1      -2.095  13.065  22.114  0.00  0.00    +0.000 A 
BRANCH  24  27
ATOM     27  C   UNL     1      -5.790  12.451  22.610  0.00  0.00    +0.000 A 
ATOM     28  N   UNL     1      -6.251  12.361  23.901  0.00  0.00    +0.000 NA
ATOM     29  N   UNL     1      -7.471  11.847  23.834  0.00  0.00    +0.000 NA
ATOM     30  N   UNL     1      -7.679  11.643  22.529  0.00  0.00    +0.000 N 
ATOM     31  N   UNL     1      -6.684  12.010  21.708  0.00  0.00    +0.000 NA
ATOM     32  H   UNL     1      -8.541  11.228  22.186  0.00  0.00    +0.000 HD
ENDBRANCH  24  27
ENDBRANCH  17  18
ENDBRANCH   4  17
TORSDOF 5
ENDMDL
MODEL 9
REMARK VINA RESULT:      -8.8      7.424     11.176
REMARK  Name = 
REMARK  5 active torsions:
REMARK  status: ('A' for Active; 'I' for Inactive)
REMARK    1  A    between atoms: C_2  and  C_5
REMARK    2  A    between atoms: C_8  and  C_9
REMARK    3  A    between atoms: C_12  and  O_13
REMARK    4  A    between atoms: O_13  and  C_14
REMARK    5  A    between atoms: C_20  and  C_21
REMARK                            x       y       z     vdW  Elec       q    Type
REMARK                         _______ _______ _______ _____ _____    ______ ____
ROOT
ATOM      1  C   UNL     1      -1.339  10.244  18.469  0.00  0.00    +0.000 A 
ATOM      2  C   UNL     1      -0.675  10.257  19.709  0.00  0.00    +0.000 A 
ATOM      3  C   UNL     1       0.576   9.652  19.875  0.00  0.00    +0.000 A 
ATOM      4  C   UNL     1       1.187   8.998  18.809  0.00  0.00    +0.000 A 
ATOM      5  C   UNL     1       0.566   8.997  17.561  0.00  0.00    +0.000 A 
ATOM      6  C   UNL     1      -0.688   9.598  17.401  0.00  0.00    +0.000 A 
ENDROOT
BRANCH   1  10
ATOM      7  C   UNL     1      -5.112  12.295  17.896  0.00  0.00    +0.000 A 
ATOM      8  C   UNL     1      -4.381  12.452  19.078  0.00  0.00    +0.000 A 
ATOM      9  C   UNL     1      -3.169  11.777  19.260  0.00  0.00    +0.000 A 
ATOM     10  C   UNL     1      -2.646  10.917  18.279  0.00  0.00    +0.000 A 
ATOM     11  C   UNL     1      -3.404  10.752  17.105  0.00  0.00    +0.000 A 
ATOM     12  C   UNL     1      -4.613  11.432  16.911  0.00  0.00    +0.000 A 
BRANCH   7  14
ATOM     13  F   UNL     1      -6.378  13.848  16.573  0.00  0.00    +0.000 F 
ATOM     14  C   UNL     1      -6.401  13.042  17.671  0.00  0.00    +0.000 C 
ATOM     15  F   UNL     1      -6.726  13.849  18.718  0.00  0.00    +0.000 F 
ATOM     16  F   UNL     1      -7.463  12.208  17.498  0.00  0.00    +0.000 F 
ENDBRANCH   7  14
ENDBRANCH   1  10
BRANCH   4  17
ATOM     17  O   UNL     1       2.419   8.443  19.074  0.00  0.00    +0.000 OA
BRANCH  17  18
ATOM     18  C   UNL     1       2.497   7.109  19.405  0.00  0.00    +0.000 A 
ATOM     19  C   UNL     1       1.824   6.544  20.483  0.00  0.00    +0.000 A 
ATOM     20  N   UNL     1       1.871   5.237  20.815  0.00  0.00    +0.000 NA
ATOM     21  C   UNL     1       2.646   4.408  20.080  0.00  0.00    +0.000 A 
ATOM     22  C   UNL     1       3.408   4.912  19.024  0.00  0.00    +0.000 A 
ATOM     23  S   UNL     1       4.471   4.032  17.996  0.00  0.00    +0.000 S 
ATOM     24  C   UNL     1       4.937   5.430  17.146  0.00  0.00    +0.000 A 
ATOM     25  C   UNL     1       4.275   6.549  17.598  0.00  0.00    +0.000 A 
ATOM     26  C   UNL     1       3.367   6.266  18.680  0.00  0.00    +0.000 A 
BRANCH  24  27
ATOM     27  C   UNL     1       5.947   5.432  16.048  0.00  0.00    +0.000 A 
ATOM     28  N   UNL     1       5.702   4.942  14.789  0.00  0.00    +0.000 NA
ATOM     29  N   UNL     1       6.823   5.093  14.097  0.00  0.00    +0.000 NA
ATOM     30  N   UNL     1       7.679   5.647  14.961  0.00  0.00    +0.000 N 
ATOM     31  N   UNL     1       7.199   5.901  16.188  0.00  0.00    +0.000 NA
ATOM     32  H   UNL     1       8.639   5.855  14.700  0.00  0.00    +0.000 HD
ENDBRANCH  24  27
ENDBRANCH  17  18
ENDBRANCH   4  17
TORSDOF 5
ENDMDL
