MODEL 1
REMARK VINA RESULT:      -8.0      0.000      0.000
REMARK  Name = 
REMARK  4 active torsions:
REMARK  status: ('A' for Active; 'I' for Inactive)
REMARK    1  A    between atoms: N_1  and  C_2
REMARK    2  A    between atoms: C_6  and  C_7
REMARK    3  A    between atoms: C_7  and  C_8
REMARK    4  A    between atoms: C_8  and  C_9
REMARK                            x       y       z     vdW  Elec       q    Type
REMARK                         _______ _______ _______ _____ _____    ______ ____
ROOT
ATOM      1  C   UNL     1       3.745   3.730  17.455  0.00  0.00    +0.000 A 
ATOM      2  N   UNL     1       3.669   2.461  17.723  0.00  0.00    +0.000 NA
ATOM      3  N   UNL     1       2.985   2.099  18.844  0.00  0.00    +0.000 N 
ATOM      4  C   UNL     1       2.369   2.948  19.724  0.00  0.00    +0.000 A 
ATOM      5  O   UNL     1       1.767   2.543  20.713  0.00  0.00    +0.000 OA
ATOM      6  C   UNL     1       2.471   4.395  19.409  0.00  0.00    +0.000 A 
ATOM      7  C   UNL     1       3.124   4.796  18.306  0.00  0.00    +0.000 A 
ATOM      8  C   UNL     1       3.237   6.242  17.912  0.00  0.00    +0.000 C 
ATOM      9  C   UNL     1       2.280   7.152  18.687  0.00  0.00    +0.000 C 
ATOM     10  C   UNL     1       2.273   6.797  20.169  0.00  0.00    +0.000 C 
ATOM     11  C   UNL     1       1.826   5.348  20.378  0.00  0.00    +0.000 C 
ATOM     12  H   UNL     1       2.929   1.106  19.043  0.00  0.00    +0.000 HD
ENDROOT
BRANCH   1  13
ATOM     13  C   UNL     1       4.510   4.170  16.208  0.00  0.00    +0.000 C 
BRANCH  13  14
ATOM     14  C   UNL     1       6.017   3.927  16.277  0.00  0.00    +0.000 C 
BRANCH  14  19
ATOM     15  C   UNL     1       7.967   5.621  19.100  0.00  0.00    +0.000 A 
ATOM     16  C   UNL     1       7.987   6.941  18.646  0.00  0.00    +0.000 A 
ATOM     17  C   UNL     1       7.418   7.279  17.417  0.00  0.00    +0.000 A 
ATOM     18  C   UNL     1       6.790   6.303  16.646  0.00  0.00    +0.000 A 
ATOM     19  C   UNL     1       6.718   4.981  17.102  0.00  0.00    +0.000 A 
ATOM     20  C   UNL     1       7.283   4.660  18.347  0.00  0.00    +0.000 A 
BRANCH  15  21
ATOM     21  N   UNL     1       8.420   5.318  20.391  0.00  0.00    +0.000 N 
ATOM     22  H   UNL     1       8.046   4.447  20.757  0.00  0.00    +0.000 HD
ATOM     23  H   UNL     1       8.313   6.084  21.049  0.00  0.00    +0.000 HD
ENDBRANCH  15  21
ENDBRANCH  14  19
ENDBRANCH  13  14
ENDBRANCH   1  13
TORSDOF 4
ENDMDL
MODEL 2
REMARK VINA RESULT:      -7.8      2.039      3.244
REMARK  Name = 
REMARK  4 active torsions:
REMARK  status: ('A' for Active; 'I' for Inactive)
REMARK    1  A    between atoms: N_1  and  C_2
REMARK    2  A    between atoms: C_6  and  C_7
REMARK    3  A    between atoms: C_7  and  C_8
REMARK    4  A    between atoms: C_8  and  C_9
REMARK                            x       y       z     vdW  Elec       q    Type
REMARK                         _______ _______ _______ _____ _____    ______ ____
ROOT
ATOM      1  C   UNL     1       2.520   5.932  18.962  0.00  0.00    +0.000 A 
ATOM      2  N   UNL     1       2.436   6.464  20.144  0.00  0.00    +0.000 NA
ATOM      3  N   UNL     1       2.300   5.618  21.202  0.00  0.00    +0.000 N 
ATOM      4  C   UNL     1       2.239   4.252  21.141  0.00  0.00    +0.000 A 
ATOM      5  O   UNL     1       2.120   3.556  22.144  0.00  0.00    +0.000 OA
ATOM      6  C   UNL     1       2.330   3.658  19.785  0.00  0.00    +0.000 A 
ATOM      7  C   UNL     1       2.478   4.454  18.713  0.00  0.00    +0.000 A 
ATOM      8  C   UNL     1       2.607   3.917  17.315  0.00  0.00    +0.000 C 
ATOM      9  C   UNL     1       2.880   2.411  17.274  0.00  0.00    +0.000 C 
ATOM     10  C   UNL     1       1.987   1.670  18.262  0.00  0.00    +0.000 C 
ATOM     11  C   UNL     1       2.236   2.159  19.691  0.00  0.00    +0.000 C 
ATOM     12  H   UNL     1       2.238   6.044  22.121  0.00  0.00    +0.000 HD
ENDROOT
BRANCH   1  13
ATOM     13  C   UNL     1       2.668   6.853  17.752  0.00  0.00    +0.000 C 
BRANCH  13  14
ATOM     14  C   UNL     1       4.064   7.453  17.586  0.00  0.00    +0.000 C 
BRANCH  14  19
ATOM     15  C   UNL     1       6.857   4.850  17.332  0.00  0.00    +0.000 A 
ATOM     16  C   UNL     1       6.874   4.620  15.955  0.00  0.00    +0.000 A 
ATOM     17  C   UNL     1       5.962   5.263  15.116  0.00  0.00    +0.000 A 
ATOM     18  C   UNL     1       5.046   6.170  15.644  0.00  0.00    +0.000 A 
ATOM     19  C   UNL     1       5.041   6.451  17.016  0.00  0.00    +0.000 A 
ATOM     20  C   UNL     1       5.974   5.807  17.845  0.00  0.00    +0.000 A 
BRANCH  15  21
ATOM     21  N   UNL     1       7.861   4.305  18.145  0.00  0.00    +0.000 N 
ATOM     22  H   UNL     1       7.851   4.665  19.095  0.00  0.00    +0.000 HD
ATOM     23  H   UNL     1       8.787   4.349  17.731  0.00  0.00    +0.000 HD
ENDBRANCH  15  21
ENDBRANCH  14  19
ENDBRANCH  13  14
ENDBRANCH   1  13
TORSDOF 4
ENDMDL
MODEL 3
REMARK VINA RESULT:      -7.5      1.098      1.539
REMARK  Name = 
REMARK  4 active torsions:
REMARK  status: ('A' for Active; 'I' for Inactive)
REMARK    1  A    between atoms: N_1  and  C_2
REMARK    2  A    between atoms: C_6  and  C_7
REMARK    3  A    between atoms: C_7  and  C_8
REMARK    4  A    between atoms: C_8  and  C_9
REMARK                            x       y       z     vdW  Elec       q    Type
REMARK                         _______ _______ _______ _____ _____    ______ ____
ROOT
ATOM      1  C   UNL     1       4.037   3.882  17.173  0.00  0.00    +0.000 A 
ATOM      2  N   UNL     1       4.002   2.613  17.446  0.00  0.00    +0.000 NA
ATOM      3  N   UNL     1       3.312   2.232  18.556  0.00  0.00    +0.000 N 
ATOM      4  C   UNL     1       2.650   3.061  19.420  0.00  0.00    +0.000 A 
ATOM      5  O   UNL     1       2.046   2.639  20.401  0.00  0.00    +0.000 OA
ATOM      6  C   UNL     1       2.705   4.509  19.100  0.00  0.00    +0.000 A 
ATOM      7  C   UNL     1       3.363   4.929  18.007  0.00  0.00    +0.000 A 
ATOM      8  C   UNL     1       3.431   6.377  17.608  0.00  0.00    +0.000 C 
ATOM      9  C   UNL     1       2.428   7.254  18.361  0.00  0.00    +0.000 C 
ATOM     10  C   UNL     1       2.407   6.906  19.845  0.00  0.00    +0.000 C 
ATOM     11  C   UNL     1       2.009   5.442  20.053  0.00  0.00    +0.000 C 
ATOM     12  H   UNL     1       3.288   1.238  18.759  0.00  0.00    +0.000 HD
ENDROOT
BRANCH   1  13
ATOM     13  C   UNL     1       4.808   4.345  15.937  0.00  0.00    +0.000 C 
BRANCH  13  14
ATOM     14  C   UNL     1       6.322   4.154  16.033  0.00  0.00    +0.000 C 
BRANCH  14  19
ATOM     15  C   UNL     1       7.582   7.377  17.666  0.00  0.00    +0.000 A 
ATOM     16  C   UNL     1       8.133   6.873  18.845  0.00  0.00    +0.000 A 
ATOM     17  C   UNL     1       8.060   5.510  19.138  0.00  0.00    +0.000 A 
ATOM     18  C   UNL     1       7.465   4.632  18.234  0.00  0.00    +0.000 A 
ATOM     19  C   UNL     1       6.946   5.109  17.024  0.00  0.00    +0.000 A 
ATOM     20  C   UNL     1       7.040   6.481  16.738  0.00  0.00    +0.000 A 
BRANCH  15  21
ATOM     21  N   UNL     1       7.779   8.721  17.320  0.00  0.00    +0.000 N 
ATOM     22  H   UNL     1       8.412   8.848  16.535  0.00  0.00    +0.000 HD
ATOM     23  H   UNL     1       8.027   9.311  18.108  0.00  0.00    +0.000 HD
ENDBRANCH  15  21
ENDBRANCH  14  19
ENDBRANCH  13  14
ENDBRANCH   1  13
TORSDOF 4
ENDMDL
MODEL 4
REMARK VINA RESULT:      -7.4      2.356      3.597
REMARK  Name = 
REMARK  4 active torsions:
REMARK  status: ('A' for Active; 'I' for Inactive)
REMARK    1  A    between atoms: N_1  and  C_2
REMARK    2  A    between atoms: C_6  and  C_7
REMARK    3  A    between atoms: C_7  and  C_8
REMARK    4  A    between atoms: C_8  and  C_9
REMARK                            x       y       z     vdW  Elec       q    Type
REMARK                         _______ _______ _______ _____ _____    ______ ____
ROOT
ATOM      1  C   UNL     1       2.552   5.868  18.931  0.00  0.00    +0.000 A 
ATOM      2  N   UNL     1       2.486   6.424  20.102  0.00  0.00    +0.000 NA
ATOM      3  N   UNL     1       2.329   5.602  21.176  0.00  0.00    +0.000 N 
ATOM      4  C   UNL     1       2.230   4.238  21.141  0.00  0.00    +0.000 A 
ATOM      5  O   UNL     1       2.094   3.564  22.157  0.00  0.00    +0.000 OA
ATOM      6  C   UNL     1       2.300   3.616  19.796  0.00  0.00    +0.000 A 
ATOM      7  C   UNL     1       2.468   4.388  18.709  0.00  0.00    +0.000 A 
ATOM      8  C   UNL     1       2.579   3.821  17.321  0.00  0.00    +0.000 C 
ATOM      9  C   UNL     1       2.809   2.308  17.308  0.00  0.00    +0.000 C 
ATOM     10  C   UNL     1       1.899   1.610  18.312  0.00  0.00    +0.000 C 
ATOM     11  C   UNL     1       2.165   2.119  19.731  0.00  0.00    +0.000 C 
ATOM     12  H   UNL     1       2.281   6.047  22.087  0.00  0.00    +0.000 HD
ENDROOT
BRANCH   1  13
ATOM     13  C   UNL     1       2.722   6.762  17.703  0.00  0.00    +0.000 C 
BRANCH  13  14
ATOM     14  C   UNL     1       4.109   7.392  17.572  0.00  0.00    +0.000 C 
BRANCH  14  19
ATOM     15  C   UNL     1       6.190   4.962  15.472  0.00  0.00    +0.000 A 
ATOM     16  C   UNL     1       7.061   4.461  16.442  0.00  0.00    +0.000 A 
ATOM     17  C   UNL     1       7.012   4.935  17.755  0.00  0.00    +0.000 A 
ATOM     18  C   UNL     1       6.064   5.890  18.118  0.00  0.00    +0.000 A 
ATOM     19  C   UNL     1       5.151   6.374  17.173  0.00  0.00    +0.000 A 
ATOM     20  C   UNL     1       5.205   5.877  15.860  0.00  0.00    +0.000 A 
BRANCH  15  21
ATOM     21  N   UNL     1       6.158   4.385  14.195  0.00  0.00    +0.000 N 
ATOM     22  H   UNL     1       5.580   3.551  14.143  0.00  0.00    +0.000 HD
ATOM     23  H   UNL     1       7.078   4.237  13.794  0.00  0.00    +0.000 HD
ENDBRANCH  15  21
ENDBRANCH  14  19
ENDBRANCH  13  14
ENDBRANCH   1  13
TORSDOF 4
ENDMDL
MODEL 5
REMARK VINA RESULT:      -7.4      1.804      2.568
REMARK  Name = 
REMARK  4 active torsions:
REMARK  status: ('A' for Active; 'I' for Inactive)
REMARK    1  A    between atoms: N_1  and  C_2
REMARK    2  A    between atoms: C_6  and  C_7
REMARK    3  A    between atoms: C_7  and  C_8
REMARK    4  A    between atoms: C_8  and  C_9
REMARK                            x       y       z     vdW  Elec       q    Type
REMARK                         _______ _______ _______ _____ _____    ______ ____
ROOT
ATOM      1  C   UNL     1       3.559   5.152  17.465  0.00  0.00    +0.000 A 
ATOM      2  N   UNL     1       3.729   6.372  17.874  0.00  0.00    +0.000 NA
ATOM      3  N   UNL     1       3.055   6.755  18.994  0.00  0.00    +0.000 N 
ATOM      4  C   UNL     1       2.206   5.976  19.732  0.00  0.00    +0.000 A 
ATOM      5  O   UNL     1       1.637   6.394  20.735  0.00  0.00    +0.000 OA
ATOM      6  C   UNL     1       2.015   4.586  19.248  0.00  0.00    +0.000 A 
ATOM      7  C   UNL     1       2.671   4.161  18.155  0.00  0.00    +0.000 A 
ATOM      8  C   UNL     1       2.546   2.758  17.630  0.00  0.00    +0.000 C 
ATOM      9  C   UNL     1       1.883   1.802  18.624  0.00  0.00    +0.000 C 
ATOM     10  C   UNL     1       0.665   2.450  19.272  0.00  0.00    +0.000 C 
ATOM     11  C   UNL     1       1.063   3.720  20.027  0.00  0.00    +0.000 C 
ATOM     12  H   UNL     1       3.198   7.710  19.307  0.00  0.00    +0.000 HD
ENDROOT
BRANCH   1  13
ATOM     13  C   UNL     1       4.296   4.690  16.208  0.00  0.00    +0.000 C 
BRANCH  13  14
ATOM     14  C   UNL     1       5.691   4.124  16.471  0.00  0.00    +0.000 C 
BRANCH  14  19
ATOM     15  C   UNL     1       7.900   5.634  19.206  0.00  0.00    +0.000 A 
ATOM     16  C   UNL     1       8.128   6.908  18.682  0.00  0.00    +0.000 A 
ATOM     17  C   UNL     1       7.613   7.266  17.435  0.00  0.00    +0.000 A 
ATOM     18  C   UNL     1       6.834   6.362  16.715  0.00  0.00    +0.000 A 
ATOM     19  C   UNL     1       6.555   5.095  17.240  0.00  0.00    +0.000 A 
ATOM     20  C   UNL     1       7.068   4.755  18.503  0.00  0.00    +0.000 A 
BRANCH  15  21
ATOM     21  N   UNL     1       8.305   5.332  20.514  0.00  0.00    +0.000 N 
ATOM     22  H   UNL     1       9.246   4.952  20.568  0.00  0.00    +0.000 HD
ATOM     23  H   UNL     1       7.636   4.766  21.025  0.00  0.00    +0.000 HD
ENDBRANCH  15  21
ENDBRANCH  14  19
ENDBRANCH  13  14
ENDBRANCH   1  13
TORSDOF 4
ENDMDL
MODEL 6
REMARK VINA RESULT:      -7.3      2.778      4.746
REMARK  Name = 
REMARK  4 active torsions:
REMARK  status: ('A' for Active; 'I' for Inactive)
REMARK    1  A    between atoms: N_1  and  C_2
REMARK    2  A    between atoms: C_6  and  C_7
REMARK    3  A    between atoms: C_7  and  C_8
REMARK    4  A    between atoms: C_8  and  C_9
REMARK                            x       y       z     vdW  Elec       q    Type
REMARK                         _______ _______ _______ _____ _____    ______ ____
ROOT
ATOM      1  C   UNL     1       3.689   4.476  18.427  0.00  0.00    +0.000 A 
ATOM      2  N   UNL     1       4.935   4.155  18.255  0.00  0.00    +0.000 NA
ATOM      3  N   UNL     1       5.447   3.182  19.058  0.00  0.00    +0.000 N 
ATOM      4  C   UNL     1       4.773   2.507  20.040  0.00  0.00    +0.000 A 
ATOM      5  O   UNL     1       5.305   1.637  20.722  0.00  0.00    +0.000 OA
ATOM      6  C   UNL     1       3.352   2.890  20.231  0.00  0.00    +0.000 A 
ATOM      7  C   UNL     1       2.801   3.835  19.451  0.00  0.00    +0.000 A 
ATOM      8  C   UNL     1       1.361   4.247  19.571  0.00  0.00    +0.000 C 
ATOM      9  C   UNL     1       0.528   3.278  20.414  0.00  0.00    +0.000 C 
ATOM     10  C   UNL     1       1.279   2.872  21.676  0.00  0.00    +0.000 C 
ATOM     11  C   UNL     1       2.599   2.181  21.324  0.00  0.00    +0.000 C 
ATOM     12  H   UNL     1       6.421   2.937  18.913  0.00  0.00    +0.000 HD
ENDROOT
BRANCH   1  13
ATOM     13  C   UNL     1       3.084   5.568  17.546  0.00  0.00    +0.000 C 
BRANCH  13  14
ATOM     14  C   UNL     1       3.647   6.966  17.804  0.00  0.00    +0.000 C 
BRANCH  14  19
ATOM     15  C   UNL     1       1.271   8.592  20.325  0.00  0.00    +0.000 A 
ATOM     16  C   UNL     1       0.667   9.563  19.523  0.00  0.00    +0.000 A 
ATOM     17  C   UNL     1       1.054   9.727  18.192  0.00  0.00    +0.000 A 
ATOM     18  C   UNL     1       2.024   8.894  17.639  0.00  0.00    +0.000 A 
ATOM     19  C   UNL     1       2.611   7.884  18.410  0.00  0.00    +0.000 A 
ATOM     20  C   UNL     1       2.202   7.723  19.744  0.00  0.00    +0.000 A 
BRANCH  15  21
ATOM     21  N   UNL     1       0.783   8.347  21.616  0.00  0.00    +0.000 N 
ATOM     22  H   UNL     1      -0.104   8.803  21.806  0.00  0.00    +0.000 HD
ATOM     23  H   UNL     1       1.466   8.522  22.347  0.00  0.00    +0.000 HD
ENDBRANCH  15  21
ENDBRANCH  14  19
ENDBRANCH  13  14
ENDBRANCH   1  13
TORSDOF 4
ENDMDL
MODEL 7
REMARK VINA RESULT:      -7.2      2.973      4.452
REMARK  Name = 
REMARK  4 active torsions:
REMARK  status: ('A' for Active; 'I' for Inactive)
REMARK    1  A    between atoms: N_1  and  C_2
REMARK    2  A    between atoms: C_6  and  C_7
REMARK    3  A    between atoms: C_7  and  C_8
REMARK    4  A    between atoms: C_8  and  C_9
REMARK                            x       y       z     vdW  Elec       q    Type
REMARK                         _______ _______ _______ _____ _____    ______ ____
ROOT
ATOM      1  C   UNL     1       4.017   4.883  17.456  0.00  0.00    +0.000 A 
ATOM      2  N   UNL     1       4.257   6.130  17.728  0.00  0.00    +0.000 NA
ATOM      3  N   UNL     1       3.516   6.709  18.712  0.00  0.00    +0.000 N 
ATOM      4  C   UNL     1       2.533   6.102  19.446  0.00  0.00    +0.000 A 
ATOM      5  O   UNL     1       1.910   6.692  20.323  0.00  0.00    +0.000 OA
ATOM      6  C   UNL     1       2.264   4.680  19.120  0.00  0.00    +0.000 A 
ATOM      7  C   UNL     1       2.981   4.064  18.165  0.00  0.00    +0.000 A 
ATOM      8  C   UNL     1       2.782   2.618  17.808  0.00  0.00    +0.000 C 
ATOM      9  C   UNL     1       1.942   1.856  18.836  0.00  0.00    +0.000 C 
ATOM     10  C   UNL     1       0.731   2.676  19.264  0.00  0.00    +0.000 C 
ATOM     11  C   UNL     1       1.168   4.000  19.895  0.00  0.00    +0.000 C 
ATOM     12  H   UNL     1       3.713   7.683  18.919  0.00  0.00    +0.000 HD
ENDROOT
BRANCH   1  13
ATOM     13  C   UNL     1       4.827   4.204  16.352  0.00  0.00    +0.000 C 
BRANCH  13  14
ATOM     14  C   UNL     1       6.075   4.976  15.925  0.00  0.00    +0.000 C 
BRANCH  14  19
ATOM     15  C   UNL     1       6.193   3.333  12.470  0.00  0.00    +0.000 A 
ATOM     16  C   UNL     1       7.204   4.080  11.862  0.00  0.00    +0.000 A 
ATOM     17  C   UNL     1       7.813   5.138  12.540  0.00  0.00    +0.000 A 
ATOM     18  C   UNL     1       7.441   5.434  13.850  0.00  0.00    +0.000 A 
ATOM     19  C   UNL     1       6.462   4.670  14.496  0.00  0.00    +0.000 A 
ATOM     20  C   UNL     1       5.869   3.601  13.805  0.00  0.00    +0.000 A 
BRANCH  15  21
ATOM     21  N   UNL     1       5.685   2.193  11.833  0.00  0.00    +0.000 N 
ATOM     22  H   UNL     1       5.570   1.399  12.455  0.00  0.00    +0.000 HD
ATOM     23  H   UNL     1       6.187   1.944  10.986  0.00  0.00    +0.000 HD
ENDBRANCH  15  21
ENDBRANCH  14  19
ENDBRANCH  13  14
ENDBRANCH   1  13
TORSDOF 4
ENDMDL
MODEL 8
REMARK VINA RESULT:      -7.2      1.934      2.635
REMARK  Name = 
REMARK  4 active torsions:
REMARK  status: ('A' for Active; 'I' for Inactive)
REMARK    1  A    between atoms: N_1  and  C_2
REMARK    2  A    between atoms: C_6  and  C_7
REMARK    3  A    between atoms: C_7  and  C_8
REMARK    4  A    between atoms: C_8  and  C_9
REMARK                            x       y       z     vdW  Elec       q    Type
REMARK                         _______ _______ _______ _____ _____    ______ ____
ROOT
ATOM      1  C   UNL     1       3.805   5.081  17.777  0.00  0.00    +0.000 A 
ATOM      2  N   UNL     1       3.590   6.327  17.483  0.00  0.00    +0.000 NA
ATOM      3  N   UNL     1       2.895   7.072  18.386  0.00  0.00    +0.000 N 
ATOM      4  C   UNL     1       2.392   6.631  19.580  0.00  0.00    +0.000 A 
ATOM      5  O   UNL     1       1.777   7.367  20.345  0.00  0.00    +0.000 OA
ATOM      6  C   UNL     1       2.638   5.203  19.900  0.00  0.00    +0.000 A 
ATOM      7  C   UNL     1       3.332   4.434  19.044  0.00  0.00    +0.000 A 
ATOM      8  C   UNL     1       3.643   2.990  19.321  0.00  0.00    +0.000 C 
ATOM      9  C   UNL     1       3.388   2.590  20.776  0.00  0.00    +0.000 C 
ATOM     10  C   UNL     1       2.066   3.160  21.274  0.00  0.00    +0.000 C 
ATOM     11  C   UNL     1       2.070   4.689  21.195  0.00  0.00    +0.000 C 
ATOM     12  H   UNL     1       2.735   8.045  18.148  0.00  0.00    +0.000 HD
ENDROOT
BRANCH   1  13
ATOM     13  C   UNL     1       4.578   4.215  16.783  0.00  0.00    +0.000 C 
BRANCH  13  14
ATOM     14  C   UNL     1       5.690   4.954  16.039  0.00  0.00    +0.000 C 
BRANCH  14  19
ATOM     15  C   UNL     1       7.948   5.801  19.011  0.00  0.00    +0.000 A 
ATOM     16  C   UNL     1       8.215   7.148  18.759  0.00  0.00    +0.000 A 
ATOM     17  C   UNL     1       7.712   7.770  17.615  0.00  0.00    +0.000 A 
ATOM     18  C   UNL     1       6.904   7.058  16.730  0.00  0.00    +0.000 A 
ATOM     19  C   UNL     1       6.585   5.719  16.986  0.00  0.00    +0.000 A 
ATOM     20  C   UNL     1       7.088   5.111  18.149  0.00  0.00    +0.000 A 
BRANCH  15  21
ATOM     21  N   UNL     1       8.344   5.224  20.226  0.00  0.00    +0.000 N 
ATOM     22  H   UNL     1       7.867   5.614  21.033  0.00  0.00    +0.000 HD
ATOM     23  H   UNL     1       9.351   5.199  20.354  0.00  0.00    +0.000 HD
ENDBRANCH  15  21
ENDBRANCH  14  19
ENDBRANCH  13  14
ENDBRANCH   1  13
TORSDOF 4
ENDMDL
MODEL 9
REMARK VINA RESULT:      -7.2      2.456      5.837
REMARK  Name = 
REMARK  4 active torsions:
REMARK  status: ('A' for Active; 'I' for Inactive)
REMARK    1  A    between atoms: N_1  and  C_2
REMARK    2  A    between atoms: C_6  and  C_7
REMARK    3  A    between atoms: C_7  and  C_8
REMARK    4  A    between atoms: C_8  and  C_9
REMARK                            x       y       z     vdW  Elec       q    Type
REMARK                         _______ _______ _______ _____ _____    ______ ____
ROOT
ATOM      1  C   UNL     1       4.793   5.948  18.200  0.00  0.00    +0.000 A 
ATOM      2  N   UNL     1       5.364   5.864  19.364  0.00  0.00    +0.000 NA
ATOM      3  N   UNL     1       6.598   5.291  19.415  0.00  0.00    +0.000 N 
ATOM      4  C   UNL     1       7.299   4.787  18.352  0.00  0.00    +0.000 A 
ATOM      5  O   UNL     1       8.413   4.288  18.479  0.00  0.00    +0.000 OA
ATOM      6  C   UNL     1       6.632   4.883  17.031  0.00  0.00    +0.000 A 
ATOM      7  C   UNL     1       5.420   5.454  16.932  0.00  0.00    +0.000 A 
ATOM      8  C   UNL     1       4.703   5.611  15.620  0.00  0.00    +0.000 C 
ATOM      9  C   UNL     1       5.607   5.368  14.409  0.00  0.00    +0.000 C 
ATOM     10  C   UNL     1       6.480   4.137  14.621  0.00  0.00    +0.000 C 
ATOM     11  C   UNL     1       7.372   4.310  15.853  0.00  0.00    +0.000 C 
ATOM     12  H   UNL     1       7.036   5.232  20.328  0.00  0.00    +0.000 HD
ENDROOT
BRANCH   1  13
ATOM     13  C   UNL     1       3.405   6.580  18.109  0.00  0.00    +0.000 C 
BRANCH  13  14
ATOM     14  C   UNL     1       2.557   6.419  19.370  0.00  0.00    +0.000 C 
BRANCH  14  19
ATOM     15  C   UNL     1       1.465   3.100  20.931  0.00  0.00    +0.000 A 
ATOM     16  C   UNL     1       1.103   2.382  19.789  0.00  0.00    +0.000 A 
ATOM     17  C   UNL     1       1.165   2.976  18.527  0.00  0.00    +0.000 A 
ATOM     18  C   UNL     1       1.624   4.285  18.392  0.00  0.00    +0.000 A 
ATOM     19  C   UNL     1       2.036   5.008  19.518  0.00  0.00    +0.000 A 
ATOM     20  C   UNL     1       1.981   4.392  20.779  0.00  0.00    +0.000 A 
BRANCH  15  21
ATOM     21  N   UNL     1       1.527   2.453  22.173  0.00  0.00    +0.000 N 
ATOM     22  H   UNL     1       0.617   2.302  22.596  0.00  0.00    +0.000 HD
ATOM     23  H   UNL     1       2.182   2.882  22.820  0.00  0.00    +0.000 HD
ENDBRANCH  15  21
ENDBRANCH  14  19
ENDBRANCH  13  14
ENDBRANCH   1  13
TORSDOF 4
ENDMDL
