MODEL 1
REMARK VINA RESULT:      -7.8      0.000      0.000
REMARK  Name = 
REMARK  5 active torsions:
REMARK  status: ('A' for Active; 'I' for Inactive)
REMARK    1  A    between atoms: N_1  and  N_2
REMARK    2  A    between atoms: C_3  and  C_4
REMARK    3  A    between atoms: C_3  and  C_14
REMARK    4  A    between atoms: C_4  and  C_5
REMARK    5  A    between atoms: C_17  and  N_18
REMARK                            x       y       z     vdW  Elec       q    Type
REMARK                         _______ _______ _______ _____ _____    ______ ____
ROOT
ATOM      1  N   UNL     1       7.214   6.962  17.890  0.00  0.00    +0.000 NA
ATOM      2  C   UNL     1       6.894   5.739  17.562  0.00  0.00    +0.000 C 
ENDROOT
BRANCH   2   3
ATOM      3  C   UNL     1       6.580   5.183  16.195  0.00  0.00    +0.000 A 
ATOM      4  C   UNL     1       7.570   5.098  15.204  0.00  0.00    +0.000 A 
ATOM      5  C   UNL     1       7.288   4.546  13.948  0.00  0.00    +0.000 A 
ATOM      6  C   UNL     1       6.020   4.005  13.700  0.00  0.00    +0.000 A 
ATOM      7  C   UNL     1       5.038   4.032  14.692  0.00  0.00    +0.000 A 
ATOM      8  C   UNL     1       5.317   4.631  15.928  0.00  0.00    +0.000 A 
BRANCH   6   9
ATOM      9  N   UNL     1       5.731   3.387  12.399  0.00  0.00    +0.000 N 
ATOM     10  O   UNL     1       4.566   3.449  11.985  0.00  0.00    +0.000 OA
ATOM     11  O   UNL     1       6.667   2.847  11.795  0.00  0.00    +0.000 OA
ENDBRANCH   6   9
ENDBRANCH   2   3
BRANCH   1  12
ATOM     12  N   UNL     1       7.092   7.990  17.047  0.00  0.00    +0.000 N 
ATOM     13  H   UNL     1       7.783   8.721  17.214  0.00  0.00    +0.000 HD
ATOM     14  H   UNL     1       6.983   7.815  16.056  0.00  0.00    +0.000 HD
ENDBRANCH   1  12
BRANCH   2  15
ATOM     15  C   UNL     1       6.850   4.773  18.750  0.00  0.00    +0.000 C 
BRANCH  15  16
ATOM     16  C   UNL     1       5.450   4.534  19.180  0.00  0.00    +0.000 A 
ATOM     17  N   UNL     1       4.557   5.453  19.482  0.00  0.00    +0.000 NA
ATOM     18  C   UNL     1       3.411   4.762  19.791  0.00  0.00    +0.000 A 
ATOM     19  C   UNL     1       2.150   5.242  20.172  0.00  0.00    +0.000 A 
ATOM     20  C   UNL     1       1.126   4.318  20.413  0.00  0.00    +0.000 A 
ATOM     21  C   UNL     1       1.355   2.946  20.280  0.00  0.00    +0.000 A 
ATOM     22  C   UNL     1       2.611   2.448  19.911  0.00  0.00    +0.000 A 
ATOM     23  C   UNL     1       3.612   3.392  19.675  0.00  0.00    +0.000 A 
ATOM     24  N   UNL     1       4.928   3.270  19.307  0.00  0.00    +0.000 N 
ATOM     25  H   UNL     1       5.422   2.406  19.138  0.00  0.00    +0.000 HD
ENDBRANCH  15  16
ENDBRANCH   2  15
TORSDOF 5
ENDMDL
MODEL 2
REMARK VINA RESULT:      -7.8      0.191      1.415
REMARK  Name = 
REMARK  5 active torsions:
REMARK  status: ('A' for Active; 'I' for Inactive)
REMARK    1  A    between atoms: N_1  and  N_2
REMARK    2  A    between atoms: C_3  and  C_4
REMARK    3  A    between atoms: C_3  and  C_14
REMARK    4  A    between atoms: C_4  and  C_5
REMARK    5  A    between atoms: C_17  and  N_18
REMARK                            x       y       z     vdW  Elec       q    Type
REMARK                         _______ _______ _______ _____ _____    ______ ____
ROOT
ATOM      1  N   UNL     1       7.231   6.873  17.879  0.00  0.00    +0.000 NA
ATOM      2  C   UNL     1       6.907   5.655  17.537  0.00  0.00    +0.000 C 
ENDROOT
BRANCH   2   3
ATOM      3  C   UNL     1       6.592   5.116  16.164  0.00  0.00    +0.000 A 
ATOM      4  C   UNL     1       7.551   5.145  15.139  0.00  0.00    +0.000 A 
ATOM      5  C   UNL     1       7.271   4.609  13.875  0.00  0.00    +0.000 A 
ATOM      6  C   UNL     1       6.046   3.971  13.650  0.00  0.00    +0.000 A 
ATOM      7  C   UNL     1       5.100   3.884  14.675  0.00  0.00    +0.000 A 
ATOM      8  C   UNL     1       5.371   4.467  15.920  0.00  0.00    +0.000 A 
BRANCH   6   9
ATOM      9  N   UNL     1       5.763   3.369  12.340  0.00  0.00    +0.000 N 
ATOM     10  O   UNL     1       6.692   2.786  11.768  0.00  0.00    +0.000 OA
ATOM     11  O   UNL     1       4.614   3.478  11.891  0.00  0.00    +0.000 OA
ENDBRANCH   6   9
ENDBRANCH   2   3
BRANCH   1  12
ATOM     12  N   UNL     1       7.114   7.912  17.048  0.00  0.00    +0.000 N 
ATOM     13  H   UNL     1       6.714   8.734  17.498  0.00  0.00    +0.000 HD
ATOM     14  H   UNL     1       7.893   8.167  16.453  0.00  0.00    +0.000 HD
ENDBRANCH   1  12
BRANCH   2  15
ATOM     15  C   UNL     1       6.858   4.676  18.714  0.00  0.00    +0.000 C 
BRANCH  15  16
ATOM     16  C   UNL     1       5.458   4.448  19.149  0.00  0.00    +0.000 A 
ATOM     17  N   UNL     1       4.896   3.284  19.401  0.00  0.00    +0.000 NA
ATOM     18  C   UNL     1       3.613   3.574  19.792  0.00  0.00    +0.000 A 
ATOM     19  C   UNL     1       2.580   2.712  20.186  0.00  0.00    +0.000 A 
ATOM     20  C   UNL     1       1.352   3.267  20.566  0.00  0.00    +0.000 A 
ATOM     21  C   UNL     1       1.157   4.651  20.551  0.00  0.00    +0.000 A 
ATOM     22  C   UNL     1       2.175   5.526  20.150  0.00  0.00    +0.000 A 
ATOM     23  C   UNL     1       3.387   4.945  19.779  0.00  0.00    +0.000 A 
ATOM     24  N   UNL     1       4.573   5.481  19.341  0.00  0.00    +0.000 N 
ATOM     25  H   UNL     1       4.770   6.461  19.205  0.00  0.00    +0.000 HD
ENDBRANCH  15  16
ENDBRANCH   2  15
TORSDOF 5
ENDMDL
MODEL 3
REMARK VINA RESULT:      -7.8      0.993      1.473
REMARK  Name = 
REMARK  5 active torsions:
REMARK  status: ('A' for Active; 'I' for Inactive)
REMARK    1  A    between atoms: N_1  and  N_2
REMARK    2  A    between atoms: C_3  and  C_4
REMARK    3  A    between atoms: C_3  and  C_14
REMARK    4  A    between atoms: C_4  and  C_5
REMARK    5  A    between atoms: C_17  and  N_18
REMARK                            x       y       z     vdW  Elec       q    Type
REMARK                         _______ _______ _______ _____ _____    ______ ____
ROOT
ATOM      1  N   UNL     1       7.683   7.357  18.226  0.00  0.00    +0.000 NA
ATOM      2  C   UNL     1       7.062   6.222  18.046  0.00  0.00    +0.000 C 
ENDROOT
BRANCH   2   3
ATOM      3  C   UNL     1       6.665   5.563  16.748  0.00  0.00    +0.000 A 
ATOM      4  C   UNL     1       5.576   6.038  15.999  0.00  0.00    +0.000 A 
ATOM      5  C   UNL     1       5.232   5.450  14.775  0.00  0.00    +0.000 A 
ATOM      6  C   UNL     1       6.027   4.422  14.254  0.00  0.00    +0.000 A 
ATOM      7  C   UNL     1       7.146   3.973  14.959  0.00  0.00    +0.000 A 
ATOM      8  C   UNL     1       7.453   4.535  16.206  0.00  0.00    +0.000 A 
BRANCH   6   9
ATOM      9  N   UNL     1       5.697   3.830  12.952  0.00  0.00    +0.000 N 
ATOM     10  O   UNL     1       6.636   3.566  12.190  0.00  0.00    +0.000 OA
ATOM     11  O   UNL     1       4.502   3.627  12.696  0.00  0.00    +0.000 OA
ENDBRANCH   6   9
ENDBRANCH   2   3
BRANCH   1  12
ATOM     12  N   UNL     1       7.872   8.240  17.242  0.00  0.00    +0.000 N 
ATOM     13  H   UNL     1       8.368   9.075  17.552  0.00  0.00    +0.000 HD
ATOM     14  H   UNL     1       8.220   7.924  16.346  0.00  0.00    +0.000 HD
ENDBRANCH   1  12
BRANCH   2  15
ATOM     15  C   UNL     1       6.717   5.494  19.349  0.00  0.00    +0.000 C 
BRANCH  15  16
ATOM     16  C   UNL     1       5.398   4.823  19.240  0.00  0.00    +0.000 A 
ATOM     17  N   UNL     1       4.217   5.395  19.351  0.00  0.00    +0.000 NA
ATOM     18  C   UNL     1       3.303   4.390  19.151  0.00  0.00    +0.000 A 
ATOM     19  C   UNL     1       1.902   4.440  19.148  0.00  0.00    +0.000 A 
ATOM     20  C   UNL     1       1.190   3.262  18.892  0.00  0.00    +0.000 A 
ATOM     21  C   UNL     1       1.860   2.060  18.648  0.00  0.00    +0.000 A 
ATOM     22  C   UNL     1       3.259   1.990  18.658  0.00  0.00    +0.000 A 
ATOM     23  C   UNL     1       3.942   3.179  18.914  0.00  0.00    +0.000 A 
ATOM     24  N   UNL     1       5.279   3.476  18.999  0.00  0.00    +0.000 N 
ATOM     25  H   UNL     1       6.042   2.826  18.885  0.00  0.00    +0.000 HD
ENDBRANCH  15  16
ENDBRANCH   2  15
TORSDOF 5
ENDMDL
MODEL 4
REMARK VINA RESULT:      -7.8      2.406      3.541
REMARK  Name = 
REMARK  5 active torsions:
REMARK  status: ('A' for Active; 'I' for Inactive)
REMARK    1  A    between atoms: N_1  and  N_2
REMARK    2  A    between atoms: C_3  and  C_4
REMARK    3  A    between atoms: C_3  and  C_14
REMARK    4  A    between atoms: C_4  and  C_5
REMARK    5  A    between atoms: C_17  and  N_18
REMARK                            x       y       z     vdW  Elec       q    Type
REMARK                         _______ _______ _______ _____ _____    ______ ____
ROOT
ATOM      1  N   UNL     1       6.107   4.906  19.728  0.00  0.00    +0.000 NA
ATOM      2  C   UNL     1       5.398   4.694  18.652  0.00  0.00    +0.000 C 
ENDROOT
BRANCH   2   3
ATOM      3  C   UNL     1       5.863   4.618  17.219  0.00  0.00    +0.000 A 
ATOM      4  C   UNL     1       5.003   4.174  16.202  0.00  0.00    +0.000 A 
ATOM      5  C   UNL     1       5.422   4.141  14.866  0.00  0.00    +0.000 A 
ATOM      6  C   UNL     1       6.692   4.624  14.528  0.00  0.00    +0.000 A 
ATOM      7  C   UNL     1       7.542   5.120  15.520  0.00  0.00    +0.000 A 
ATOM      8  C   UNL     1       7.130   5.104  16.859  0.00  0.00    +0.000 A 
BRANCH   6   9
ATOM      9  N   UNL     1       7.123   4.631  13.124  0.00  0.00    +0.000 N 
ATOM     10  O   UNL     1       7.943   5.492  12.783  0.00  0.00    +0.000 OA
ATOM     11  O   UNL     1       6.644   3.774  12.369  0.00  0.00    +0.000 OA
ENDBRANCH   6   9
ENDBRANCH   2   3
BRANCH   1  12
ATOM     12  N   UNL     1       7.376   5.320  19.685  0.00  0.00    +0.000 N 
ATOM     13  H   UNL     1       7.989   4.663  19.206  0.00  0.00    +0.000 HD
ATOM     14  H   UNL     1       7.582   6.273  19.413  0.00  0.00    +0.000 HD
ENDBRANCH   1  12
BRANCH   2  15
ATOM     15  C   UNL     1       3.904   4.494  18.928  0.00  0.00    +0.000 C 
BRANCH  15  16
ATOM     16  C   UNL     1       3.207   5.801  19.011  0.00  0.00    +0.000 A 
ATOM     17  N   UNL     1       3.013   6.649  18.022  0.00  0.00    +0.000 NA
ATOM     18  C   UNL     1       2.306   7.691  18.567  0.00  0.00    +0.000 A 
ATOM     19  C   UNL     1       1.824   8.861  17.963  0.00  0.00    +0.000 A 
ATOM     20  C   UNL     1       1.100   9.770  18.744  0.00  0.00    +0.000 A 
ATOM     21  C   UNL     1       0.864   9.520  20.098  0.00  0.00    +0.000 A 
ATOM     22  C   UNL     1       1.346   8.362  20.721  0.00  0.00    +0.000 A 
ATOM     23  C   UNL     1       2.063   7.474  19.918  0.00  0.00    +0.000 A 
ATOM     24  N   UNL     1       2.669   6.271  20.184  0.00  0.00    +0.000 N 
ATOM     25  H   UNL     1       2.697   5.803  21.077  0.00  0.00    +0.000 HD
ENDBRANCH  15  16
ENDBRANCH   2  15
TORSDOF 5
ENDMDL
MODEL 5
REMARK VINA RESULT:      -7.7      0.108      1.037
REMARK  Name = 
REMARK  5 active torsions:
REMARK  status: ('A' for Active; 'I' for Inactive)
REMARK    1  A    between atoms: N_1  and  N_2
REMARK    2  A    between atoms: C_3  and  C_4
REMARK    3  A    between atoms: C_3  and  C_14
REMARK    4  A    between atoms: C_4  and  C_5
REMARK    5  A    between atoms: C_17  and  N_18
REMARK                            x       y       z     vdW  Elec       q    Type
REMARK                         _______ _______ _______ _____ _____    ______ ____
ROOT
ATOM      1  N   UNL     1       7.245   6.991  17.890  0.00  0.00    +0.000 NA
ATOM      2  C   UNL     1       6.927   5.748  17.647  0.00  0.00    +0.000 C 
ENDROOT
BRANCH   2   3
ATOM      3  C   UNL     1       6.633   5.096  16.318  0.00  0.00    +0.000 A 
ATOM      4  C   UNL     1       5.343   4.638  16.007  0.00  0.00    +0.000 A 
ATOM      5  C   UNL     1       5.062   4.068  14.758  0.00  0.00    +0.000 A 
ATOM      6  C   UNL     1       6.062   4.019  13.780  0.00  0.00    +0.000 A 
ATOM      7  C   UNL     1       7.338   4.519  14.053  0.00  0.00    +0.000 A 
ATOM      8  C   UNL     1       7.621   5.043  15.322  0.00  0.00    +0.000 A 
BRANCH   6   9
ATOM      9  N   UNL     1       5.763   3.461  12.455  0.00  0.00    +0.000 N 
ATOM     10  O   UNL     1       4.593   3.529  12.058  0.00  0.00    +0.000 OA
ATOM     11  O   UNL     1       6.697   2.961  11.814  0.00  0.00    +0.000 OA
ENDBRANCH   6   9
ENDBRANCH   2   3
BRANCH   1  12
ATOM     12  N   UNL     1       7.138   7.957  16.974  0.00  0.00    +0.000 N 
ATOM     13  H   UNL     1       7.896   8.635  17.027  0.00  0.00    +0.000 HD
ATOM     14  H   UNL     1       6.935   7.713  16.012  0.00  0.00    +0.000 HD
ENDBRANCH   1  12
BRANCH   2  15
ATOM     15  C   UNL     1       6.863   4.870  18.901  0.00  0.00    +0.000 C 
BRANCH  15  16
ATOM     16  C   UNL     1       5.454   4.581  19.266  0.00  0.00    +0.000 A 
ATOM     17  N   UNL     1       4.520   5.467  19.543  0.00  0.00    +0.000 NA
ATOM     18  C   UNL     1       3.385   4.736  19.792  0.00  0.00    +0.000 A 
ATOM     19  C   UNL     1       2.094   5.170  20.126  0.00  0.00    +0.000 A 
ATOM     20  C   UNL     1       1.091   4.211  20.309  0.00  0.00    +0.000 A 
ATOM     21  C   UNL     1       1.368   2.849  20.165  0.00  0.00    +0.000 A 
ATOM     22  C   UNL     1       2.654   2.397  19.843  0.00  0.00    +0.000 A 
ATOM     23  C   UNL     1       3.633   3.375  19.665  0.00  0.00    +0.000 A 
ATOM     24  N   UNL     1       4.968   3.300  19.352  0.00  0.00    +0.000 N 
ATOM     25  H   UNL     1       5.496   2.455  19.191  0.00  0.00    +0.000 HD
ENDBRANCH  15  16
ENDBRANCH   2  15
TORSDOF 5
ENDMDL
MODEL 6
REMARK VINA RESULT:      -7.7      0.140      1.747
REMARK  Name = 
REMARK  5 active torsions:
REMARK  status: ('A' for Active; 'I' for Inactive)
REMARK    1  A    between atoms: N_1  and  N_2
REMARK    2  A    between atoms: C_3  and  C_4
REMARK    3  A    between atoms: C_3  and  C_14
REMARK    4  A    between atoms: C_4  and  C_5
REMARK    5  A    between atoms: C_17  and  N_18
REMARK                            x       y       z     vdW  Elec       q    Type
REMARK                         _______ _______ _______ _____ _____    ______ ____
ROOT
ATOM      1  N   UNL     1       7.085   6.977  17.889  0.00  0.00    +0.000 NA
ATOM      2  C   UNL     1       6.824   5.723  17.634  0.00  0.00    +0.000 C 
ENDROOT
BRANCH   2   3
ATOM      3  C   UNL     1       6.568   5.069  16.298  0.00  0.00    +0.000 A 
ATOM      4  C   UNL     1       5.303   4.555  15.975  0.00  0.00    +0.000 A 
ATOM      5  C   UNL     1       5.055   3.983  14.721  0.00  0.00    +0.000 A 
ATOM      6  C   UNL     1       6.062   3.988  13.748  0.00  0.00    +0.000 A 
ATOM      7  C   UNL     1       7.312   4.544  14.033  0.00  0.00    +0.000 A 
ATOM      8  C   UNL     1       7.563   5.069  15.308  0.00  0.00    +0.000 A 
BRANCH   6   9
ATOM      9  N   UNL     1       5.796   3.428  12.417  0.00  0.00    +0.000 N 
ATOM     10  O   UNL     1       6.753   2.938  11.803  0.00  0.00    +0.000 OA
ATOM     11  O   UNL     1       4.634   3.475  11.992  0.00  0.00    +0.000 OA
ENDBRANCH   6   9
ENDBRANCH   2   3
BRANCH   1  12
ATOM     12  N   UNL     1       6.942   7.944  16.979  0.00  0.00    +0.000 N 
ATOM     13  H   UNL     1       7.012   7.598  16.023  0.00  0.00    +0.000 HD
ATOM     14  H   UNL     1       6.184   8.608  17.070  0.00  0.00    +0.000 HD
ENDBRANCH   1  12
BRANCH   2  15
ATOM     15  C   UNL     1       6.791   4.833  18.881  0.00  0.00    +0.000 C 
BRANCH  15  16
ATOM     16  C   UNL     1       5.392   4.510  19.255  0.00  0.00    +0.000 A 
ATOM     17  N   UNL     1       4.888   3.306  19.433  0.00  0.00    +0.000 NA
ATOM     18  C   UNL     1       3.579   3.507  19.794  0.00  0.00    +0.000 A 
ATOM     19  C   UNL     1       2.583   2.573  20.112  0.00  0.00    +0.000 A 
ATOM     20  C   UNL     1       1.315   3.043  20.475  0.00  0.00    +0.000 A 
ATOM     21  C   UNL     1       1.044   4.413  20.518  0.00  0.00    +0.000 A 
ATOM     22  C   UNL     1       2.024   5.360  20.193  0.00  0.00    +0.000 A 
ATOM     23  C   UNL     1       3.278   4.863  19.836  0.00  0.00    +0.000 A 
ATOM     24  N   UNL     1       4.446   5.483  19.465  0.00  0.00    +0.000 N 
ATOM     25  H   UNL     1       4.592   6.478  19.382  0.00  0.00    +0.000 HD
ENDBRANCH  15  16
ENDBRANCH   2  15
TORSDOF 5
ENDMDL
MODEL 7
REMARK VINA RESULT:      -7.7      0.973      1.230
REMARK  Name = 
REMARK  5 active torsions:
REMARK  status: ('A' for Active; 'I' for Inactive)
REMARK    1  A    between atoms: N_1  and  N_2
REMARK    2  A    between atoms: C_3  and  C_4
REMARK    3  A    between atoms: C_3  and  C_14
REMARK    4  A    between atoms: C_4  and  C_5
REMARK    5  A    between atoms: C_17  and  N_18
REMARK                            x       y       z     vdW  Elec       q    Type
REMARK                         _______ _______ _______ _____ _____    ______ ____
ROOT
ATOM      1  N   UNL     1       7.598   7.463  18.255  0.00  0.00    +0.000 NA
ATOM      2  C   UNL     1       7.086   6.287  18.008  0.00  0.00    +0.000 C 
ENDROOT
BRANCH   2   3
ATOM      3  C   UNL     1       6.756   5.666  16.673  0.00  0.00    +0.000 A 
ATOM      4  C   UNL     1       7.516   4.603  16.162  0.00  0.00    +0.000 A 
ATOM      5  C   UNL     1       7.186   4.001  14.941  0.00  0.00    +0.000 A 
ATOM      6  C   UNL     1       6.039   4.416  14.255  0.00  0.00    +0.000 A 
ATOM      7  C   UNL     1       5.238   5.436  14.775  0.00  0.00    +0.000 A 
ATOM      8  C   UNL     1       5.606   6.064  15.973  0.00  0.00    +0.000 A 
BRANCH   6   9
ATOM      9  N   UNL     1       5.663   3.761  12.995  0.00  0.00    +0.000 N 
ATOM     10  O   UNL     1       6.572   3.271  12.313  0.00  0.00    +0.000 OA
ATOM     11  O   UNL     1       4.462   3.735  12.693  0.00  0.00    +0.000 OA
ENDBRANCH   6   9
ENDBRANCH   2   3
BRANCH   1  12
ATOM     12  N   UNL     1       7.706   8.413  17.322  0.00  0.00    +0.000 N 
ATOM     13  H   UNL     1       8.088   8.062  16.445  0.00  0.00    +0.000 HD
ATOM     14  H   UNL     1       6.929   9.040  17.155  0.00  0.00    +0.000 HD
ENDBRANCH   1  12
BRANCH   2  15
ATOM     15  C   UNL     1       6.808   5.459  19.267  0.00  0.00    +0.000 C 
BRANCH  15  16
ATOM     16  C   UNL     1       5.472   4.818  19.187  0.00  0.00    +0.000 A 
ATOM     17  N   UNL     1       4.306   5.421  19.289  0.00  0.00    +0.000 NA
ATOM     18  C   UNL     1       3.367   4.434  19.125  0.00  0.00    +0.000 A 
ATOM     19  C   UNL     1       1.967   4.518  19.130  0.00  0.00    +0.000 A 
ATOM     20  C   UNL     1       1.225   3.351  18.913  0.00  0.00    +0.000 A 
ATOM     21  C   UNL     1       1.863   2.127  18.698  0.00  0.00    +0.000 A 
ATOM     22  C   UNL     1       3.260   2.022  18.700  0.00  0.00    +0.000 A 
ATOM     23  C   UNL     1       3.973   3.201  18.917  0.00  0.00    +0.000 A 
ATOM     24  N   UNL     1       5.319   3.468  18.985  0.00  0.00    +0.000 N 
ATOM     25  H   UNL     1       6.065   2.796  18.884  0.00  0.00    +0.000 HD
ENDBRANCH  15  16
ENDBRANCH   2  15
TORSDOF 5
ENDMDL
MODEL 8
REMARK VINA RESULT:      -7.6      3.357      6.675
REMARK  Name = 
REMARK  5 active torsions:
REMARK  status: ('A' for Active; 'I' for Inactive)
REMARK    1  A    between atoms: N_1  and  N_2
REMARK    2  A    between atoms: C_3  and  C_4
REMARK    3  A    between atoms: C_3  and  C_14
REMARK    4  A    between atoms: C_4  and  C_5
REMARK    5  A    between atoms: C_17  and  N_18
REMARK                            x       y       z     vdW  Elec       q    Type
REMARK                         _______ _______ _______ _____ _____    ______ ____
ROOT
ATOM      1  N   UNL     1       7.342   5.953  18.760  0.00  0.00    +0.000 NA
ATOM      2  C   UNL     1       6.086   5.831  18.423  0.00  0.00    +0.000 C 
ENDROOT
BRANCH   2   3
ATOM      3  C   UNL     1       5.006   5.024  19.099  0.00  0.00    +0.000 A 
ATOM      4  C   UNL     1       3.886   5.649  19.669  0.00  0.00    +0.000 A 
ATOM      5  C   UNL     1       2.864   4.897  20.262  0.00  0.00    +0.000 A 
ATOM      6  C   UNL     1       2.923   3.499  20.223  0.00  0.00    +0.000 A 
ATOM      7  C   UNL     1       4.003   2.858  19.611  0.00  0.00    +0.000 A 
ATOM      8  C   UNL     1       5.044   3.621  19.064  0.00  0.00    +0.000 A 
BRANCH   6   9
ATOM      9  N   UNL     1       1.834   2.703  20.805  0.00  0.00    +0.000 N 
ATOM     10  O   UNL     1       1.038   2.167  20.024  0.00  0.00    +0.000 OA
ATOM     11  O   UNL     1       1.780   2.614  22.039  0.00  0.00    +0.000 OA
ENDBRANCH   6   9
ENDBRANCH   2   3
BRANCH   1  12
ATOM     12  N   UNL     1       7.925   5.170  19.671  0.00  0.00    +0.000 N 
ATOM     13  H   UNL     1       7.680   4.186  19.560  0.00  0.00    +0.000 HD
ATOM     14  H   UNL     1       8.912   5.278  19.866  0.00  0.00    +0.000 HD
ENDBRANCH   1  12
BRANCH   2  15
ATOM     15  C   UNL     1       5.701   6.636  17.178  0.00  0.00    +0.000 C 
BRANCH  15  16
ATOM     16  C   UNL     1       5.889   5.825  15.951  0.00  0.00    +0.000 A 
ATOM     17  N   UNL     1       5.009   5.009  15.409  0.00  0.00    +0.000 NA
ATOM     18  C   UNL     1       5.617   4.509  14.284  0.00  0.00    +0.000 A 
ATOM     19  C   UNL     1       5.130   3.607  13.328  0.00  0.00    +0.000 A 
ATOM     20  C   UNL     1       5.951   3.269  12.245  0.00  0.00    +0.000 A 
ATOM     21  C   UNL     1       7.230   3.818  12.119  0.00  0.00    +0.000 A 
ATOM     22  C   UNL     1       7.737   4.713  13.070  0.00  0.00    +0.000 A 
ATOM     23  C   UNL     1       6.896   5.031  14.137  0.00  0.00    +0.000 A 
ATOM     24  N   UNL     1       7.057   5.851  15.227  0.00  0.00    +0.000 N 
ATOM     25  H   UNL     1       7.878   6.394  15.449  0.00  0.00    +0.000 HD
ENDBRANCH  15  16
ENDBRANCH   2  15
TORSDOF 5
ENDMDL
MODEL 9
REMARK VINA RESULT:      -7.6      3.350      6.599
REMARK  Name = 
REMARK  5 active torsions:
REMARK  status: ('A' for Active; 'I' for Inactive)
REMARK    1  A    between atoms: N_1  and  N_2
REMARK    2  A    between atoms: C_3  and  C_4
REMARK    3  A    between atoms: C_3  and  C_14
REMARK    4  A    between atoms: C_4  and  C_5
REMARK    5  A    between atoms: C_17  and  N_18
REMARK                            x       y       z     vdW  Elec       q    Type
REMARK                         _______ _______ _______ _____ _____    ______ ____
ROOT
ATOM      1  N   UNL     1       7.505   6.036  18.950  0.00  0.00    +0.000 NA
ATOM      2  C   UNL     1       6.288   5.939  18.485  0.00  0.00    +0.000 C 
ENDROOT
BRANCH   2   3
ATOM      3  C   UNL     1       5.135   5.133  19.029  0.00  0.00    +0.000 A 
ATOM      4  C   UNL     1       5.225   3.738  19.158  0.00  0.00    +0.000 A 
ATOM      5  C   UNL     1       4.169   2.994  19.700  0.00  0.00    +0.000 A 
ATOM      6  C   UNL     1       3.035   3.656  20.185  0.00  0.00    +0.000 A 
ATOM      7  C   UNL     1       2.950   5.048  20.115  0.00  0.00    +0.000 A 
ATOM      8  C   UNL     1       3.992   5.778  19.527  0.00  0.00    +0.000 A 
BRANCH   6   9
ATOM      9  N   UNL     1       1.942   2.885  20.793  0.00  0.00    +0.000 N 
ATOM     10  O   UNL     1       2.116   2.456  21.940  0.00  0.00    +0.000 OA
ATOM     11  O   UNL     1       0.914   2.715  20.123  0.00  0.00    +0.000 OA
ENDBRANCH   6   9
ENDBRANCH   2   3
BRANCH   1  12
ATOM     12  N   UNL     1       7.982   5.224  19.896  0.00  0.00    +0.000 N 
ATOM     13  H   UNL     1       8.637   5.690  20.523  0.00  0.00    +0.000 HD
ATOM     14  H   UNL     1       7.346   4.630  20.414  0.00  0.00    +0.000 HD
ENDBRANCH   1  12
BRANCH   2  15
ATOM     15  C   UNL     1       6.040   6.778  17.227  0.00  0.00    +0.000 C 
BRANCH  15  16
ATOM     16  C   UNL     1       6.114   5.931  16.011  0.00  0.00    +0.000 A 
ATOM     17  N   UNL     1       5.163   5.150  15.542  0.00  0.00    +0.000 NA
ATOM     18  C   UNL     1       5.676   4.596  14.396  0.00  0.00    +0.000 A 
ATOM     19  C   UNL     1       5.089   3.699  13.493  0.00  0.00    +0.000 A 
ATOM     20  C   UNL     1       5.825   3.297  12.372  0.00  0.00    +0.000 A 
ATOM     21  C   UNL     1       7.120   3.777  12.157  0.00  0.00    +0.000 A 
ATOM     22  C   UNL     1       7.726   4.665  13.054  0.00  0.00    +0.000 A 
ATOM     23  C   UNL     1       6.968   5.049  14.161  0.00  0.00    +0.000 A 
ATOM     24  N   UNL     1       7.235   5.882  15.219  0.00  0.00    +0.000 N 
ATOM     25  H   UNL     1       8.094   6.388  15.378  0.00  0.00    +0.000 HD
ENDBRANCH  15  16
ENDBRANCH   2  15
TORSDOF 5
ENDMDL
