MODEL 1
REMARK VINA RESULT:      -7.1      0.000      0.000
REMARK  Name = 
REMARK  7 active torsions:
REMARK  status: ('A' for Active; 'I' for Inactive)
REMARK    1  A    between atoms: C_1  and  N_2
REMARK    2  A    between atoms: N_2  and  C_3
REMARK    3  A    between atoms: C_3  and  N_5
REMARK    4  A    between atoms: N_5  and  C_6
REMARK    5  A    between atoms: C_6  and  C_7
REMARK    6  A    between atoms: C_16  and  O_17
REMARK    7  A    between atoms: O_17  and  C_18
REMARK                            x       y       z     vdW  Elec       q    Type
REMARK                         _______ _______ _______ _____ _____    ______ ____
ROOT
ATOM      1  C   UNL     1       6.504   4.218  14.215  0.00  0.00    +0.000 A 
ATOM      2  C   UNL     1       5.319   3.961  14.872  0.00  0.00    +0.000 A 
ATOM      3  C   UNL     1       5.449   4.471  16.194  0.00  0.00    +0.000 A 
ATOM      4  C   UNL     1       6.748   4.965  16.267  0.00  0.00    +0.000 A 
ATOM      5  C   UNL     1       7.288   5.579  17.395  0.00  0.00    +0.000 A 
ATOM      6  C   UNL     1       6.449   5.706  18.508  0.00  0.00    +0.000 A 
ATOM      7  C   UNL     1       5.127   5.229  18.495  0.00  0.00    +0.000 A 
ATOM      8  C   UNL     1       4.290   5.373  19.612  0.00  0.00    +0.000 A 
ATOM      9  C   UNL     1       2.969   4.907  19.590  0.00  0.00    +0.000 A 
ATOM     10  C   UNL     1       2.456   4.291  18.448  0.00  0.00    +0.000 A 
ATOM     11  C   UNL     1       3.273   4.139  17.326  0.00  0.00    +0.000 A 
ATOM     12  C   UNL     1       4.606   4.600  17.336  0.00  0.00    +0.000 A 
ATOM     13  O   UNL     1       7.396   4.794  15.077  0.00  0.00    +0.000 OA
ENDROOT
BRANCH  10  14
ATOM     14  O   UNL     1       1.185   3.799  18.311  0.00  0.00    +0.000 OA
ATOM     15  C   UNL     1       0.946   2.487  18.809  0.00  0.00    +0.000 C 
ENDBRANCH  10  14
BRANCH   1  16
ATOM     16  C   UNL     1       6.907   4.090  12.792  0.00  0.00    +0.000 C 
BRANCH  16  17
ATOM     17  N   UNL     1       6.762   2.725  12.316  0.00  0.00    +0.000 N 
ATOM     18  H   UNL     1       7.608   2.176  12.321  0.00  0.00    +0.000 HD
BRANCH  17  19
ATOM     19  C   UNL     1       5.735   2.294  11.520  0.00  0.00    +0.000 C 
ATOM     20  S   UNL     1       4.271   3.065  11.297  0.00  0.00    +0.000 S 
BRANCH  19  22
ATOM     21  C   UNL     1       6.245  -0.164  11.485  0.00  0.00    +0.000 C 
ATOM     22  N   UNL     1       5.934   1.108  10.883  0.00  0.00    +0.000 N 
ATOM     23  H   UNL     1       5.780   1.138   9.878  0.00  0.00    +0.000 HD
ENDBRANCH  19  22
ENDBRANCH  17  19
ENDBRANCH  16  17
ENDBRANCH   1  16
TORSDOF 5
ENDMDL
MODEL 2
REMARK VINA RESULT:      -6.9      1.634      1.850
REMARK  Name = 
REMARK  7 active torsions:
REMARK  status: ('A' for Active; 'I' for Inactive)
REMARK    1  A    between atoms: C_1  and  N_2
REMARK    2  A    between atoms: N_2  and  C_3
REMARK    3  A    between atoms: C_3  and  N_5
REMARK    4  A    between atoms: N_5  and  C_6
REMARK    5  A    between atoms: C_6  and  C_7
REMARK    6  A    between atoms: C_16  and  O_17
REMARK    7  A    between atoms: O_17  and  C_18
REMARK                            x       y       z     vdW  Elec       q    Type
REMARK                         _______ _______ _______ _____ _____    ______ ____
ROOT
ATOM      1  C   UNL     1       6.021   4.382  15.003  0.00  0.00    +0.000 A 
ATOM      2  C   UNL     1       5.448   3.791  16.110  0.00  0.00    +0.000 A 
ATOM      3  C   UNL     1       4.782   4.814  16.840  0.00  0.00    +0.000 A 
ATOM      4  C   UNL     1       5.045   5.989  16.141  0.00  0.00    +0.000 A 
ATOM      5  C   UNL     1       4.556   7.241  16.507  0.00  0.00    +0.000 A 
ATOM      6  C   UNL     1       3.743   7.295  17.645  0.00  0.00    +0.000 A 
ATOM      7  C   UNL     1       3.438   6.142  18.391  0.00  0.00    +0.000 A 
ATOM      8  C   UNL     1       2.611   6.205  19.523  0.00  0.00    +0.000 A 
ATOM      9  C   UNL     1       2.302   5.051  20.256  0.00  0.00    +0.000 A 
ATOM     10  C   UNL     1       2.809   3.811  19.869  0.00  0.00    +0.000 A 
ATOM     11  C   UNL     1       3.634   3.728  18.745  0.00  0.00    +0.000 A 
ATOM     12  C   UNL     1       3.957   4.882  18.001  0.00  0.00    +0.000 A 
ATOM     13  O   UNL     1       5.813   5.734  15.041  0.00  0.00    +0.000 OA
ENDROOT
BRANCH  10  14
ATOM     14  O   UNL     1       2.575   2.621  20.505  0.00  0.00    +0.000 OA
ATOM     15  C   UNL     1       1.645   2.639  21.582  0.00  0.00    +0.000 C 
ENDBRANCH  10  14
BRANCH   1  16
ATOM     16  C   UNL     1       6.680   3.821  13.798  0.00  0.00    +0.000 C 
BRANCH  16  17
ATOM     17  N   UNL     1       5.895   4.060  12.599  0.00  0.00    +0.000 N 
ATOM     18  H   UNL     1       5.546   5.000  12.495  0.00  0.00    +0.000 HD
BRANCH  17  19
ATOM     19  C   UNL     1       5.279   3.075  11.875  0.00  0.00    +0.000 C 
ATOM     20  S   UNL     1       3.855   3.225  11.017  0.00  0.00    +0.000 S 
BRANCH  19  22
ATOM     21  C   UNL     1       6.805   1.322  10.923  0.00  0.00    +0.000 C 
ATOM     22  N   UNL     1       5.885   1.856  11.896  0.00  0.00    +0.000 N 
ATOM     23  H   UNL     1       5.700   1.307  12.732  0.00  0.00    +0.000 HD
ENDBRANCH  19  22
ENDBRANCH  17  19
ENDBRANCH  16  17
ENDBRANCH   1  16
TORSDOF 5
ENDMDL
MODEL 3
REMARK VINA RESULT:      -6.9      1.843      2.251
REMARK  Name = 
REMARK  7 active torsions:
REMARK  status: ('A' for Active; 'I' for Inactive)
REMARK    1  A    between atoms: C_1  and  N_2
REMARK    2  A    between atoms: N_2  and  C_3
REMARK    3  A    between atoms: C_3  and  N_5
REMARK    4  A    between atoms: N_5  and  C_6
REMARK    5  A    between atoms: C_6  and  C_7
REMARK    6  A    between atoms: C_16  and  O_17
REMARK    7  A    between atoms: O_17  and  C_18
REMARK                            x       y       z     vdW  Elec       q    Type
REMARK                         _______ _______ _______ _____ _____    ______ ____
ROOT
ATOM      1  C   UNL     1       5.899   4.858  15.092  0.00  0.00    +0.000 A 
ATOM      2  C   UNL     1       5.252   4.151  16.085  0.00  0.00    +0.000 A 
ATOM      3  C   UNL     1       4.559   5.095  16.892  0.00  0.00    +0.000 A 
ATOM      4  C   UNL     1       4.880   6.339  16.356  0.00  0.00    +0.000 A 
ATOM      5  C   UNL     1       4.388   7.548  16.841  0.00  0.00    +0.000 A 
ATOM      6  C   UNL     1       3.509   7.484  17.928  0.00  0.00    +0.000 A 
ATOM      7  C   UNL     1       3.144   6.258  18.511  0.00  0.00    +0.000 A 
ATOM      8  C   UNL     1       2.251   6.203  19.592  0.00  0.00    +0.000 A 
ATOM      9  C   UNL     1       1.881   4.978  20.163  0.00  0.00    +0.000 A 
ATOM     10  C   UNL     1       2.393   3.782  19.660  0.00  0.00    +0.000 A 
ATOM     11  C   UNL     1       3.283   3.816  18.584  0.00  0.00    +0.000 A 
ATOM     12  C   UNL     1       3.666   5.042  18.003  0.00  0.00    +0.000 A 
ATOM     13  O   UNL     1       5.709   6.199  15.280  0.00  0.00    +0.000 OA
ENDROOT
BRANCH  10  14
ATOM     14  O   UNL     1       2.104   2.530  20.135  0.00  0.00    +0.000 OA
ATOM     15  C   UNL     1       1.786   2.423  21.518  0.00  0.00    +0.000 C 
ENDBRANCH  10  14
BRANCH   1  16
ATOM     16  C   UNL     1       6.622   4.430  13.869  0.00  0.00    +0.000 C 
BRANCH  16  17
ATOM     17  N   UNL     1       6.226   3.095  13.454  0.00  0.00    +0.000 N 
ATOM     18  H   UNL     1       6.626   2.342  13.993  0.00  0.00    +0.000 HD
BRANCH  17  19
ATOM     19  C   UNL     1       5.733   2.790  12.214  0.00  0.00    +0.000 C 
ATOM     20  S   UNL     1       6.331   1.630  11.173  0.00  0.00    +0.000 S 
BRANCH  19  22
ATOM     21  C   UNL     1       3.654   3.153  10.853  0.00  0.00    +0.000 C 
ATOM     22  N   UNL     1       4.675   3.537  11.796  0.00  0.00    +0.000 N 
ATOM     23  H   UNL     1       4.582   4.436  12.262  0.00  0.00    +0.000 HD
ENDBRANCH  19  22
ENDBRANCH  17  19
ENDBRANCH  16  17
ENDBRANCH   1  16
TORSDOF 5
ENDMDL
MODEL 4
REMARK VINA RESULT:      -6.8      3.517      5.448
REMARK  Name = 
REMARK  7 active torsions:
REMARK  status: ('A' for Active; 'I' for Inactive)
REMARK    1  A    between atoms: C_1  and  N_2
REMARK    2  A    between atoms: N_2  and  C_3
REMARK    3  A    between atoms: C_3  and  N_5
REMARK    4  A    between atoms: N_5  and  C_6
REMARK    5  A    between atoms: C_6  and  C_7
REMARK    6  A    between atoms: C_16  and  O_17
REMARK    7  A    between atoms: O_17  and  C_18
REMARK                            x       y       z     vdW  Elec       q    Type
REMARK                         _______ _______ _______ _____ _____    ______ ____
ROOT
ATOM      1  C   UNL     1       4.189   4.259  17.477  0.00  0.00    +0.000 A 
ATOM      2  C   UNL     1       3.708   5.546  17.354  0.00  0.00    +0.000 A 
ATOM      3  C   UNL     1       2.981   5.841  18.541  0.00  0.00    +0.000 A 
ATOM      4  C   UNL     1       3.026   4.672  19.295  0.00  0.00    +0.000 A 
ATOM      5  C   UNL     1       2.448   4.534  20.555  0.00  0.00    +0.000 A 
ATOM      6  C   UNL     1       1.797   5.656  21.079  0.00  0.00    +0.000 A 
ATOM      7  C   UNL     1       1.720   6.866  20.367  0.00  0.00    +0.000 A 
ATOM      8  C   UNL     1       1.076   7.990  20.907  0.00  0.00    +0.000 A 
ATOM      9  C   UNL     1       1.012   9.196  20.198  0.00  0.00    +0.000 A 
ATOM     10  C   UNL     1       1.596   9.305  18.935  0.00  0.00    +0.000 A 
ATOM     11  C   UNL     1       2.241   8.198  18.381  0.00  0.00    +0.000 A 
ATOM     12  C   UNL     1       2.309   6.976  19.082  0.00  0.00    +0.000 A 
ATOM     13  O   UNL     1       3.738   3.706  18.644  0.00  0.00    +0.000 OA
ENDROOT
BRANCH  10  14
ATOM     14  O   UNL     1       1.597  10.429  18.152  0.00  0.00    +0.000 OA
ATOM     15  C   UNL     1       1.482  11.680  18.821  0.00  0.00    +0.000 C 
ENDBRANCH  10  14
BRANCH   1  16
ATOM     16  C   UNL     1       5.146   3.466  16.666  0.00  0.00    +0.000 C 
BRANCH  16  17
ATOM     17  N   UNL     1       6.469   4.068  16.661  0.00  0.00    +0.000 N 
ATOM     18  H   UNL     1       6.946   4.062  17.549  0.00  0.00    +0.000 HD
BRANCH  17  19
ATOM     19  C   UNL     1       6.904   4.959  15.717  0.00  0.00    +0.000 C 
ATOM     20  S   UNL     1       6.945   4.706  14.067  0.00  0.00    +0.000 S 
BRANCH  19  22
ATOM     21  C   UNL     1       7.332   6.619  17.552  0.00  0.00    +0.000 C 
ATOM     22  N   UNL     1       7.374   6.145  16.191  0.00  0.00    +0.000 N 
ATOM     23  H   UNL     1       7.859   6.713  15.502  0.00  0.00    +0.000 HD
ENDBRANCH  19  22
ENDBRANCH  17  19
ENDBRANCH  16  17
ENDBRANCH   1  16
TORSDOF 5
ENDMDL
MODEL 5
REMARK VINA RESULT:      -6.8      7.012      9.183
REMARK  Name = 
REMARK  7 active torsions:
REMARK  status: ('A' for Active; 'I' for Inactive)
REMARK    1  A    between atoms: C_1  and  N_2
REMARK    2  A    between atoms: N_2  and  C_3
REMARK    3  A    between atoms: C_3  and  N_5
REMARK    4  A    between atoms: N_5  and  C_6
REMARK    5  A    between atoms: C_6  and  C_7
REMARK    6  A    between atoms: C_16  and  O_17
REMARK    7  A    between atoms: O_17  and  C_18
REMARK                            x       y       z     vdW  Elec       q    Type
REMARK                         _______ _______ _______ _____ _____    ______ ____
ROOT
ATOM      1  C   UNL     1       0.038  11.322  18.996  0.00  0.00    +0.000 A 
ATOM      2  C   UNL     1       1.000  10.602  18.317  0.00  0.00    +0.000 A 
ATOM      3  C   UNL     1       1.278   9.438  19.086  0.00  0.00    +0.000 A 
ATOM      4  C   UNL     1       0.489   9.558  20.227  0.00  0.00    +0.000 A 
ATOM      5  C   UNL     1       0.441   8.610  21.246  0.00  0.00    +0.000 A 
ATOM      6  C   UNL     1       1.235   7.469  21.086  0.00  0.00    +0.000 A 
ATOM      7  C   UNL     1       2.051   7.288  19.956  0.00  0.00    +0.000 A 
ATOM      8  C   UNL     1       2.834   6.134  19.799  0.00  0.00    +0.000 A 
ATOM      9  C   UNL     1       3.636   5.954  18.664  0.00  0.00    +0.000 A 
ATOM     10  C   UNL     1       3.669   6.922  17.661  0.00  0.00    +0.000 A 
ATOM     11  C   UNL     1       2.896   8.078  17.799  0.00  0.00    +0.000 A 
ATOM     12  C   UNL     1       2.088   8.274  18.937  0.00  0.00    +0.000 A 
ATOM     13  O   UNL     1      -0.246  10.708  20.185  0.00  0.00    +0.000 OA
ENDROOT
BRANCH  10  14
ATOM     14  O   UNL     1       4.412   6.855  16.512  0.00  0.00    +0.000 OA
ATOM     15  C   UNL     1       5.500   5.938  16.502  0.00  0.00    +0.000 C 
ENDBRANCH  10  14
BRANCH   1  16
ATOM     16  C   UNL     1      -0.772  12.509  18.623  0.00  0.00    +0.000 C 
BRANCH  16  17
ATOM     17  N   UNL     1      -1.435  12.322  17.344  0.00  0.00    +0.000 N 
ATOM     18  H   UNL     1      -1.357  13.096  16.703  0.00  0.00    +0.000 HD
BRANCH  17  19
ATOM     19  C   UNL     1      -2.444  11.423  17.126  0.00  0.00    +0.000 C 
ATOM     20  S   UNL     1      -3.890  11.342  17.957  0.00  0.00    +0.000 S 
BRANCH  19  22
ATOM     21  C   UNL     1      -2.977  10.282  14.953  0.00  0.00    +0.000 C 
ATOM     22  N   UNL     1      -2.213  10.495  16.157  0.00  0.00    +0.000 N 
ATOM     23  H   UNL     1      -1.367   9.948  16.290  0.00  0.00    +0.000 HD
ENDBRANCH  19  22
ENDBRANCH  17  19
ENDBRANCH  16  17
ENDBRANCH   1  16
TORSDOF 5
ENDMDL
MODEL 6
REMARK VINA RESULT:      -6.8      4.209      6.007
REMARK  Name = 
REMARK  7 active torsions:
REMARK  status: ('A' for Active; 'I' for Inactive)
REMARK    1  A    between atoms: C_1  and  N_2
REMARK    2  A    between atoms: N_2  and  C_3
REMARK    3  A    between atoms: C_3  and  N_5
REMARK    4  A    between atoms: N_5  and  C_6
REMARK    5  A    between atoms: C_6  and  C_7
REMARK    6  A    between atoms: C_16  and  O_17
REMARK    7  A    between atoms: O_17  and  C_18
REMARK                            x       y       z     vdW  Elec       q    Type
REMARK                         _______ _______ _______ _____ _____    ______ ____
ROOT
ATOM      1  C   UNL     1       4.520   5.058  17.258  0.00  0.00    +0.000 A 
ATOM      2  C   UNL     1       3.880   6.280  17.229  0.00  0.00    +0.000 A 
ATOM      3  C   UNL     1       3.125   6.391  18.430  0.00  0.00    +0.000 A 
ATOM      4  C   UNL     1       3.321   5.184  19.095  0.00  0.00    +0.000 A 
ATOM      5  C   UNL     1       2.770   4.880  20.337  0.00  0.00    +0.000 A 
ATOM      6  C   UNL     1       1.984   5.868  20.941  0.00  0.00    +0.000 A 
ATOM      7  C   UNL     1       1.752   7.108  20.320  0.00  0.00    +0.000 A 
ATOM      8  C   UNL     1       0.973   8.098  20.939  0.00  0.00    +0.000 A 
ATOM      9  C   UNL     1       0.754   9.336  20.322  0.00  0.00    +0.000 A 
ATOM     10  C   UNL     1       1.315   9.613  19.075  0.00  0.00    +0.000 A 
ATOM     11  C   UNL     1       2.093   8.640  18.442  0.00  0.00    +0.000 A 
ATOM     12  C   UNL     1       2.318   7.388  19.051  0.00  0.00    +0.000 A 
ATOM     13  O   UNL     1       4.147   4.367  18.378  0.00  0.00    +0.000 OA
ENDROOT
BRANCH  10  14
ATOM     14  O   UNL     1       1.170  10.783  18.378  0.00  0.00    +0.000 OA
ATOM     15  C   UNL     1       1.029  11.974  19.143  0.00  0.00    +0.000 C 
ENDBRANCH  10  14
BRANCH   1  16
ATOM     16  C   UNL     1       5.567   4.457  16.395  0.00  0.00    +0.000 C 
BRANCH  16  17
ATOM     17  N   UNL     1       6.858   4.428  17.062  0.00  0.00    +0.000 N 
ATOM     18  H   UNL     1       7.198   3.509  17.299  0.00  0.00    +0.000 HD
BRANCH  17  19
ATOM     19  C   UNL     1       7.403   5.494  17.726  0.00  0.00    +0.000 C 
ATOM     20  S   UNL     1       7.771   5.557  19.353  0.00  0.00    +0.000 S 
BRANCH  19  22
ATOM     21  C   UNL     1       7.574   7.979  17.416  0.00  0.00    +0.000 C 
ATOM     22  N   UNL     1       7.630   6.607  16.977  0.00  0.00    +0.000 N 
ATOM     23  H   UNL     1       7.931   6.421  16.024  0.00  0.00    +0.000 HD
ENDBRANCH  19  22
ENDBRANCH  17  19
ENDBRANCH  16  17
ENDBRANCH   1  16
TORSDOF 5
ENDMDL
MODEL 7
REMARK VINA RESULT:      -6.8      5.929      8.244
REMARK  Name = 
REMARK  7 active torsions:
REMARK  status: ('A' for Active; 'I' for Inactive)
REMARK    1  A    between atoms: C_1  and  N_2
REMARK    2  A    between atoms: N_2  and  C_3
REMARK    3  A    between atoms: C_3  and  N_5
REMARK    4  A    between atoms: N_5  and  C_6
REMARK    5  A    between atoms: C_6  and  C_7
REMARK    6  A    between atoms: C_16  and  O_17
REMARK    7  A    between atoms: O_17  and  C_18
REMARK                            x       y       z     vdW  Elec       q    Type
REMARK                         _______ _______ _______ _____ _____    ______ ____
ROOT
ATOM      1  C   UNL     1       1.557   9.107  18.563  0.00  0.00    +0.000 A 
ATOM      2  C   UNL     1       2.529   8.657  17.693  0.00  0.00    +0.000 A 
ATOM      3  C   UNL     1       2.998   7.410  18.191  0.00  0.00    +0.000 A 
ATOM      4  C   UNL     1       2.303   7.208  19.380  0.00  0.00    +0.000 A 
ATOM      5  C   UNL     1       2.448   6.083  20.187  0.00  0.00    +0.000 A 
ATOM      6  C   UNL     1       3.345   5.101  19.749  0.00  0.00    +0.000 A 
ATOM      7  C   UNL     1       4.074   5.246  18.556  0.00  0.00    +0.000 A 
ATOM      8  C   UNL     1       4.961   4.250  18.119  0.00  0.00    +0.000 A 
ATOM      9  C   UNL     1       5.676   4.394  16.923  0.00  0.00    +0.000 A 
ATOM     10  C   UNL     1       5.515   5.534  16.136  0.00  0.00    +0.000 A 
ATOM     11  C   UNL     1       4.637   6.537  16.554  0.00  0.00    +0.000 A 
ATOM     12  C   UNL     1       3.914   6.407  17.758  0.00  0.00    +0.000 A 
ATOM     13  O   UNL     1       1.446   8.244  19.618  0.00  0.00    +0.000 OA
ENDROOT
BRANCH  10  14
ATOM     14  O   UNL     1       6.158   5.783  14.952  0.00  0.00    +0.000 OA
ATOM     15  C   UNL     1       6.724   4.665  14.280  0.00  0.00    +0.000 C 
ENDBRANCH  10  14
BRANCH   1  16
ATOM     16  C   UNL     1       0.593  10.233  18.491  0.00  0.00    +0.000 C 
BRANCH  16  17
ATOM     17  N   UNL     1      -0.498   9.945  17.575  0.00  0.00    +0.000 N 
ATOM     18  H   UNL     1      -0.232   9.467  16.728  0.00  0.00    +0.000 HD
BRANCH  17  19
ATOM     19  C   UNL     1      -1.697  10.605  17.578  0.00  0.00    +0.000 C 
ATOM     20  S   UNL     1      -2.257  11.627  18.773  0.00  0.00    +0.000 S 
BRANCH  19  22
ATOM     21  C   UNL     1      -3.744  11.035  16.189  0.00  0.00    +0.000 C 
ATOM     22  N   UNL     1      -2.508  10.367  16.512  0.00  0.00    +0.000 N 
ATOM     23  H   UNL     1      -2.149   9.681  15.853  0.00  0.00    +0.000 HD
ENDBRANCH  19  22
ENDBRANCH  17  19
ENDBRANCH  16  17
ENDBRANCH   1  16
TORSDOF 5
ENDMDL
MODEL 8
REMARK VINA RESULT:      -6.7      4.628      6.263
REMARK  Name = 
REMARK  7 active torsions:
REMARK  status: ('A' for Active; 'I' for Inactive)
REMARK    1  A    between atoms: C_1  and  N_2
REMARK    2  A    between atoms: N_2  and  C_3
REMARK    3  A    between atoms: C_3  and  N_5
REMARK    4  A    between atoms: N_5  and  C_6
REMARK    5  A    between atoms: C_6  and  C_7
REMARK    6  A    between atoms: C_16  and  O_17
REMARK    7  A    between atoms: O_17  and  C_18
REMARK                            x       y       z     vdW  Elec       q    Type
REMARK                         _______ _______ _______ _____ _____    ______ ____
ROOT
ATOM      1  C   UNL     1       3.681   5.076  19.171  0.00  0.00    +0.000 A 
ATOM      2  C   UNL     1       2.858   5.716  20.077  0.00  0.00    +0.000 A 
ATOM      3  C   UNL     1       2.454   6.945  19.486  0.00  0.00    +0.000 A 
ATOM      4  C   UNL     1       3.113   6.994  18.260  0.00  0.00    +0.000 A 
ATOM      5  C   UNL     1       2.978   8.033  17.343  0.00  0.00    +0.000 A 
ATOM      6  C   UNL     1       2.112   9.076  17.691  0.00  0.00    +0.000 A 
ATOM      7  C   UNL     1       1.416   9.083  18.912  0.00  0.00    +0.000 A 
ATOM      8  C   UNL     1       0.540  10.126  19.246  0.00  0.00    +0.000 A 
ATOM      9  C   UNL     1      -0.160  10.122  20.460  0.00  0.00    +0.000 A 
ATOM     10  C   UNL     1      -0.002   9.071  21.363  0.00  0.00    +0.000 A 
ATOM     11  C   UNL     1       0.866   8.022  21.049  0.00  0.00    +0.000 A 
ATOM     12  C   UNL     1       1.579   8.016  19.832  0.00  0.00    +0.000 A 
ATOM     13  O   UNL     1       3.873   5.874  18.077  0.00  0.00    +0.000 OA
ENDROOT
BRANCH  10  14
ATOM     14  O   UNL     1      -0.632   8.959  22.574  0.00  0.00    +0.000 OA
ATOM     15  C   UNL     1       0.026   9.535  23.697  0.00  0.00    +0.000 C 
ENDBRANCH  10  14
BRANCH   1  16
ATOM     16  C   UNL     1       4.259   3.710  19.137  0.00  0.00    +0.000 C 
BRANCH  16  17
ATOM     17  N   UNL     1       5.711   3.744  19.135  0.00  0.00    +0.000 N 
ATOM     18  H   UNL     1       6.148   3.505  20.012  0.00  0.00    +0.000 HD
BRANCH  17  19
ATOM     19  C   UNL     1       6.462   4.441  18.227  0.00  0.00    +0.000 C 
ATOM     20  S   UNL     1       7.502   5.702  18.568  0.00  0.00    +0.000 S 
BRANCH  19  22
ATOM     21  C   UNL     1       6.961   4.652  15.775  0.00  0.00    +0.000 C 
ATOM     22  N   UNL     1       6.309   4.077  16.925  0.00  0.00    +0.000 N 
ATOM     23  H   UNL     1       5.711   3.267  16.781  0.00  0.00    +0.000 HD
ENDBRANCH  19  22
ENDBRANCH  17  19
ENDBRANCH  16  17
ENDBRANCH   1  16
TORSDOF 5
ENDMDL
MODEL 9
REMARK VINA RESULT:      -6.7      1.204      1.412
REMARK  Name = 
REMARK  7 active torsions:
REMARK  status: ('A' for Active; 'I' for Inactive)
REMARK    1  A    between atoms: C_1  and  N_2
REMARK    2  A    between atoms: N_2  and  C_3
REMARK    3  A    between atoms: C_3  and  N_5
REMARK    4  A    between atoms: N_5  and  C_6
REMARK    5  A    between atoms: C_6  and  C_7
REMARK    6  A    between atoms: C_16  and  O_17
REMARK    7  A    between atoms: O_17  and  C_18
REMARK                            x       y       z     vdW  Elec       q    Type
REMARK                         _______ _______ _______ _____ _____    ______ ____
ROOT
ATOM      1  C   UNL     1       6.693   4.503  14.035  0.00  0.00    +0.000 A 
ATOM      2  C   UNL     1       5.738   3.865  14.800  0.00  0.00    +0.000 A 
ATOM      3  C   UNL     1       5.781   4.444  16.099  0.00  0.00    +0.000 A 
ATOM      4  C   UNL     1       6.814   5.376  16.048  0.00  0.00    +0.000 A 
ATOM      5  C   UNL     1       7.183   6.191  17.115  0.00  0.00    +0.000 A 
ATOM      6  C   UNL     1       6.449   6.055  18.299  0.00  0.00    +0.000 A 
ATOM      7  C   UNL     1       5.392   5.134  18.411  0.00  0.00    +0.000 A 
ATOM      8  C   UNL     1       4.653   5.015  19.598  0.00  0.00    +0.000 A 
ATOM      9  C   UNL     1       3.594   4.103  19.701  0.00  0.00    +0.000 A 
ATOM     10  C   UNL     1       3.249   3.296  18.618  0.00  0.00    +0.000 A 
ATOM     11  C   UNL     1       3.973   3.400  17.427  0.00  0.00    +0.000 A 
ATOM     12  C   UNL     1       5.043   4.310  17.311  0.00  0.00    +0.000 A 
ATOM     13  O   UNL     1       7.382   5.398  14.806  0.00  0.00    +0.000 OA
ENDROOT
BRANCH  10  14
ATOM     14  O   UNL     1       2.236   2.373  18.602  0.00  0.00    +0.000 OA
ATOM     15  C   UNL     1       0.964   2.807  19.068  0.00  0.00    +0.000 C 
ENDBRANCH  10  14
BRANCH   1  16
ATOM     16  C   UNL     1       6.998   4.467  12.583  0.00  0.00    +0.000 C 
BRANCH  16  17
ATOM     17  N   UNL     1       7.034   3.105  12.078  0.00  0.00    +0.000 N 
ATOM     18  H   UNL     1       7.935   2.792  11.751  0.00  0.00    +0.000 HD
BRANCH  17  19
ATOM     19  C   UNL     1       5.933   2.417  11.646  0.00  0.00    +0.000 C 
ATOM     20  S   UNL     1       5.922   0.873  11.011  0.00  0.00    +0.000 S 
BRANCH  19  22
ATOM     21  C   UNL     1       3.749   3.205  10.687  0.00  0.00    +0.000 C 
ATOM     22  N   UNL     1       4.749   3.084  11.719  0.00  0.00    +0.000 N 
ATOM     23  H   UNL     1       4.543   3.478  12.633  0.00  0.00    +0.000 HD
ENDBRANCH  19  22
ENDBRANCH  17  19
ENDBRANCH  16  17
ENDBRANCH   1  16
TORSDOF 5
ENDMDL
