MODEL 1
REMARK VINA RESULT:      -6.9      0.000      0.000
REMARK  Name = 
REMARK  9 active torsions:
REMARK  status: ('A' for Active; 'I' for Inactive)
REMARK    1  A    between atoms: C_1  and  C_2
REMARK    2  A    between atoms: C_2  and  C_3
REMARK    3  A    between atoms: C_8  and  N_9
REMARK    4  A    between atoms: C_10  and  C_12
REMARK    5  A    between atoms: C_12  and  C_13
REMARK    6  A    between atoms: C_12  and  N_14
REMARK    7  A    between atoms: C_18  and  C_19
REMARK    8  A    between atoms: C_21  and  C_22
REMARK    9  A    between atoms: N_24  and  C_25
REMARK                            x       y       z     vdW  Elec       q    Type
REMARK                         _______ _______ _______ _____ _____    ______ ____
ROOT
ATOM      1  N   UNL     1      -0.855  11.723  19.547  0.00  0.00    +0.000 N 
ATOM      2  C   UNL     1      -0.349  10.543  19.003  0.00  0.00    +0.000 A 
ATOM      3  O   UNL     1       0.639   9.939  19.434  0.00  0.00    +0.000 OA
ATOM      4  C   UNL     1      -1.008  10.017  17.772  0.00  0.00    +0.000 A 
ATOM      5  C   UNL     1      -2.270  10.369  17.476  0.00  0.00    +0.000 A 
ATOM      6  C   UNL     1      -2.944   9.836  16.253  0.00  0.00    +0.000 C 
ATOM      7  C   UNL     1      -2.971  11.261  18.347  0.00  0.00    +0.000 A 
ATOM      8  C   UNL     1      -4.290  11.753  18.399  0.00  0.00    +0.000 A 
ATOM      9  C   UNL     1      -5.477  11.476  17.536  0.00  0.00    +0.000 C 
ATOM     10  N   UNL     1      -4.429  12.629  19.402  0.00  0.00    +0.000 NA
ATOM     11  N   UNL     1      -3.249  12.618  20.089  0.00  0.00    +0.000 N 
ATOM     12  C   UNL     1      -2.273  11.884  19.374  0.00  0.00    +0.000 A 
ENDROOT
BRANCH  11  13
ATOM     13  C   UNL     1      -3.249  13.219  21.394  0.00  0.00    +0.000 A 
ATOM     14  C   UNL     1      -3.459  12.456  22.541  0.00  0.00    +0.000 A 
ATOM     15  C   UNL     1      -3.468  13.021  23.817  0.00  0.00    +0.000 A 
ATOM     16  C   UNL     1      -3.370  14.396  23.959  0.00  0.00    +0.000 A 
ATOM     17  C   UNL     1      -3.191  15.194  22.825  0.00  0.00    +0.000 A 
ATOM     18  C   UNL     1      -3.118  14.610  21.550  0.00  0.00    +0.000 A 
ENDBRANCH  11  13
BRANCH   1  19
ATOM     19  C   UNL     1       0.051  12.480  20.442  0.00  0.00    +0.000 C 
ATOM     20  C   UNL     1      -0.273  12.202  21.921  0.00  0.00    +0.000 C 
BRANCH  19  22
ATOM     21  N   UNL     1      -0.092  14.527  19.088  0.00  0.00    +0.000 N 
ATOM     22  C   UNL     1       0.047  14.041  20.402  0.00  0.00    +0.000 C 
ATOM     23  O   UNL     1       0.319  14.729  21.370  0.00  0.00    +0.000 OA
ATOM     24  H   UNL     1       0.031  13.880  18.319  0.00  0.00    +0.000 HD
BRANCH  21  30
ATOM     25  C   UNL     1       1.294  16.427  18.391  0.00  0.00    +0.000 A 
ATOM     26  C   UNL     1       1.369  17.791  18.054  0.00  0.00    +0.000 A 
ATOM     27  C   UNL     1       0.249  18.618  18.149  0.00  0.00    +0.000 A 
ATOM     28  C   UNL     1      -0.966  18.089  18.575  0.00  0.00    +0.000 A 
ATOM     29  C   UNL     1      -1.065  16.734  18.878  0.00  0.00    +0.000 A 
ATOM     30  C   UNL     1       0.052  15.897  18.784  0.00  0.00    +0.000 A 
BRANCH  25  32
ATOM     31  C   UNL     1       3.519  15.849  17.305  0.00  0.00    +0.000 C 
ATOM     32  C   UNL     1       2.594  15.661  18.491  0.00  0.00    +0.000 C 
ENDBRANCH  25  32
ENDBRANCH  21  30
ENDBRANCH  19  22
ENDBRANCH   1  19
TORSDOF 5
ENDMDL
MODEL 2
REMARK VINA RESULT:      -6.7      1.649      4.677
REMARK  Name = 
REMARK  9 active torsions:
REMARK  status: ('A' for Active; 'I' for Inactive)
REMARK    1  A    between atoms: C_1  and  C_2
REMARK    2  A    between atoms: C_2  and  C_3
REMARK    3  A    between atoms: C_8  and  N_9
REMARK    4  A    between atoms: C_10  and  C_12
REMARK    5  A    between atoms: C_12  and  C_13
REMARK    6  A    between atoms: C_12  and  N_14
REMARK    7  A    between atoms: C_18  and  C_19
REMARK    8  A    between atoms: C_21  and  C_22
REMARK    9  A    between atoms: N_24  and  C_25
REMARK                            x       y       z     vdW  Elec       q    Type
REMARK                         _______ _______ _______ _____ _____    ______ ____
ROOT
ATOM      1  N   UNL     1      -2.588  13.002  20.579  0.00  0.00    +0.000 N 
ATOM      2  C   UNL     1      -2.523  14.228  21.240  0.00  0.00    +0.000 A 
ATOM      3  O   UNL     1      -1.549  14.988  21.216  0.00  0.00    +0.000 OA
ATOM      4  C   UNL     1      -3.687  14.610  22.093  0.00  0.00    +0.000 A 
ATOM      5  C   UNL     1      -4.894  14.061  21.877  0.00  0.00    +0.000 A 
ATOM      6  C   UNL     1      -6.069  14.448  22.716  0.00  0.00    +0.000 C 
ATOM      7  C   UNL     1      -5.049  13.100  20.829  0.00  0.00    +0.000 A 
ATOM      8  C   UNL     1      -6.149  12.415  20.276  0.00  0.00    +0.000 A 
ATOM      9  C   UNL     1      -7.607  12.482  20.590  0.00  0.00    +0.000 C 
ATOM     10  N   UNL     1      -5.746  11.559  19.329  0.00  0.00    +0.000 NA
ATOM     11  N   UNL     1      -4.406  11.771  19.165  0.00  0.00    +0.000 N 
ATOM     12  C   UNL     1      -3.917  12.622  20.183  0.00  0.00    +0.000 A 
ENDROOT
BRANCH  11  13
ATOM     13  C   UNL     1      -3.799  11.217  17.986  0.00  0.00    +0.000 A 
ATOM     14  C   UNL     1      -2.701  10.364  18.071  0.00  0.00    +0.000 A 
ATOM     15  C   UNL     1      -2.095   9.819  16.938  0.00  0.00    +0.000 A 
ATOM     16  C   UNL     1      -2.519  10.210  15.678  0.00  0.00    +0.000 A 
ATOM     17  C   UNL     1      -3.598  11.090  15.557  0.00  0.00    +0.000 A 
ATOM     18  C   UNL     1      -4.244  11.583  16.703  0.00  0.00    +0.000 A 
ENDBRANCH  11  13
BRANCH   1  19
ATOM     19  C   UNL     1      -1.298  12.419  20.140  0.00  0.00    +0.000 C 
ATOM     20  C   UNL     1      -0.309  12.317  21.314  0.00  0.00    +0.000 C 
BRANCH  19  22
ATOM     21  N   UNL     1       0.542  13.976  19.654  0.00  0.00    +0.000 N 
ATOM     22  C   UNL     1      -0.443  13.161  19.064  0.00  0.00    +0.000 C 
ATOM     23  O   UNL     1      -0.728  13.166  17.879  0.00  0.00    +0.000 OA
ATOM     24  H   UNL     1       0.479  14.167  20.646  0.00  0.00    +0.000 HD
BRANCH  21  30
ATOM     25  C   UNL     1       0.859  16.171  18.607  0.00  0.00    +0.000 A 
ATOM     26  C   UNL     1       1.696  17.039  17.881  0.00  0.00    +0.000 A 
ATOM     27  C   UNL     1       2.938  16.613  17.410  0.00  0.00    +0.000 A 
ATOM     28  C   UNL     1       3.366  15.314  17.666  0.00  0.00    +0.000 A 
ATOM     29  C   UNL     1       2.565  14.454  18.413  0.00  0.00    +0.000 A 
ATOM     30  C   UNL     1       1.318  14.873  18.891  0.00  0.00    +0.000 A 
BRANCH  25  32
ATOM     31  C   UNL     1      -0.919  17.946  18.217  0.00  0.00    +0.000 C 
ATOM     32  C   UNL     1      -0.558  16.628  18.872  0.00  0.00    +0.000 C 
ENDBRANCH  25  32
ENDBRANCH  21  30
ENDBRANCH  19  22
ENDBRANCH   1  19
TORSDOF 5
ENDMDL
MODEL 3
REMARK VINA RESULT:      -6.7      1.805      4.575
REMARK  Name = 
REMARK  9 active torsions:
REMARK  status: ('A' for Active; 'I' for Inactive)
REMARK    1  A    between atoms: C_1  and  C_2
REMARK    2  A    between atoms: C_2  and  C_3
REMARK    3  A    between atoms: C_8  and  N_9
REMARK    4  A    between atoms: C_10  and  C_12
REMARK    5  A    between atoms: C_12  and  C_13
REMARK    6  A    between atoms: C_12  and  N_14
REMARK    7  A    between atoms: C_18  and  C_19
REMARK    8  A    between atoms: C_21  and  C_22
REMARK    9  A    between atoms: N_24  and  C_25
REMARK                            x       y       z     vdW  Elec       q    Type
REMARK                         _______ _______ _______ _____ _____    ______ ____
ROOT
ATOM      1  N   UNL     1      -2.618  13.102  20.594  0.00  0.00    +0.000 N 
ATOM      2  C   UNL     1      -2.612  14.331  21.252  0.00  0.00    +0.000 A 
ATOM      3  O   UNL     1      -1.672  15.132  21.234  0.00  0.00    +0.000 OA
ATOM      4  C   UNL     1      -3.800  14.664  22.092  0.00  0.00    +0.000 A 
ATOM      5  C   UNL     1      -4.980  14.063  21.866  0.00  0.00    +0.000 A 
ATOM      6  C   UNL     1      -6.178  14.401  22.694  0.00  0.00    +0.000 C 
ATOM      7  C   UNL     1      -5.083  13.094  20.820  0.00  0.00    +0.000 A 
ATOM      8  C   UNL     1      -6.147  12.360  20.259  0.00  0.00    +0.000 A 
ATOM      9  C   UNL     1      -7.610  12.365  20.558  0.00  0.00    +0.000 C 
ATOM     10  N   UNL     1      -5.698  11.521  19.318  0.00  0.00    +0.000 NA
ATOM     11  N   UNL     1      -4.368  11.790  19.165  0.00  0.00    +0.000 N 
ATOM     12  C   UNL     1      -3.925  12.664  20.186  0.00  0.00    +0.000 A 
ENDROOT
BRANCH  11  13
ATOM     13  C   UNL     1      -3.726  11.260  17.994  0.00  0.00    +0.000 A 
ATOM     14  C   UNL     1      -4.225  11.516  16.718  0.00  0.00    +0.000 A 
ATOM     15  C   UNL     1      -3.619  11.007  15.568  0.00  0.00    +0.000 A 
ATOM     16  C   UNL     1      -2.550  10.133  15.685  0.00  0.00    +0.000 A 
ATOM     17  C   UNL     1      -2.045   9.829  16.953  0.00  0.00    +0.000 A 
ATOM     18  C   UNL     1      -2.621  10.398  18.102  0.00  0.00    +0.000 A 
ENDBRANCH  11  13
BRANCH   1  19
ATOM     19  C   UNL     1      -1.300  12.574  20.168  0.00  0.00    +0.000 C 
ATOM     20  C   UNL     1      -0.318  12.518  21.352  0.00  0.00    +0.000 C 
BRANCH  19  22
ATOM     21  N   UNL     1       0.479  14.204  19.696  0.00  0.00    +0.000 N 
ATOM     22  C   UNL     1      -0.467  13.350  19.099  0.00  0.00    +0.000 C 
ATOM     23  O   UNL     1      -0.743  13.343  17.912  0.00  0.00    +0.000 OA
ATOM     24  H   UNL     1       0.400  14.393  20.687  0.00  0.00    +0.000 HD
BRANCH  21  30
ATOM     25  C   UNL     1       2.463  14.781  18.373  0.00  0.00    +0.000 A 
ATOM     26  C   UNL     1       3.141  15.732  17.588  0.00  0.00    +0.000 A 
ATOM     27  C   UNL     1       2.623  17.014  17.407  0.00  0.00    +0.000 A 
ATOM     28  C   UNL     1       1.414  17.363  18.003  0.00  0.00    +0.000 A 
ATOM     29  C   UNL     1       0.714  16.422  18.754  0.00  0.00    +0.000 A 
ATOM     30  C   UNL     1       1.224  15.132  18.939  0.00  0.00    +0.000 A 
BRANCH  25  32
ATOM     31  C   UNL     1       2.759  12.299  17.910  0.00  0.00    +0.000 C 
ATOM     32  C   UNL     1       3.201  13.505  18.714  0.00  0.00    +0.000 C 
ENDBRANCH  25  32
ENDBRANCH  21  30
ENDBRANCH  19  22
ENDBRANCH   1  19
TORSDOF 5
ENDMDL
MODEL 4
REMARK VINA RESULT:      -6.5      1.948      4.914
REMARK  Name = 
REMARK  9 active torsions:
REMARK  status: ('A' for Active; 'I' for Inactive)
REMARK    1  A    between atoms: C_1  and  C_2
REMARK    2  A    between atoms: C_2  and  C_3
REMARK    3  A    between atoms: C_8  and  N_9
REMARK    4  A    between atoms: C_10  and  C_12
REMARK    5  A    between atoms: C_12  and  C_13
REMARK    6  A    between atoms: C_12  and  N_14
REMARK    7  A    between atoms: C_18  and  C_19
REMARK    8  A    between atoms: C_21  and  C_22
REMARK    9  A    between atoms: N_24  and  C_25
REMARK                            x       y       z     vdW  Elec       q    Type
REMARK                         _______ _______ _______ _____ _____    ______ ____
ROOT
ATOM      1  N   UNL     1      -0.030  14.389  22.215  0.00  0.00    +0.000 N 
ATOM      2  C   UNL     1      -0.096  15.689  22.715  0.00  0.00    +0.000 A 
ATOM      3  O   UNL     1       0.460  16.666  22.203  0.00  0.00    +0.000 OA
ATOM      4  C   UNL     1      -0.830  15.893  23.998  0.00  0.00    +0.000 A 
ATOM      5  C   UNL     1      -1.755  15.005  24.399  0.00  0.00    +0.000 A 
ATOM      6  C   UNL     1      -2.506  15.209  25.675  0.00  0.00    +0.000 C 
ATOM      7  C   UNL     1      -2.020  13.856  23.589  0.00  0.00    +0.000 A 
ATOM      8  C   UNL     1      -2.955  12.805  23.648  0.00  0.00    +0.000 A 
ATOM      9  C   UNL     1      -4.066  12.530  24.608  0.00  0.00    +0.000 C 
ATOM     10  N   UNL     1      -2.743  11.927  22.660  0.00  0.00    +0.000 NA
ATOM     11  N   UNL     1      -1.760  12.461  21.876  0.00  0.00    +0.000 N 
ATOM     12  C   UNL     1      -1.191  13.592  22.507  0.00  0.00    +0.000 A 
ENDROOT
BRANCH  11  13
ATOM     13  C   UNL     1      -1.577  11.879  20.575  0.00  0.00    +0.000 A 
ATOM     14  C   UNL     1      -2.431  12.190  19.517  0.00  0.00    +0.000 A 
ATOM     15  C   UNL     1      -2.272  11.633  18.248  0.00  0.00    +0.000 A 
ATOM     16  C   UNL     1      -1.307  10.660  18.041  0.00  0.00    +0.000 A 
ATOM     17  C   UNL     1      -0.455  10.301  19.089  0.00  0.00    +0.000 A 
ATOM     18  C   UNL     1      -0.580  10.915  20.347  0.00  0.00    +0.000 A 
ENDBRANCH  11  13
BRANCH   1  19
ATOM     19  C   UNL     1       1.055  14.107  21.246  0.00  0.00    +0.000 C 
ATOM     20  C   UNL     1       2.401  14.658  21.748  0.00  0.00    +0.000 C 
BRANCH  19  22
ATOM     21  N   UNL     1       1.621  15.961  19.732  0.00  0.00    +0.000 N 
ATOM     22  C   UNL     1       0.979  14.710  19.807  0.00  0.00    +0.000 C 
ATOM     23  O   UNL     1       0.289  14.232  18.924  0.00  0.00    +0.000 OA
ATOM     24  H   UNL     1       1.868  16.428  20.596  0.00  0.00    +0.000 HD
BRANCH  21  30
ATOM     25  C   UNL     1       2.520  16.729  17.584  0.00  0.00    +0.000 A 
ATOM     26  C   UNL     1       2.356  17.527  16.436  0.00  0.00    +0.000 A 
ATOM     27  C   UNL     1       1.262  18.383  16.307  0.00  0.00    +0.000 A 
ATOM     28  C   UNL     1       0.310  18.446  17.320  0.00  0.00    +0.000 A 
ATOM     29  C   UNL     1       0.439  17.636  18.445  0.00  0.00    +0.000 A 
ATOM     30  C   UNL     1       1.532  16.773  18.583  0.00  0.00    +0.000 A 
BRANCH  25  32
ATOM     31  C   UNL     1       4.806  16.706  18.697  0.00  0.00    +0.000 C 
ATOM     32  C   UNL     1       3.843  16.015  17.753  0.00  0.00    +0.000 C 
ENDBRANCH  25  32
ENDBRANCH  21  30
ENDBRANCH  19  22
ENDBRANCH   1  19
TORSDOF 5
ENDMDL
MODEL 5
REMARK VINA RESULT:      -6.3      6.541      9.621
REMARK  Name = 
REMARK  9 active torsions:
REMARK  status: ('A' for Active; 'I' for Inactive)
REMARK    1  A    between atoms: C_1  and  C_2
REMARK    2  A    between atoms: C_2  and  C_3
REMARK    3  A    between atoms: C_8  and  N_9
REMARK    4  A    between atoms: C_10  and  C_12
REMARK    5  A    between atoms: C_12  and  C_13
REMARK    6  A    between atoms: C_12  and  N_14
REMARK    7  A    between atoms: C_18  and  C_19
REMARK    8  A    between atoms: C_21  and  C_22
REMARK    9  A    between atoms: N_24  and  C_25
REMARK                            x       y       z     vdW  Elec       q    Type
REMARK                         _______ _______ _______ _____ _____    ______ ____
ROOT
ATOM      1  N   UNL     1       6.015  15.255  19.685  0.00  0.00    +0.000 N 
ATOM      2  C   UNL     1       5.748  14.878  18.370  0.00  0.00    +0.000 A 
ATOM      3  O   UNL     1       6.611  14.617  17.526  0.00  0.00    +0.000 OA
ATOM      4  C   UNL     1       4.319  14.863  17.938  0.00  0.00    +0.000 A 
ATOM      5  C   UNL     1       3.338  14.753  18.849  0.00  0.00    +0.000 A 
ATOM      6  C   UNL     1       1.904  14.722  18.425  0.00  0.00    +0.000 C 
ATOM      7  C   UNL     1       3.675  14.663  20.235  0.00  0.00    +0.000 A 
ATOM      8  C   UNL     1       2.937  14.449  21.417  0.00  0.00    +0.000 A 
ATOM      9  C   UNL     1       1.481  14.203  21.635  0.00  0.00    +0.000 C 
ATOM     10  N   UNL     1       3.735  14.512  22.490  0.00  0.00    +0.000 NA
ATOM     11  N   UNL     1       5.010  14.634  22.015  0.00  0.00    +0.000 N 
ATOM     12  C   UNL     1       4.992  14.874  20.621  0.00  0.00    +0.000 A 
ENDROOT
BRANCH  11  13
ATOM     13  C   UNL     1       6.077  14.391  22.946  0.00  0.00    +0.000 A 
ATOM     14  C   UNL     1       6.383  15.308  23.950  0.00  0.00    +0.000 A 
ATOM     15  C   UNL     1       7.418  15.093  24.861  0.00  0.00    +0.000 A 
ATOM     16  C   UNL     1       8.244  13.990  24.713  0.00  0.00    +0.000 A 
ATOM     17  C   UNL     1       7.984  13.067  23.697  0.00  0.00    +0.000 A 
ATOM     18  C   UNL     1       6.900  13.258  22.824  0.00  0.00    +0.000 A 
ENDBRANCH  11  13
BRANCH   1  19
ATOM     19  C   UNL     1       7.392  15.722  19.973  0.00  0.00    +0.000 C 
ATOM     20  C   UNL     1       7.587  17.180  19.520  0.00  0.00    +0.000 C 
BRANCH  19  22
ATOM     21  N   UNL     1       8.829  13.732  19.837  0.00  0.00    +0.000 N 
ATOM     22  C   UNL     1       8.605  15.011  19.293  0.00  0.00    +0.000 C 
ATOM     23  O   UNL     1       9.361  15.579  18.525  0.00  0.00    +0.000 OA
ATOM     24  H   UNL     1       8.362  13.487  20.701  0.00  0.00    +0.000 HD
BRANCH  21  30
ATOM     25  C   UNL     1       9.918  11.970  18.522  0.00  0.00    +0.000 A 
ATOM     26  C   UNL     1      11.100  11.278  18.199  0.00  0.00    +0.000 A 
ATOM     27  C   UNL     1      12.294  11.544  18.869  0.00  0.00    +0.000 A 
ATOM     28  C   UNL     1      12.327  12.514  19.867  0.00  0.00    +0.000 A 
ATOM     29  C   UNL     1      11.174  13.233  20.173  0.00  0.00    +0.000 A 
ATOM     30  C   UNL     1       9.972  12.974  19.506  0.00  0.00    +0.000 A 
BRANCH  25  32
ATOM     31  C   UNL     1       8.403   9.973  18.102  0.00  0.00    +0.000 C 
ATOM     32  C   UNL     1       8.626  11.461  17.924  0.00  0.00    +0.000 C 
ENDBRANCH  25  32
ENDBRANCH  21  30
ENDBRANCH  19  22
ENDBRANCH   1  19
TORSDOF 5
ENDMDL
MODEL 6
REMARK VINA RESULT:      -6.2      2.415      4.883
REMARK  Name = 
REMARK  9 active torsions:
REMARK  status: ('A' for Active; 'I' for Inactive)
REMARK    1  A    between atoms: C_1  and  C_2
REMARK    2  A    between atoms: C_2  and  C_3
REMARK    3  A    between atoms: C_8  and  N_9
REMARK    4  A    between atoms: C_10  and  C_12
REMARK    5  A    between atoms: C_12  and  C_13
REMARK    6  A    between atoms: C_12  and  N_14
REMARK    7  A    between atoms: C_18  and  C_19
REMARK    8  A    between atoms: C_21  and  C_22
REMARK    9  A    between atoms: N_24  and  C_25
REMARK                            x       y       z     vdW  Elec       q    Type
REMARK                         _______ _______ _______ _____ _____    ______ ____
ROOT
ATOM      1  N   UNL     1      -1.083  14.731  22.080  0.00  0.00    +0.000 N 
ATOM      2  C   UNL     1      -1.764  15.922  21.829  0.00  0.00    +0.000 A 
ATOM      3  O   UNL     1      -1.467  16.724  20.937  0.00  0.00    +0.000 OA
ATOM      4  C   UNL     1      -2.882  16.280  22.749  0.00  0.00    +0.000 A 
ATOM      5  C   UNL     1      -3.501  15.327  23.466  0.00  0.00    +0.000 A 
ATOM      6  C   UNL     1      -4.632  15.675  24.380  0.00  0.00    +0.000 C 
ATOM      7  C   UNL     1      -3.069  13.969  23.347  0.00  0.00    +0.000 A 
ATOM      8  C   UNL     1      -3.532  12.740  23.857  0.00  0.00    +0.000 A 
ATOM      9  C   UNL     1      -4.709  12.414  24.717  0.00  0.00    +0.000 C 
ATOM     10  N   UNL     1      -2.723  11.740  23.488  0.00  0.00    +0.000 NA
ATOM     11  N   UNL     1      -1.806  12.282  22.633  0.00  0.00    +0.000 N 
ATOM     12  C   UNL     1      -1.908  13.694  22.636  0.00  0.00    +0.000 A 
ENDROOT
BRANCH  11  13
ATOM     13  C   UNL     1      -1.031  11.366  21.842  0.00  0.00    +0.000 A 
ATOM     14  C   UNL     1      -1.088  11.387  20.450  0.00  0.00    +0.000 A 
ATOM     15  C   UNL     1      -0.346  10.503  19.664  0.00  0.00    +0.000 A 
ATOM     16  C   UNL     1       0.393   9.500  20.271  0.00  0.00    +0.000 A 
ATOM     17  C   UNL     1       0.444   9.431  21.666  0.00  0.00    +0.000 A 
ATOM     18  C   UNL     1      -0.253  10.366  22.449  0.00  0.00    +0.000 A 
ENDBRANCH  11  13
BRANCH   1  19
ATOM     19  C   UNL     1       0.274  14.610  21.498  0.00  0.00    +0.000 C 
ATOM     20  C   UNL     1       1.275  15.518  22.233  0.00  0.00    +0.000 C 
BRANCH  19  22
ATOM     21  N   UNL     1       1.153  16.260  19.901  0.00  0.00    +0.000 N 
ATOM     22  C   UNL     1       0.513  15.011  20.008  0.00  0.00    +0.000 C 
ATOM     23  O   UNL     1       0.032  14.397  19.071  0.00  0.00    +0.000 OA
ATOM     24  H   UNL     1       1.205  16.847  20.725  0.00  0.00    +0.000 HD
BRANCH  21  30
ATOM     25  C   UNL     1       2.469  16.709  17.881  0.00  0.00    +0.000 A 
ATOM     26  C   UNL     1       2.557  17.344  16.628  0.00  0.00    +0.000 A 
ATOM     27  C   UNL     1       1.544  18.193  16.181  0.00  0.00    +0.000 A 
ATOM     28  C   UNL     1       0.424  18.412  16.977  0.00  0.00    +0.000 A 
ATOM     29  C   UNL     1       0.306  17.763  18.203  0.00  0.00    +0.000 A 
ATOM     30  C   UNL     1       1.316  16.908  18.659  0.00  0.00    +0.000 A 
BRANCH  25  32
ATOM     31  C   UNL     1       4.637  16.883  19.197  0.00  0.00    +0.000 C 
ATOM     32  C   UNL     1       3.705  16.002  18.392  0.00  0.00    +0.000 C 
ENDBRANCH  25  32
ENDBRANCH  21  30
ENDBRANCH  19  22
ENDBRANCH   1  19
TORSDOF 5
ENDMDL
MODEL 7
REMARK VINA RESULT:      -6.2      2.485      5.999
REMARK  Name = 
REMARK  9 active torsions:
REMARK  status: ('A' for Active; 'I' for Inactive)
REMARK    1  A    between atoms: C_1  and  C_2
REMARK    2  A    between atoms: C_2  and  C_3
REMARK    3  A    between atoms: C_8  and  N_9
REMARK    4  A    between atoms: C_10  and  C_12
REMARK    5  A    between atoms: C_12  and  C_13
REMARK    6  A    between atoms: C_12  and  N_14
REMARK    7  A    between atoms: C_18  and  C_19
REMARK    8  A    between atoms: C_21  and  C_22
REMARK    9  A    between atoms: N_24  and  C_25
REMARK                            x       y       z     vdW  Elec       q    Type
REMARK                         _______ _______ _______ _____ _____    ______ ____
ROOT
ATOM      1  N   UNL     1       0.823  12.616  20.896  0.00  0.00    +0.000 N 
ATOM      2  C   UNL     1       1.665  12.713  19.790  0.00  0.00    +0.000 A 
ATOM      3  O   UNL     1       1.562  12.028  18.767  0.00  0.00    +0.000 OA
ATOM      4  C   UNL     1       2.814  13.662  19.883  0.00  0.00    +0.000 A 
ATOM      5  C   UNL     1       2.778  14.685  20.753  0.00  0.00    +0.000 A 
ATOM      6  C   UNL     1       3.917  15.649  20.844  0.00  0.00    +0.000 C 
ATOM      7  C   UNL     1       1.635  14.848  21.597  0.00  0.00    +0.000 A 
ATOM      8  C   UNL     1       1.227  15.826  22.526  0.00  0.00    +0.000 A 
ATOM      9  C   UNL     1       1.869  17.106  22.950  0.00  0.00    +0.000 C 
ATOM     10  N   UNL     1       0.073  15.475  23.106  0.00  0.00    +0.000 NA
ATOM     11  N   UNL     1      -0.347  14.340  22.472  0.00  0.00    +0.000 N 
ATOM     12  C   UNL     1       0.673  13.846  21.625  0.00  0.00    +0.000 A 
ENDROOT
BRANCH  11  13
ATOM     13  C   UNL     1      -1.713  13.947  22.679  0.00  0.00    +0.000 A 
ATOM     14  C   UNL     1      -2.770  14.763  22.280  0.00  0.00    +0.000 A 
ATOM     15  C   UNL     1      -4.103  14.401  22.476  0.00  0.00    +0.000 A 
ATOM     16  C   UNL     1      -4.404  13.247  23.181  0.00  0.00    +0.000 A 
ATOM     17  C   UNL     1      -3.367  12.421  23.624  0.00  0.00    +0.000 A 
ATOM     18  C   UNL     1      -2.029  12.761  23.365  0.00  0.00    +0.000 A 
ENDBRANCH  11  13
BRANCH   1  19
ATOM     19  C   UNL     1       0.005  11.385  20.998  0.00  0.00    +0.000 C 
ATOM     20  C   UNL     1       0.874  10.174  21.380  0.00  0.00    +0.000 C 
BRANCH  19  22
ATOM     21  N   UNL     1      -1.588  11.837  19.180  0.00  0.00    +0.000 N 
ATOM     22  C   UNL     1      -0.749  10.853  19.738  0.00  0.00    +0.000 C 
ATOM     23  O   UNL     1      -0.741   9.680  19.408  0.00  0.00    +0.000 OA
ATOM     24  H   UNL     1      -1.783  12.668  19.723  0.00  0.00    +0.000 HD
BRANCH  21  30
ATOM     25  C   UNL     1      -3.867  11.823  18.275  0.00  0.00    +0.000 A 
ATOM     26  C   UNL     1      -4.721  11.546  17.191  0.00  0.00    +0.000 A 
ATOM     27  C   UNL     1      -4.233  10.955  16.025  0.00  0.00    +0.000 A 
ATOM     28  C   UNL     1      -2.881  10.642  15.922  0.00  0.00    +0.000 A 
ATOM     29  C   UNL     1      -2.017  10.943  16.972  0.00  0.00    +0.000 A 
ATOM     30  C   UNL     1      -2.497  11.536  18.144  0.00  0.00    +0.000 A 
BRANCH  25  32
ATOM     31  C   UNL     1      -5.957  11.814  19.722  0.00  0.00    +0.000 C 
ATOM     32  C   UNL     1      -4.510  12.238  19.580  0.00  0.00    +0.000 C 
ENDBRANCH  25  32
ENDBRANCH  21  30
ENDBRANCH  19  22
ENDBRANCH   1  19
TORSDOF 5
ENDMDL
MODEL 8
REMARK VINA RESULT:      -6.2      6.079      9.062
REMARK  Name = 
REMARK  9 active torsions:
REMARK  status: ('A' for Active; 'I' for Inactive)
REMARK    1  A    between atoms: C_1  and  C_2
REMARK    2  A    between atoms: C_2  and  C_3
REMARK    3  A    between atoms: C_8  and  N_9
REMARK    4  A    between atoms: C_10  and  C_12
REMARK    5  A    between atoms: C_12  and  C_13
REMARK    6  A    between atoms: C_12  and  N_14
REMARK    7  A    between atoms: C_18  and  C_19
REMARK    8  A    between atoms: C_21  and  C_22
REMARK    9  A    between atoms: N_24  and  C_25
REMARK                            x       y       z     vdW  Elec       q    Type
REMARK                         _______ _______ _______ _____ _____    ______ ____
ROOT
ATOM      1  N   UNL     1       5.343  15.295  19.634  0.00  0.00    +0.000 N 
ATOM      2  C   UNL     1       5.016  14.832  18.361  0.00  0.00    +0.000 A 
ATOM      3  O   UNL     1       5.841  14.496  17.503  0.00  0.00    +0.000 OA
ATOM      4  C   UNL     1       3.571  14.810  17.989  0.00  0.00    +0.000 A 
ATOM      5  C   UNL     1       2.627  14.781  18.943  0.00  0.00    +0.000 A 
ATOM      6  C   UNL     1       1.177  14.744  18.581  0.00  0.00    +0.000 C 
ATOM      7  C   UNL     1       3.019  14.783  20.319  0.00  0.00    +0.000 A 
ATOM      8  C   UNL     1       2.328  14.666  21.541  0.00  0.00    +0.000 A 
ATOM      9  C   UNL     1       0.879  14.461  21.834  0.00  0.00    +0.000 C 
ATOM     10  N   UNL     1       3.170  14.791  22.574  0.00  0.00    +0.000 NA
ATOM     11  N   UNL     1       4.426  14.857  22.041  0.00  0.00    +0.000 N 
ATOM     12  C   UNL     1       4.354  14.998  20.635  0.00  0.00    +0.000 A 
ENDROOT
BRANCH  11  13
ATOM     13  C   UNL     1       5.527  14.663  22.943  0.00  0.00    +0.000 A 
ATOM     14  C   UNL     1       5.856  13.395  23.420  0.00  0.00    +0.000 A 
ATOM     15  C   UNL     1       6.919  13.186  24.300  0.00  0.00    +0.000 A 
ATOM     16  C   UNL     1       7.614  14.273  24.807  0.00  0.00    +0.000 A 
ATOM     17  C   UNL     1       7.288  15.561  24.374  0.00  0.00    +0.000 A 
ATOM     18  C   UNL     1       6.259  15.756  23.438  0.00  0.00    +0.000 A 
ENDBRANCH  11  13
BRANCH   1  19
ATOM     19  C   UNL     1       6.737  15.758  19.832  0.00  0.00    +0.000 C 
ATOM     20  C   UNL     1       7.177  16.691  18.690  0.00  0.00    +0.000 C 
BRANCH  19  22
ATOM     21  N   UNL     1       8.516  14.590  18.601  0.00  0.00    +0.000 N 
ATOM     22  C   UNL     1       7.899  14.715  19.860  0.00  0.00    +0.000 C 
ATOM     23  O   UNL     1       8.107  13.980  20.809  0.00  0.00    +0.000 OA
ATOM     24  H   UNL     1       8.053  14.991  17.795  0.00  0.00    +0.000 HD
BRANCH  21  30
ATOM     25  C   UNL     1      10.847  13.883  18.308  0.00  0.00    +0.000 A 
ATOM     26  C   UNL     1      11.759  12.833  18.089  0.00  0.00    +0.000 A 
ATOM     27  C   UNL     1      11.313  11.532  17.859  0.00  0.00    +0.000 A 
ATOM     28  C   UNL     1       9.949  11.258  17.855  0.00  0.00    +0.000 A 
ATOM     29  C   UNL     1       9.035  12.278  18.106  0.00  0.00    +0.000 A 
ATOM     30  C   UNL     1       9.472  13.587  18.338  0.00  0.00    +0.000 A 
BRANCH  25  32
ATOM     31  C   UNL     1      11.747  15.821  19.686  0.00  0.00    +0.000 C 
ATOM     32  C   UNL     1      11.394  15.293  18.310  0.00  0.00    +0.000 C 
ENDBRANCH  25  32
ENDBRANCH  21  30
ENDBRANCH  19  22
ENDBRANCH   1  19
TORSDOF 5
ENDMDL
MODEL 9
REMARK VINA RESULT:      -6.2      6.123      9.145
REMARK  Name = 
REMARK  9 active torsions:
REMARK  status: ('A' for Active; 'I' for Inactive)
REMARK    1  A    between atoms: C_1  and  C_2
REMARK    2  A    between atoms: C_2  and  C_3
REMARK    3  A    between atoms: C_8  and  N_9
REMARK    4  A    between atoms: C_10  and  C_12
REMARK    5  A    between atoms: C_12  and  C_13
REMARK    6  A    between atoms: C_12  and  N_14
REMARK    7  A    between atoms: C_18  and  C_19
REMARK    8  A    between atoms: C_21  and  C_22
REMARK    9  A    between atoms: N_24  and  C_25
REMARK                            x       y       z     vdW  Elec       q    Type
REMARK                         _______ _______ _______ _____ _____    ______ ____
ROOT
ATOM      1  N   UNL     1       5.323  15.477  19.468  0.00  0.00    +0.000 N 
ATOM      2  C   UNL     1       4.974  15.039  18.191  0.00  0.00    +0.000 A 
ATOM      3  O   UNL     1       5.780  14.801  17.286  0.00  0.00    +0.000 OA
ATOM      4  C   UNL     1       3.519  14.920  17.882  0.00  0.00    +0.000 A 
ATOM      5  C   UNL     1       2.624  14.782  18.874  0.00  0.00    +0.000 A 
ATOM      6  C   UNL     1       1.165  14.648  18.573  0.00  0.00    +0.000 C 
ATOM      7  C   UNL     1       3.078  14.761  20.230  0.00  0.00    +0.000 A 
ATOM      8  C   UNL     1       2.455  14.545  21.475  0.00  0.00    +0.000 A 
ATOM      9  C   UNL     1       1.040  14.218  21.821  0.00  0.00    +0.000 C 
ATOM     10  N   UNL     1       3.333  14.694  22.475  0.00  0.00    +0.000 NA
ATOM     11  N   UNL     1       4.554  14.878  21.891  0.00  0.00    +0.000 N 
ATOM     12  C   UNL     1       4.407  15.067  20.497  0.00  0.00    +0.000 A 
ENDROOT
BRANCH  11  13
ATOM     13  C   UNL     1       5.707  14.734  22.736  0.00  0.00    +0.000 A 
ATOM     14  C   UNL     1       6.339  13.502  22.894  0.00  0.00    +0.000 A 
ATOM     15  C   UNL     1       7.457  13.341  23.713  0.00  0.00    +0.000 A 
ATOM     16  C   UNL     1       7.904  14.404  24.482  0.00  0.00    +0.000 A 
ATOM     17  C   UNL     1       7.272  15.646  24.371  0.00  0.00    +0.000 A 
ATOM     18  C   UNL     1       6.188  15.816  23.495  0.00  0.00    +0.000 A 
ENDBRANCH  11  13
BRANCH   1  19
ATOM     19  C   UNL     1       6.686  16.038  19.624  0.00  0.00    +0.000 C 
ATOM     20  C   UNL     1       6.820  17.380  18.883  0.00  0.00    +0.000 C 
BRANCH  19  22
ATOM     21  N   UNL     1       8.009  13.965  19.655  0.00  0.00    +0.000 N 
ATOM     22  C   UNL     1       7.914  15.245  19.075  0.00  0.00    +0.000 C 
ATOM     23  O   UNL     1       8.772  15.754  18.376  0.00  0.00    +0.000 OA
ATOM     24  H   UNL     1       7.447  13.764  20.473  0.00  0.00    +0.000 HD
BRANCH  21  30
ATOM     25  C   UNL     1      10.206  13.127  20.352  0.00  0.00    +0.000 A 
ATOM     26  C   UNL     1      11.278  12.245  20.118  0.00  0.00    +0.000 A 
ATOM     27  C   UNL     1      11.301  11.427  18.988  0.00  0.00    +0.000 A 
ATOM     28  C   UNL     1      10.249  11.473  18.079  0.00  0.00    +0.000 A 
ATOM     29  C   UNL     1       9.164  12.314  18.314  0.00  0.00    +0.000 A 
ATOM     30  C   UNL     1       9.130  13.136  19.446  0.00  0.00    +0.000 A 
BRANCH  25  32
ATOM     31  C   UNL     1      11.064  15.419  21.038  0.00  0.00    +0.000 C 
ATOM     32  C   UNL     1      10.368  14.141  21.461  0.00  0.00    +0.000 C 
ENDBRANCH  25  32
ENDBRANCH  21  30
ENDBRANCH  19  22
ENDBRANCH   1  19
TORSDOF 5
ENDMDL
