MODEL 1
REMARK VINA RESULT:      -8.4      0.000      0.000
REMARK  Name = 
REMARK  7 active torsions:
REMARK  status: ('A' for Active; 'I' for Inactive)
REMARK    1  A    between atoms: C_1  and  O_2
REMARK    2  A    between atoms: O_2  and  C_3
REMARK    3  A    between atoms: C_8  and  N_9
REMARK    4  A    between atoms: N_12  and  C_13
REMARK    5  A    between atoms: C_15  and  C_16
REMARK    6  A    between atoms: C_16  and  C_17
REMARK    7  A    between atoms: N_24  and  C_25
REMARK                            x       y       z     vdW  Elec       q    Type
REMARK                         _______ _______ _______ _____ _____    ______ ____
ROOT
ATOM      1  C   UNL     1       3.129   6.959  18.193  0.00  0.00    +0.000 A 
ATOM      2  C   UNL     1       4.339   7.395  17.688  0.00  0.00    +0.000 A 
ATOM      3  C   UNL     1       5.206   6.287  17.806  0.00  0.00    +0.000 A 
ATOM      4  N   UNL     1       4.611   5.254  18.405  0.00  0.00    +0.000 NA
ATOM      5  N   UNL     1       3.326   5.643  18.589  0.00  0.00    +0.000 N 
ENDROOT
BRANCH   1   9
ATOM      6  N   UNL     1       0.464   9.060  19.451  0.00  0.00    +0.000 N 
ATOM      7  C   UNL     1       1.557   8.244  19.557  0.00  0.00    +0.000 C 
ATOM      8  O   UNL     1       2.240   8.003  20.540  0.00  0.00    +0.000 OA
ATOM      9  N   UNL     1       1.954   7.719  18.287  0.00  0.00    +0.000 N 
ATOM     10  H   UNL     1      -0.209   8.921  18.708  0.00  0.00    +0.000 HD
ATOM     11  H   UNL     1       1.562   8.113  17.443  0.00  0.00    +0.000 HD
BRANCH   6  17
ATOM     12  C   UNL     1       0.149  11.388  20.158  0.00  0.00    +0.000 A 
ATOM     13  C   UNL     1      -0.178  12.318  21.158  0.00  0.00    +0.000 A 
ATOM     14  C   UNL     1      -0.603  11.893  22.415  0.00  0.00    +0.000 A 
ATOM     15  C   UNL     1      -0.686  10.537  22.689  0.00  0.00    +0.000 A 
ATOM     16  C   UNL     1      -0.343   9.601  21.717  0.00  0.00    +0.000 A 
ATOM     17  C   UNL     1       0.074  10.007  20.441  0.00  0.00    +0.000 A 
BRANCH  12  19
ATOM     18  C   UNL     1       1.806  12.425  18.822  0.00  0.00    +0.000 C 
ATOM     19  O   UNL     1       0.543  11.749  18.888  0.00  0.00    +0.000 OA
ENDBRANCH  12  19
ENDBRANCH   6  17
ENDBRANCH   1   9
BRANCH   5  20
ATOM     20  C   UNL     1       2.372   4.679  19.003  0.00  0.00    +0.000 A 
ATOM     21  C   UNL     1       2.060   4.574  20.363  0.00  0.00    +0.000 A 
ATOM     22  C   UNL     1       1.170   3.596  20.804  0.00  0.00    +0.000 A 
ATOM     23  C   UNL     1       0.616   2.702  19.890  0.00  0.00    +0.000 A 
ATOM     24  C   UNL     1       0.941   2.787  18.538  0.00  0.00    +0.000 A 
ATOM     25  C   UNL     1       1.811   3.781  18.084  0.00  0.00    +0.000 A 
ENDBRANCH   5  20
BRANCH   3  26
ATOM     26  C   UNL     1       6.659   6.180  17.273  0.00  0.00    +0.000 C 
ATOM     27  C   UNL     1       7.479   7.479  17.213  0.00  0.00    +0.000 C 
ATOM     28  C   UNL     1       7.737   6.516  18.318  0.00  0.00    +0.000 C 
BRANCH  26  29
ATOM     29  C   UNL     1       6.977   5.103  16.262  0.00  0.00    +0.000 C 
ATOM     30  F   UNL     1       5.867   4.562  15.704  0.00  0.00    +0.000 F 
ATOM     31  F   UNL     1       7.724   5.600  15.244  0.00  0.00    +0.000 F 
ATOM     32  F   UNL     1       7.680   4.091  16.823  0.00  0.00    +0.000 F 
ENDBRANCH  26  29
ENDBRANCH   3  26
TORSDOF 6
ENDMDL
MODEL 2
REMARK VINA RESULT:      -8.3      1.698      2.088
REMARK  Name = 
REMARK  7 active torsions:
REMARK  status: ('A' for Active; 'I' for Inactive)
REMARK    1  A    between atoms: C_1  and  O_2
REMARK    2  A    between atoms: O_2  and  C_3
REMARK    3  A    between atoms: C_8  and  N_9
REMARK    4  A    between atoms: N_12  and  C_13
REMARK    5  A    between atoms: C_15  and  C_16
REMARK    6  A    between atoms: C_16  and  C_17
REMARK    7  A    between atoms: N_24  and  C_25
REMARK                            x       y       z     vdW  Elec       q    Type
REMARK                         _______ _______ _______ _____ _____    ______ ____
ROOT
ATOM      1  C   UNL     1       3.318   6.637  18.628  0.00  0.00    +0.000 A 
ATOM      2  C   UNL     1       4.398   6.988  17.840  0.00  0.00    +0.000 A 
ATOM      3  C   UNL     1       4.981   5.762  17.452  0.00  0.00    +0.000 A 
ATOM      4  N   UNL     1       4.363   4.720  18.010  0.00  0.00    +0.000 NA
ATOM      5  N   UNL     1       3.311   5.250  18.682  0.00  0.00    +0.000 N 
ENDROOT
BRANCH   1   9
ATOM      6  N   UNL     1       0.957   9.316  19.216  0.00  0.00    +0.000 N 
ATOM      7  C   UNL     1       1.897   8.624  18.503  0.00  0.00    +0.000 C 
ATOM      8  O   UNL     1       2.242   8.777  17.342  0.00  0.00    +0.000 OA
ATOM      9  N   UNL     1       2.430   7.526  19.250  0.00  0.00    +0.000 N 
ATOM     10  H   UNL     1       0.996   9.340  20.228  0.00  0.00    +0.000 HD
ATOM     11  H   UNL     1       1.970   7.237  20.102  0.00  0.00    +0.000 HD
BRANCH   6  17
ATOM     12  C   UNL     1       0.110  11.587  18.835  0.00  0.00    +0.000 A 
ATOM     13  C   UNL     1      -0.872  12.443  18.310  0.00  0.00    +0.000 A 
ATOM     14  C   UNL     1      -1.937  11.935  17.569  0.00  0.00    +0.000 A 
ATOM     15  C   UNL     1      -2.041  10.568  17.363  0.00  0.00    +0.000 A 
ATOM     16  C   UNL     1      -1.089   9.704  17.896  0.00  0.00    +0.000 A 
ATOM     17  C   UNL     1      -0.002  10.194  18.634  0.00  0.00    +0.000 A 
BRANCH  12  19
ATOM     18  C   UNL     1       2.183  12.728  18.767  0.00  0.00    +0.000 C 
ATOM     19  O   UNL     1       1.201  12.033  19.547  0.00  0.00    +0.000 OA
ENDBRANCH  12  19
ENDBRANCH   6  17
ENDBRANCH   1   9
BRANCH   5  20
ATOM     20  C   UNL     1       2.321   4.378  19.201  0.00  0.00    +0.000 A 
ATOM     21  C   UNL     1       2.218   4.218  20.588  0.00  0.00    +0.000 A 
ATOM     22  C   UNL     1       1.293   3.323  21.123  0.00  0.00    +0.000 A 
ATOM     23  C   UNL     1       0.494   2.563  20.272  0.00  0.00    +0.000 A 
ATOM     24  C   UNL     1       0.608   2.701  18.890  0.00  0.00    +0.000 A 
ATOM     25  C   UNL     1       1.513   3.615  18.346  0.00  0.00    +0.000 A 
ENDBRANCH   5  20
BRANCH   3  26
ATOM     26  C   UNL     1       6.152   5.562  16.454  0.00  0.00    +0.000 C 
ATOM     27  C   UNL     1       7.476   6.273  16.779  0.00  0.00    +0.000 C 
ATOM     28  C   UNL     1       7.359   4.814  17.047  0.00  0.00    +0.000 C 
BRANCH  26  29
ATOM     29  C   UNL     1       5.825   5.319  14.999  0.00  0.00    +0.000 C 
ATOM     30  F   UNL     1       5.132   4.172  14.800  0.00  0.00    +0.000 F 
ATOM     31  F   UNL     1       5.066   6.326  14.500  0.00  0.00    +0.000 F 
ATOM     32  F   UNL     1       6.948   5.247  14.246  0.00  0.00    +0.000 F 
ENDBRANCH  26  29
ENDBRANCH   3  26
TORSDOF 6
ENDMDL
MODEL 3
REMARK VINA RESULT:      -8.2      0.271      1.132
REMARK  Name = 
REMARK  7 active torsions:
REMARK  status: ('A' for Active; 'I' for Inactive)
REMARK    1  A    between atoms: C_1  and  O_2
REMARK    2  A    between atoms: O_2  and  C_3
REMARK    3  A    between atoms: C_8  and  N_9
REMARK    4  A    between atoms: N_12  and  C_13
REMARK    5  A    between atoms: C_15  and  C_16
REMARK    6  A    between atoms: C_16  and  C_17
REMARK    7  A    between atoms: N_24  and  C_25
REMARK                            x       y       z     vdW  Elec       q    Type
REMARK                         _______ _______ _______ _____ _____    ______ ____
ROOT
ATOM      1  C   UNL     1       3.160   6.902  18.300  0.00  0.00    +0.000 A 
ATOM      2  C   UNL     1       4.338   7.367  17.746  0.00  0.00    +0.000 A 
ATOM      3  C   UNL     1       5.246   6.293  17.859  0.00  0.00    +0.000 A 
ATOM      4  N   UNL     1       4.708   5.254  18.500  0.00  0.00    +0.000 NA
ATOM      5  N   UNL     1       3.416   5.603  18.718  0.00  0.00    +0.000 N 
ENDROOT
BRANCH   1   9
ATOM      6  N   UNL     1       0.428   8.872  19.623  0.00  0.00    +0.000 N 
ATOM      7  C   UNL     1       1.544   8.084  19.704  0.00  0.00    +0.000 C 
ATOM      8  O   UNL     1       2.227   7.823  20.681  0.00  0.00    +0.000 OA
ATOM      9  N   UNL     1       1.964   7.623  18.416  0.00  0.00    +0.000 N 
ATOM     10  H   UNL     1      -0.236   8.745  18.869  0.00  0.00    +0.000 HD
ATOM     11  H   UNL     1       1.566   8.040  17.586  0.00  0.00    +0.000 HD
BRANCH   6  17
ATOM     12  C   UNL     1      -0.023  11.156  20.398  0.00  0.00    +0.000 A 
ATOM     13  C   UNL     1      -0.382  12.037  21.431  0.00  0.00    +0.000 A 
ATOM     14  C   UNL     1      -0.739  11.553  22.688  0.00  0.00    +0.000 A 
ATOM     15  C   UNL     1      -0.722  10.188  22.930  0.00  0.00    +0.000 A 
ATOM     16  C   UNL     1      -0.346   9.302  21.924  0.00  0.00    +0.000 A 
ATOM     17  C   UNL     1       0.005   9.766  20.648  0.00  0.00    +0.000 A 
BRANCH  12  19
ATOM     18  C   UNL     1       1.585  12.216  19.022  0.00  0.00    +0.000 C 
ATOM     19  O   UNL     1       0.308  11.572  19.128  0.00  0.00    +0.000 OA
ENDBRANCH  12  19
ENDBRANCH   6  17
ENDBRANCH   1   9
BRANCH   5  20
ATOM     20  C   UNL     1       2.510   4.616  19.184  0.00  0.00    +0.000 A 
ATOM     21  C   UNL     1       1.710   3.939  18.256  0.00  0.00    +0.000 A 
ATOM     22  C   UNL     1       0.769   3.007  18.692  0.00  0.00    +0.000 A 
ATOM     23  C   UNL     1       0.605   2.776  20.056  0.00  0.00    +0.000 A 
ATOM     24  C   UNL     1       1.382   3.465  20.984  0.00  0.00    +0.000 A 
ATOM     25  C   UNL     1       2.345   4.380  20.555  0.00  0.00    +0.000 A 
ENDBRANCH   5  20
BRANCH   3  26
ATOM     26  C   UNL     1       6.684   6.223  17.280  0.00  0.00    +0.000 C 
ATOM     27  C   UNL     1       7.504   7.523  17.287  0.00  0.00    +0.000 C 
ATOM     28  C   UNL     1       7.790   6.487  18.316  0.00  0.00    +0.000 C 
BRANCH  26  29
ATOM     29  C   UNL     1       6.973   5.217  16.190  0.00  0.00    +0.000 C 
ATOM     30  F   UNL     1       7.560   4.089  16.657  0.00  0.00    +0.000 F 
ATOM     31  F   UNL     1       5.829   4.834  15.569  0.00  0.00    +0.000 F 
ATOM     32  F   UNL     1       7.792   5.736  15.245  0.00  0.00    +0.000 F 
ENDBRANCH  26  29
ENDBRANCH   3  26
TORSDOF 6
ENDMDL
MODEL 4
REMARK VINA RESULT:      -8.2      1.463      1.829
REMARK  Name = 
REMARK  7 active torsions:
REMARK  status: ('A' for Active; 'I' for Inactive)
REMARK    1  A    between atoms: C_1  and  O_2
REMARK    2  A    between atoms: O_2  and  C_3
REMARK    3  A    between atoms: C_8  and  N_9
REMARK    4  A    between atoms: N_12  and  C_13
REMARK    5  A    between atoms: C_15  and  C_16
REMARK    6  A    between atoms: C_16  and  C_17
REMARK    7  A    between atoms: N_24  and  C_25
REMARK                            x       y       z     vdW  Elec       q    Type
REMARK                         _______ _______ _______ _____ _____    ______ ____
ROOT
ATOM      1  C   UNL     1       3.253   6.883  17.740  0.00  0.00    +0.000 A 
ATOM      2  C   UNL     1       4.526   7.221  17.321  0.00  0.00    +0.000 A 
ATOM      3  C   UNL     1       5.360   6.197  17.821  0.00  0.00    +0.000 A 
ATOM      4  N   UNL     1       4.679   5.320  18.560  0.00  0.00    +0.000 NA
ATOM      5  N   UNL     1       3.383   5.705  18.463  0.00  0.00    +0.000 N 
ENDROOT
BRANCH   1   9
ATOM      6  N   UNL     1       0.509   9.226  18.023  0.00  0.00    +0.000 N 
ATOM      7  C   UNL     1       1.581   8.507  18.479  0.00  0.00    +0.000 C 
ATOM      8  O   UNL     1       2.171   8.606  19.543  0.00  0.00    +0.000 OA
ATOM      9  N   UNL     1       2.083   7.611  17.484  0.00  0.00    +0.000 N 
ATOM     10  H   UNL     1      -0.097   8.844  17.307  0.00  0.00    +0.000 HD
ATOM     11  H   UNL     1       1.771   7.707  16.527  0.00  0.00    +0.000 HD
BRANCH   6  17
ATOM     12  C   UNL     1      -1.340  10.718  18.636  0.00  0.00    +0.000 A 
ATOM     13  C   UNL     1      -1.788  11.936  19.171  0.00  0.00    +0.000 A 
ATOM     14  C   UNL     1      -0.887  12.851  19.712  0.00  0.00    +0.000 A 
ATOM     15  C   UNL     1       0.470  12.566  19.706  0.00  0.00    +0.000 A 
ATOM     16  C   UNL     1       0.933  11.372  19.158  0.00  0.00    +0.000 A 
ATOM     17  C   UNL     1       0.043  10.432  18.620  0.00  0.00    +0.000 A 
BRANCH  12  19
ATOM     18  C   UNL     1      -2.652  10.031  16.789  0.00  0.00    +0.000 C 
ATOM     19  O   UNL     1      -2.185   9.762  18.118  0.00  0.00    +0.000 OA
ENDBRANCH  12  19
ENDBRANCH   6  17
ENDBRANCH   1   9
BRANCH   5  20
ATOM     20  C   UNL     1       2.372   4.841  18.956  0.00  0.00    +0.000 A 
ATOM     21  C   UNL     1       2.114   4.817  20.332  0.00  0.00    +0.000 A 
ATOM     22  C   UNL     1       1.167   3.934  20.850  0.00  0.00    +0.000 A 
ATOM     23  C   UNL     1       0.503   3.053  19.999  0.00  0.00    +0.000 A 
ATOM     24  C   UNL     1       0.774   3.057  18.633  0.00  0.00    +0.000 A 
ATOM     25  C   UNL     1       1.701   3.956  18.101  0.00  0.00    +0.000 A 
ENDBRANCH   5  20
BRANCH   3  26
ATOM     26  C   UNL     1       6.874   6.006  17.539  0.00  0.00    +0.000 C 
ATOM     27  C   UNL     1       7.727   7.279  17.410  0.00  0.00    +0.000 C 
ATOM     28  C   UNL     1       7.790   6.495  18.674  0.00  0.00    +0.000 C 
BRANCH  26  29
ATOM     29  C   UNL     1       7.313   4.786  16.763  0.00  0.00    +0.000 C 
ATOM     30  F   UNL     1       6.296   3.925  16.516  0.00  0.00    +0.000 F 
ATOM     31  F   UNL     1       7.827   5.139  15.558  0.00  0.00    +0.000 F 
ATOM     32  F   UNL     1       8.272   4.098  17.426  0.00  0.00    +0.000 F 
ENDBRANCH  26  29
ENDBRANCH   3  26
TORSDOF 6
ENDMDL
MODEL 5
REMARK VINA RESULT:      -8.1      1.779      2.329
REMARK  Name = 
REMARK  7 active torsions:
REMARK  status: ('A' for Active; 'I' for Inactive)
REMARK    1  A    between atoms: C_1  and  O_2
REMARK    2  A    between atoms: O_2  and  C_3
REMARK    3  A    between atoms: C_8  and  N_9
REMARK    4  A    between atoms: N_12  and  C_13
REMARK    5  A    between atoms: C_15  and  C_16
REMARK    6  A    between atoms: C_16  and  C_17
REMARK    7  A    between atoms: N_24  and  C_25
REMARK                            x       y       z     vdW  Elec       q    Type
REMARK                         _______ _______ _______ _____ _____    ______ ____
ROOT
ATOM      1  C   UNL     1       3.385   6.581  18.509  0.00  0.00    +0.000 A 
ATOM      2  C   UNL     1       4.293   6.825  17.496  0.00  0.00    +0.000 A 
ATOM      3  C   UNL     1       4.823   5.559  17.166  0.00  0.00    +0.000 A 
ATOM      4  N   UNL     1       4.342   4.599  17.957  0.00  0.00    +0.000 NA
ATOM      5  N   UNL     1       3.421   5.212  18.739  0.00  0.00    +0.000 N 
ENDROOT
BRANCH   1   9
ATOM      6  N   UNL     1       1.191   9.380  19.179  0.00  0.00    +0.000 N 
ATOM      7  C   UNL     1       2.015   8.604  18.409  0.00  0.00    +0.000 C 
ATOM      8  O   UNL     1       2.217   8.662  17.207  0.00  0.00    +0.000 OA
ATOM      9  N   UNL     1       2.606   7.544  19.166  0.00  0.00    +0.000 N 
ATOM     10  H   UNL     1       1.357   9.474  20.173  0.00  0.00    +0.000 HD
ATOM     11  H   UNL     1       2.249   7.333  20.087  0.00  0.00    +0.000 HD
BRANCH   6  17
ATOM     12  C   UNL     1       0.294  11.642  18.862  0.00  0.00    +0.000 A 
ATOM     13  C   UNL     1      -0.725  12.488  18.395  0.00  0.00    +0.000 A 
ATOM     14  C   UNL     1      -1.819  11.971  17.704  0.00  0.00    +0.000 A 
ATOM     15  C   UNL     1      -1.914  10.604  17.491  0.00  0.00    +0.000 A 
ATOM     16  C   UNL     1      -0.924   9.749  17.967  0.00  0.00    +0.000 A 
ATOM     17  C   UNL     1       0.192  10.249  18.654  0.00  0.00    +0.000 A 
BRANCH  12  19
ATOM     18  C   UNL     1       2.212  13.027  18.777  0.00  0.00    +0.000 C 
ATOM     19  O   UNL     1       1.414  12.097  19.522  0.00  0.00    +0.000 OA
ENDBRANCH  12  19
ENDBRANCH   6  17
ENDBRANCH   1   9
BRANCH   5  20
ATOM     20  C   UNL     1       2.563   4.416  19.541  0.00  0.00    +0.000 A 
ATOM     21  C   UNL     1       2.873   4.237  20.894  0.00  0.00    +0.000 A 
ATOM     22  C   UNL     1       2.080   3.412  21.690  0.00  0.00    +0.000 A 
ATOM     23  C   UNL     1       0.998   2.739  21.127  0.00  0.00    +0.000 A 
ATOM     24  C   UNL     1       0.699   2.895  19.775  0.00  0.00    +0.000 A 
ATOM     25  C   UNL     1       1.472   3.741  18.977  0.00  0.00    +0.000 A 
ENDBRANCH   5  20
BRANCH   3  26
ATOM     26  C   UNL     1       5.795   5.230  16.002  0.00  0.00    +0.000 C 
ATOM     27  C   UNL     1       5.316   4.204  14.961  0.00  0.00    +0.000 C 
ATOM     28  C   UNL     1       5.278   5.651  14.616  0.00  0.00    +0.000 C 
BRANCH  26  29
ATOM     29  C   UNL     1       7.281   5.331  16.254  0.00  0.00    +0.000 C 
ATOM     30  F   UNL     1       7.732   4.392  17.121  0.00  0.00    +0.000 F 
ATOM     31  F   UNL     1       7.979   5.168  15.103  0.00  0.00    +0.000 F 
ATOM     32  F   UNL     1       7.614   6.541  16.762  0.00  0.00    +0.000 F 
ENDBRANCH  26  29
ENDBRANCH   3  26
TORSDOF 6
ENDMDL
MODEL 6
REMARK VINA RESULT:      -8.0      0.948      1.836
REMARK  Name = 
REMARK  7 active torsions:
REMARK  status: ('A' for Active; 'I' for Inactive)
REMARK    1  A    between atoms: C_1  and  O_2
REMARK    2  A    between atoms: O_2  and  C_3
REMARK    3  A    between atoms: C_8  and  N_9
REMARK    4  A    between atoms: N_12  and  C_13
REMARK    5  A    between atoms: C_15  and  C_16
REMARK    6  A    between atoms: C_16  and  C_17
REMARK    7  A    between atoms: N_24  and  C_25
REMARK                            x       y       z     vdW  Elec       q    Type
REMARK                         _______ _______ _______ _____ _____    ______ ____
ROOT
ATOM      1  C   UNL     1       3.177   6.985  17.936  0.00  0.00    +0.000 A 
ATOM      2  C   UNL     1       4.424   7.348  17.464  0.00  0.00    +0.000 A 
ATOM      3  C   UNL     1       5.274   6.275  17.808  0.00  0.00    +0.000 A 
ATOM      4  N   UNL     1       4.630   5.338  18.507  0.00  0.00    +0.000 NA
ATOM      5  N   UNL     1       3.337   5.743  18.536  0.00  0.00    +0.000 N 
ENDROOT
BRANCH   1   9
ATOM      6  N   UNL     1       0.519   9.350  18.600  0.00  0.00    +0.000 N 
ATOM      7  C   UNL     1       1.613   8.589  18.915  0.00  0.00    +0.000 C 
ATOM      8  O   UNL     1       2.300   8.619  19.924  0.00  0.00    +0.000 OA
ATOM      9  N   UNL     1       2.003   7.744  17.830  0.00  0.00    +0.000 N 
ATOM     10  H   UNL     1      -0.158   9.018  17.924  0.00  0.00    +0.000 HD
ATOM     11  H   UNL     1       1.607   7.899  16.913  0.00  0.00    +0.000 HD
BRANCH   6  17
ATOM     12  C   UNL     1      -0.475  10.419  20.572  0.00  0.00    +0.000 A 
ATOM     13  C   UNL     1      -0.907  11.580  21.234  0.00  0.00    +0.000 A 
ATOM     14  C   UNL     1      -0.714  12.837  20.665  0.00  0.00    +0.000 A 
ATOM     15  C   UNL     1      -0.106  12.944  19.424  0.00  0.00    +0.000 A 
ATOM     16  C   UNL     1       0.308  11.801  18.744  0.00  0.00    +0.000 A 
ATOM     17  C   UNL     1       0.134  10.527  19.303  0.00  0.00    +0.000 A 
BRANCH  12  19
ATOM     18  C   UNL     1      -0.382   9.064  22.511  0.00  0.00    +0.000 C 
ATOM     19  O   UNL     1      -0.610   9.153  21.098  0.00  0.00    +0.000 OA
ENDBRANCH  12  19
ENDBRANCH   6  17
ENDBRANCH   1   9
BRANCH   5  20
ATOM     20  C   UNL     1       2.349   4.845  19.015  0.00  0.00    +0.000 A 
ATOM     21  C   UNL     1       2.158   4.721  20.396  0.00  0.00    +0.000 A 
ATOM     22  C   UNL     1       1.235   3.803  20.895  0.00  0.00    +0.000 A 
ATOM     23  C   UNL     1       0.527   2.987  20.017  0.00  0.00    +0.000 A 
ATOM     24  C   UNL     1       0.730   3.090  18.642  0.00  0.00    +0.000 A 
ATOM     25  C   UNL     1       1.633   4.025  18.132  0.00  0.00    +0.000 A 
ENDBRANCH   5  20
BRANCH   3  26
ATOM     26  C   UNL     1       6.761   6.097  17.406  0.00  0.00    +0.000 C 
ATOM     27  C   UNL     1       7.622   7.370  17.331  0.00  0.00    +0.000 C 
ATOM     28  C   UNL     1       7.760   6.477  18.514  0.00  0.00    +0.000 C 
BRANCH  26  29
ATOM     29  C   UNL     1       7.130   4.948  16.498  0.00  0.00    +0.000 C 
ATOM     30  F   UNL     1       8.029   4.103  17.058  0.00  0.00    +0.000 F 
ATOM     31  F   UNL     1       6.037   4.206  16.188  0.00  0.00    +0.000 F 
ATOM     32  F   UNL     1       7.663   5.389  15.334  0.00  0.00    +0.000 F 
ENDBRANCH  26  29
ENDBRANCH   3  26
TORSDOF 6
ENDMDL
MODEL 7
REMARK VINA RESULT:      -8.0      1.640      2.426
REMARK  Name = 
REMARK  7 active torsions:
REMARK  status: ('A' for Active; 'I' for Inactive)
REMARK    1  A    between atoms: C_1  and  O_2
REMARK    2  A    between atoms: O_2  and  C_3
REMARK    3  A    between atoms: C_8  and  N_9
REMARK    4  A    between atoms: N_12  and  C_13
REMARK    5  A    between atoms: C_15  and  C_16
REMARK    6  A    between atoms: C_16  and  C_17
REMARK    7  A    between atoms: N_24  and  C_25
REMARK                            x       y       z     vdW  Elec       q    Type
REMARK                         _______ _______ _______ _____ _____    ______ ____
ROOT
ATOM      1  C   UNL     1       3.318   6.660  18.703  0.00  0.00    +0.000 A 
ATOM      2  C   UNL     1       4.322   7.030  17.828  0.00  0.00    +0.000 A 
ATOM      3  C   UNL     1       4.999   5.830  17.519  0.00  0.00    +0.000 A 
ATOM      4  N   UNL     1       4.507   4.794  18.200  0.00  0.00    +0.000 NA
ATOM      5  N   UNL     1       3.443   5.289  18.879  0.00  0.00    +0.000 N 
ENDROOT
BRANCH   1   9
ATOM      6  N   UNL     1       0.871   9.279  19.208  0.00  0.00    +0.000 N 
ATOM      7  C   UNL     1       1.861   8.617  18.533  0.00  0.00    +0.000 C 
ATOM      8  O   UNL     1       2.259   8.794  17.393  0.00  0.00    +0.000 OA
ATOM      9  N   UNL     1       2.380   7.521  19.291  0.00  0.00    +0.000 N 
ATOM     10  H   UNL     1       0.860   9.289  20.220  0.00  0.00    +0.000 HD
ATOM     11  H   UNL     1       1.885   7.209  20.115  0.00  0.00    +0.000 HD
BRANCH   6  17
ATOM     12  C   UNL     1      -0.023  11.533  18.837  0.00  0.00    +0.000 A 
ATOM     13  C   UNL     1      -0.997  12.374  18.274  0.00  0.00    +0.000 A 
ATOM     14  C   UNL     1      -1.997  11.856  17.453  0.00  0.00    +0.000 A 
ATOM     15  C   UNL     1      -2.043  10.493  17.203  0.00  0.00    +0.000 A 
ATOM     16  C   UNL     1      -1.099   9.643  17.771  0.00  0.00    +0.000 A 
ATOM     17  C   UNL     1      -0.077  10.144  18.590  0.00  0.00    +0.000 A 
BRANCH  12  19
ATOM     18  C   UNL     1       0.592  12.588  20.864  0.00  0.00    +0.000 C 
ATOM     19  O   UNL     1       1.007  11.991  19.629  0.00  0.00    +0.000 OA
ENDBRANCH  12  19
ENDBRANCH   6  17
ENDBRANCH   1   9
BRANCH   5  20
ATOM     20  C   UNL     1       2.564   4.384  19.528  0.00  0.00    +0.000 A 
ATOM     21  C   UNL     1       1.585   3.730  18.771  0.00  0.00    +0.000 A 
ATOM     22  C   UNL     1       0.671   2.882  19.393  0.00  0.00    +0.000 A 
ATOM     23  C   UNL     1       0.714   2.712  20.775  0.00  0.00    +0.000 A 
ATOM     24  C   UNL     1       1.671   3.378  21.536  0.00  0.00    +0.000 A 
ATOM     25  C   UNL     1       2.608   4.209  20.918  0.00  0.00    +0.000 A 
ENDBRANCH   5  20
BRANCH   3  26
ATOM     26  C   UNL     1       6.135   5.643  16.479  0.00  0.00    +0.000 C 
ATOM     27  C   UNL     1       7.457   6.381  16.748  0.00  0.00    +0.000 C 
ATOM     28  C   UNL     1       7.377   4.922  17.032  0.00  0.00    +0.000 C 
BRANCH  26  29
ATOM     29  C   UNL     1       5.759   5.381  15.040  0.00  0.00    +0.000 C 
ATOM     30  F   UNL     1       6.837   5.226  14.235  0.00  0.00    +0.000 F 
ATOM     31  F   UNL     1       5.023   4.247  14.930  0.00  0.00    +0.000 F 
ATOM     32  F   UNL     1       5.019   6.395  14.531  0.00  0.00    +0.000 F 
ENDBRANCH  26  29
ENDBRANCH   3  26
TORSDOF 6
ENDMDL
MODEL 8
REMARK VINA RESULT:      -8.0      2.925      5.232
REMARK  Name = 
REMARK  7 active torsions:
REMARK  status: ('A' for Active; 'I' for Inactive)
REMARK    1  A    between atoms: C_1  and  O_2
REMARK    2  A    between atoms: O_2  and  C_3
REMARK    3  A    between atoms: C_8  and  N_9
REMARK    4  A    between atoms: N_12  and  C_13
REMARK    5  A    between atoms: C_15  and  C_16
REMARK    6  A    between atoms: C_16  and  C_17
REMARK    7  A    between atoms: N_24  and  C_25
REMARK                            x       y       z     vdW  Elec       q    Type
REMARK                         _______ _______ _______ _____ _____    ______ ____
ROOT
ATOM      1  C   UNL     1       2.873   6.251  18.149  0.00  0.00    +0.000 A 
ATOM      2  C   UNL     1       1.880   5.422  18.636  0.00  0.00    +0.000 A 
ATOM      3  C   UNL     1       2.559   4.292  19.140  0.00  0.00    +0.000 A 
ATOM      4  N   UNL     1       3.873   4.367  18.924  0.00  0.00    +0.000 NA
ATOM      5  N   UNL     1       4.073   5.589  18.371  0.00  0.00    +0.000 N 
ENDROOT
BRANCH   1   9
ATOM      6  N   UNL     1       2.010   9.720  17.584  0.00  0.00    +0.000 N 
ATOM      7  C   UNL     1       2.005   8.534  18.267  0.00  0.00    +0.000 C 
ATOM      8  O   UNL     1       1.592   8.301  19.392  0.00  0.00    +0.000 OA
ATOM      9  N   UNL     1       2.680   7.501  17.544  0.00  0.00    +0.000 N 
ATOM     10  H   UNL     1       2.051   9.728  16.573  0.00  0.00    +0.000 HD
ATOM     11  H   UNL     1       3.243   7.744  16.742  0.00  0.00    +0.000 HD
BRANCH   6  17
ATOM     12  C   UNL     1       0.494  11.277  18.724  0.00  0.00    +0.000 A 
ATOM     13  C   UNL     1       0.242  12.550  19.258  0.00  0.00    +0.000 A 
ATOM     14  C   UNL     1       1.241  13.521  19.289  0.00  0.00    +0.000 A 
ATOM     15  C   UNL     1       2.493  13.235  18.768  0.00  0.00    +0.000 A 
ATOM     16  C   UNL     1       2.754  11.985  18.213  0.00  0.00    +0.000 A 
ATOM     17  C   UNL     1       1.767  10.989  18.184  0.00  0.00    +0.000 A 
BRANCH  12  19
ATOM     18  C   UNL     1      -1.541  10.494  17.802  0.00  0.00    +0.000 C 
ATOM     19  O   UNL     1      -0.443  10.268  18.696  0.00  0.00    +0.000 OA
ENDBRANCH  12  19
ENDBRANCH   6  17
ENDBRANCH   1   9
BRANCH   5  20
ATOM     20  C   UNL     1       5.401   6.067  18.229  0.00  0.00    +0.000 A 
ATOM     21  C   UNL     1       6.391   5.585  19.093  0.00  0.00    +0.000 A 
ATOM     22  C   UNL     1       7.691   6.082  19.014  0.00  0.00    +0.000 A 
ATOM     23  C   UNL     1       7.994   7.084  18.095  0.00  0.00    +0.000 A 
ATOM     24  C   UNL     1       7.007   7.584  17.249  0.00  0.00    +0.000 A 
ATOM     25  C   UNL     1       5.708   7.073  17.303  0.00  0.00    +0.000 A 
ENDBRANCH   5  20
BRANCH   3  26
ATOM     26  C   UNL     1       1.939   3.102  19.918  0.00  0.00    +0.000 C 
ATOM     27  C   UNL     1       0.646   2.493  19.351  0.00  0.00    +0.000 C 
ATOM     28  C   UNL     1       1.933   1.777  19.137  0.00  0.00    +0.000 C 
BRANCH  26  29
ATOM     29  C   UNL     1       2.150   3.031  21.413  0.00  0.00    +0.000 C 
ATOM     30  F   UNL     1       3.212   2.264  21.758  0.00  0.00    +0.000 F 
ATOM     31  F   UNL     1       2.375   4.265  21.929  0.00  0.00    +0.000 F 
ATOM     32  F   UNL     1       1.064   2.522  22.041  0.00  0.00    +0.000 F 
ENDBRANCH  26  29
ENDBRANCH   3  26
TORSDOF 6
ENDMDL
MODEL 9
REMARK VINA RESULT:      -7.9      1.479      2.176
REMARK  Name = 
REMARK  7 active torsions:
REMARK  status: ('A' for Active; 'I' for Inactive)
REMARK    1  A    between atoms: C_1  and  O_2
REMARK    2  A    between atoms: O_2  and  C_3
REMARK    3  A    between atoms: C_8  and  N_9
REMARK    4  A    between atoms: N_12  and  C_13
REMARK    5  A    between atoms: C_15  and  C_16
REMARK    6  A    between atoms: C_16  and  C_17
REMARK    7  A    between atoms: N_24  and  C_25
REMARK                            x       y       z     vdW  Elec       q    Type
REMARK                         _______ _______ _______ _____ _____    ______ ____
ROOT
ATOM      1  C   UNL     1       3.280   6.815  17.752  0.00  0.00    +0.000 A 
ATOM      2  C   UNL     1       4.540   7.179  17.318  0.00  0.00    +0.000 A 
ATOM      3  C   UNL     1       5.404   6.182  17.823  0.00  0.00    +0.000 A 
ATOM      4  N   UNL     1       4.751   5.297  18.577  0.00  0.00    +0.000 NA
ATOM      5  N   UNL     1       3.445   5.649  18.487  0.00  0.00    +0.000 N 
ENDROOT
BRANCH   1   9
ATOM      6  N   UNL     1       0.501   9.120  18.011  0.00  0.00    +0.000 N 
ATOM      7  C   UNL     1       1.599   8.441  18.467  0.00  0.00    +0.000 C 
ATOM      8  O   UNL     1       2.217   8.598  19.508  0.00  0.00    +0.000 OA
ATOM      9  N   UNL     1       2.089   7.510  17.498  0.00  0.00    +0.000 N 
ATOM     10  H   UNL     1      -0.117   8.696  17.330  0.00  0.00    +0.000 HD
ATOM     11  H   UNL     1       1.749   7.558  16.548  0.00  0.00    +0.000 HD
BRANCH   6  17
ATOM     12  C   UNL     1      -1.335  10.685  18.454  0.00  0.00    +0.000 A 
ATOM     13  C   UNL     1      -1.782  11.920  18.950  0.00  0.00    +0.000 A 
ATOM     14  C   UNL     1      -0.900  12.797  19.578  0.00  0.00    +0.000 A 
ATOM     15  C   UNL     1       0.438  12.457  19.698  0.00  0.00    +0.000 A 
ATOM     16  C   UNL     1       0.903  11.246  19.191  0.00  0.00    +0.000 A 
ATOM     17  C   UNL     1       0.030  10.344  18.567  0.00  0.00    +0.000 A 
BRANCH  12  19
ATOM     18  C   UNL     1      -2.657  10.153  16.563  0.00  0.00    +0.000 C 
ATOM     19  O   UNL     1      -2.165   9.765  17.853  0.00  0.00    +0.000 OA
ENDBRANCH  12  19
ENDBRANCH   6  17
ENDBRANCH   1   9
BRANCH   5  20
ATOM     20  C   UNL     1       2.461   4.765  19.000  0.00  0.00    +0.000 A 
ATOM     21  C   UNL     1       1.864   3.842  18.134  0.00  0.00    +0.000 A 
ATOM     22  C   UNL     1       0.852   3.002  18.597  0.00  0.00    +0.000 A 
ATOM     23  C   UNL     1       0.414   3.107  19.915  0.00  0.00    +0.000 A 
ATOM     24  C   UNL     1       0.989   4.041  20.774  0.00  0.00    +0.000 A 
ATOM     25  C   UNL     1       2.022   4.868  20.326  0.00  0.00    +0.000 A 
ENDBRANCH   5  20
BRANCH   3  26
ATOM     26  C   UNL     1       6.919   6.026  17.529  0.00  0.00    +0.000 C 
ATOM     27  C   UNL     1       7.736   7.318  17.360  0.00  0.00    +0.000 C 
ATOM     28  C   UNL     1       7.832   6.568  18.642  0.00  0.00    +0.000 C 
BRANCH  26  29
ATOM     29  C   UNL     1       7.384   4.800  16.778  0.00  0.00    +0.000 C 
ATOM     30  F   UNL     1       8.339   4.107  17.444  0.00  0.00    +0.000 F 
ATOM     31  F   UNL     1       6.355   3.943  16.566  0.00  0.00    +0.000 F 
ATOM     32  F   UNL     1       7.895   5.127  15.567  0.00  0.00    +0.000 F 
ENDBRANCH  26  29
ENDBRANCH   3  26
TORSDOF 6
ENDMDL
