MODEL 1
REMARK VINA RESULT:      -8.3      0.000      0.000
REMARK  Name = 
REMARK  8 active torsions:
REMARK  status: ('A' for Active; 'I' for Inactive)
REMARK    1  A    between atoms: C_1  and  C_2
REMARK    2  A    between atoms: C_5  and  C_6
REMARK    3  A    between atoms: C_7  and  N_8
REMARK    4  A    between atoms: C_9  and  C_11
REMARK    5  A    between atoms: C_11  and  C_12
REMARK    6  A    between atoms: C_12  and  C_13
REMARK    7  A    between atoms: N_21  and  C_22
REMARK    8  A    between atoms: C_22  and  C_23
REMARK                            x       y       z     vdW  Elec       q    Type
REMARK                         _______ _______ _______ _____ _____    ______ ____
ROOT
ATOM      1  C   UNL     1       3.428   6.740  17.901  0.00  0.00    +0.000 A 
ATOM      2  N   UNL     1       4.600   7.200  17.500  0.00  0.00    +0.000 NA
ATOM      3  C   UNL     1       5.236   6.137  16.918  0.00  0.00    +0.000 A 
ATOM      4  C   UNL     1       6.491   6.031  16.313  0.00  0.00    +0.000 A 
ATOM      5  C   UNL     1       6.844   4.788  15.783  0.00  0.00    +0.000 A 
ATOM      6  C   UNL     1       5.946   3.728  15.880  0.00  0.00    +0.000 A 
ATOM      7  N   UNL     1       4.722   3.775  16.462  0.00  0.00    +0.000 NA
ATOM      8  C   UNL     1       4.439   5.000  16.955  0.00  0.00    +0.000 A 
ATOM      9  N   UNL     1       3.296   5.396  17.604  0.00  0.00    +0.000 N 
ENDROOT
BRANCH   1  10
ATOM     10  C   UNL     1       2.351   7.522  18.580  0.00  0.00    +0.000 C 
BRANCH  10  11
ATOM     11  C   UNL     1       1.919   8.759  17.798  0.00  0.00    +0.000 C 
BRANCH  11  13
ATOM     12  N   UNL     1       1.376   9.793  19.915  0.00  0.00    +0.000 N 
ATOM     13  C   UNL     1       0.933   9.563  18.623  0.00  0.00    +0.000 C 
ATOM     14  O   UNL     1      -0.126   9.976  18.158  0.00  0.00    +0.000 OA
ATOM     15  H   UNL     1       2.376   9.752  20.059  0.00  0.00    +0.000 HD
BRANCH  12  22
ATOM     16  C   UNL     1      -0.051  14.180  21.705  0.00  0.00    +0.000 C 
ATOM     17  C   UNL     1      -0.092  12.681  21.755  0.00  0.00    +0.000 A 
ATOM     18  C   UNL     1      -0.905  12.012  22.672  0.00  0.00    +0.000 A 
ATOM     19  C   UNL     1      -0.964  10.616  22.674  0.00  0.00    +0.000 A 
ATOM     20  C   UNL     1      -0.222   9.860  21.755  0.00  0.00    +0.000 A 
ATOM     21  C   UNL     1      -0.265   8.359  21.835  0.00  0.00    +0.000 C 
ATOM     22  C   UNL     1       0.617  10.530  20.850  0.00  0.00    +0.000 A 
ATOM     23  C   UNL     1       0.681  11.930  20.859  0.00  0.00    +0.000 A 
ENDBRANCH  12  22
ENDBRANCH  11  13
ENDBRANCH  10  11
ENDBRANCH   1  10
BRANCH   9  24
ATOM     24  C   UNL     1       2.130   4.552  17.812  0.00  0.00    +0.000 C 
BRANCH  24  25
ATOM     25  C   UNL     1       2.100   3.959  19.191  0.00  0.00    +0.000 A 
ATOM     26  C   UNL     1       1.283   4.288  20.257  0.00  0.00    +0.000 A 
ATOM     27  C   UNL     1       1.613   3.568  21.441  0.00  0.00    +0.000 A 
ATOM     28  C   UNL     1       2.664   2.702  21.242  0.00  0.00    +0.000 A 
ATOM     29  S   UNL     1       3.242   2.756  19.634  0.00  0.00    +0.000 S 
ENDBRANCH  24  25
ENDBRANCH   9  24
TORSDOF 6
ENDMDL
MODEL 2
REMARK VINA RESULT:      -8.2      1.018      1.040
REMARK  Name = 
REMARK  8 active torsions:
REMARK  status: ('A' for Active; 'I' for Inactive)
REMARK    1  A    between atoms: C_1  and  C_2
REMARK    2  A    between atoms: C_5  and  C_6
REMARK    3  A    between atoms: C_7  and  N_8
REMARK    4  A    between atoms: C_9  and  C_11
REMARK    5  A    between atoms: C_11  and  C_12
REMARK    6  A    between atoms: C_12  and  C_13
REMARK    7  A    between atoms: N_21  and  C_22
REMARK    8  A    between atoms: C_22  and  C_23
REMARK                            x       y       z     vdW  Elec       q    Type
REMARK                         _______ _______ _______ _____ _____    ______ ____
ROOT
ATOM      1  C   UNL     1       3.528   6.731  17.930  0.00  0.00    +0.000 A 
ATOM      2  N   UNL     1       4.713   7.174  17.551  0.00  0.00    +0.000 NA
ATOM      3  C   UNL     1       5.320   6.120  16.925  0.00  0.00    +0.000 A 
ATOM      4  C   UNL     1       6.574   6.004  16.318  0.00  0.00    +0.000 A 
ATOM      5  C   UNL     1       6.893   4.776  15.735  0.00  0.00    +0.000 A 
ATOM      6  C   UNL     1       5.965   3.738  15.784  0.00  0.00    +0.000 A 
ATOM      7  N   UNL     1       4.740   3.796  16.365  0.00  0.00    +0.000 NA
ATOM      8  C   UNL     1       4.491   5.005  16.910  0.00  0.00    +0.000 A 
ATOM      9  N   UNL     1       3.358   5.406  17.573  0.00  0.00    +0.000 N 
ENDROOT
BRANCH   1  10
ATOM     10  C   UNL     1       2.471   7.514  18.639  0.00  0.00    +0.000 C 
BRANCH  10  11
ATOM     11  C   UNL     1       1.832   8.592  17.770  0.00  0.00    +0.000 C 
BRANCH  11  13
ATOM     12  N   UNL     1       0.322   9.347  19.501  0.00  0.00    +0.000 N 
ATOM     13  C   UNL     1       1.344   9.729  18.647  0.00  0.00    +0.000 C 
ATOM     14  O   UNL     1       1.842  10.851  18.602  0.00  0.00    +0.000 OA
ATOM     15  H   UNL     1       0.267   8.362  19.721  0.00  0.00    +0.000 HD
BRANCH  12  22
ATOM     16  C   UNL     1      -2.756  13.133  20.322  0.00  0.00    +0.000 C 
ATOM     17  C   UNL     1      -1.778  12.120  20.837  0.00  0.00    +0.000 A 
ATOM     18  C   UNL     1      -1.491  12.022  22.200  0.00  0.00    +0.000 A 
ATOM     19  C   UNL     1      -0.610  11.043  22.667  0.00  0.00    +0.000 A 
ATOM     20  C   UNL     1      -0.007  10.134  21.785  0.00  0.00    +0.000 A 
ATOM     21  C   UNL     1       0.983   9.138  22.321  0.00  0.00    +0.000 C 
ATOM     22  C   UNL     1      -0.273  10.248  20.411  0.00  0.00    +0.000 A 
ATOM     23  C   UNL     1      -1.149  11.239  19.947  0.00  0.00    +0.000 A 
ENDBRANCH  12  22
ENDBRANCH  11  13
ENDBRANCH  10  11
ENDBRANCH   1  10
BRANCH   9  24
ATOM     24  C   UNL     1       2.167   4.588  17.742  0.00  0.00    +0.000 C 
BRANCH  24  25
ATOM     25  C   UNL     1       2.105   3.953  19.101  0.00  0.00    +0.000 A 
ATOM     26  C   UNL     1       1.150   4.114  20.088  0.00  0.00    +0.000 A 
ATOM     27  C   UNL     1       1.480   3.418  21.287  0.00  0.00    +0.000 A 
ATOM     28  C   UNL     1       2.670   2.735  21.175  0.00  0.00    +0.000 A 
ATOM     29  S   UNL     1       3.379   2.933  19.633  0.00  0.00    +0.000 S 
ENDBRANCH  24  25
ENDBRANCH   9  24
TORSDOF 6
ENDMDL
MODEL 3
REMARK VINA RESULT:      -8.2      1.759      3.861
REMARK  Name = 
REMARK  8 active torsions:
REMARK  status: ('A' for Active; 'I' for Inactive)
REMARK    1  A    between atoms: C_1  and  C_2
REMARK    2  A    between atoms: C_5  and  C_6
REMARK    3  A    between atoms: C_7  and  N_8
REMARK    4  A    between atoms: C_9  and  C_11
REMARK    5  A    between atoms: C_11  and  C_12
REMARK    6  A    between atoms: C_12  and  C_13
REMARK    7  A    between atoms: N_21  and  C_22
REMARK    8  A    between atoms: C_22  and  C_23
REMARK                            x       y       z     vdW  Elec       q    Type
REMARK                         _______ _______ _______ _____ _____    ______ ____
ROOT
ATOM      1  C   UNL     1       2.771   6.818  18.782  0.00  0.00    +0.000 A 
ATOM      2  N   UNL     1       2.025   6.557  19.840  0.00  0.00    +0.000 NA
ATOM      3  C   UNL     1       2.231   5.235  20.123  0.00  0.00    +0.000 A 
ATOM      4  C   UNL     1       1.716   4.415  21.131  0.00  0.00    +0.000 A 
ATOM      5  C   UNL     1       2.151   3.088  21.163  0.00  0.00    +0.000 A 
ATOM      6  C   UNL     1       3.063   2.648  20.206  0.00  0.00    +0.000 A 
ATOM      7  N   UNL     1       3.587   3.399  19.205  0.00  0.00    +0.000 NA
ATOM      8  C   UNL     1       3.129   4.668  19.226  0.00  0.00    +0.000 A 
ATOM      9  N   UNL     1       3.449   5.687  18.363  0.00  0.00    +0.000 N 
ENDROOT
BRANCH   1  10
ATOM     10  C   UNL     1       2.911   8.138  18.095  0.00  0.00    +0.000 C 
BRANCH  10  11
ATOM     11  C   UNL     1       1.578   8.735  17.656  0.00  0.00    +0.000 C 
BRANCH  11  13
ATOM     12  N   UNL     1       0.139   9.453  19.463  0.00  0.00    +0.000 N 
ATOM     13  C   UNL     1       1.171   9.833  18.620  0.00  0.00    +0.000 C 
ATOM     14  O   UNL     1       1.735  10.923  18.645  0.00  0.00    +0.000 OA
ATOM     15  H   UNL     1       0.028   8.459  19.614  0.00  0.00    +0.000 HD
BRANCH  12  22
ATOM     16  C   UNL     1      -2.733  13.315  20.608  0.00  0.00    +0.000 C 
ATOM     17  C   UNL     1      -1.790  12.227  21.031  0.00  0.00    +0.000 A 
ATOM     18  C   UNL     1      -1.473  12.030  22.376  0.00  0.00    +0.000 A 
ATOM     19  C   UNL     1      -0.627  10.984  22.755  0.00  0.00    +0.000 A 
ATOM     20  C   UNL     1      -0.091  10.106  21.800  0.00  0.00    +0.000 A 
ATOM     21  C   UNL     1       0.864   9.034  22.244  0.00  0.00    +0.000 C 
ATOM     22  C   UNL     1      -0.388  10.319  20.444  0.00  0.00    +0.000 A 
ATOM     23  C   UNL     1      -1.228  11.377  20.069  0.00  0.00    +0.000 A 
ENDBRANCH  12  22
ENDBRANCH  11  13
ENDBRANCH  10  11
ENDBRANCH   1  10
BRANCH   9  24
ATOM     24  C   UNL     1       4.424   5.584  17.289  0.00  0.00    +0.000 C 
BRANCH  24  25
ATOM     25  C   UNL     1       5.752   6.169  17.672  0.00  0.00    +0.000 A 
ATOM     26  C   UNL     1       6.412   7.251  17.121  0.00  0.00    +0.000 A 
ATOM     27  C   UNL     1       7.704   7.452  17.688  0.00  0.00    +0.000 A 
ATOM     28  C   UNL     1       7.987   6.524  18.665  0.00  0.00    +0.000 A 
ATOM     29  S   UNL     1       6.699   5.424  18.895  0.00  0.00    +0.000 S 
ENDBRANCH  24  25
ENDBRANCH   9  24
TORSDOF 6
ENDMDL
MODEL 4
REMARK VINA RESULT:      -8.2      1.562      1.725
REMARK  Name = 
REMARK  8 active torsions:
REMARK  status: ('A' for Active; 'I' for Inactive)
REMARK    1  A    between atoms: C_1  and  C_2
REMARK    2  A    between atoms: C_5  and  C_6
REMARK    3  A    between atoms: C_7  and  N_8
REMARK    4  A    between atoms: C_9  and  C_11
REMARK    5  A    between atoms: C_11  and  C_12
REMARK    6  A    between atoms: C_12  and  C_13
REMARK    7  A    between atoms: N_21  and  C_22
REMARK    8  A    between atoms: C_22  and  C_23
REMARK                            x       y       z     vdW  Elec       q    Type
REMARK                         _______ _______ _______ _____ _____    ______ ____
ROOT
ATOM      1  C   UNL     1       3.604   6.539  17.863  0.00  0.00    +0.000 A 
ATOM      2  N   UNL     1       4.776   7.005  17.469  0.00  0.00    +0.000 NA
ATOM      3  C   UNL     1       5.393   5.964  16.830  0.00  0.00    +0.000 A 
ATOM      4  C   UNL     1       6.640   5.874  16.205  0.00  0.00    +0.000 A 
ATOM      5  C   UNL     1       6.972   4.653  15.613  0.00  0.00    +0.000 A 
ATOM      6  C   UNL     1       6.063   3.599  15.670  0.00  0.00    +0.000 A 
ATOM      7  N   UNL     1       4.846   3.633  16.269  0.00  0.00    +0.000 NA
ATOM      8  C   UNL     1       4.584   4.835  16.822  0.00  0.00    +0.000 A 
ATOM      9  N   UNL     1       3.453   5.213  17.503  0.00  0.00    +0.000 N 
ENDROOT
BRANCH   1  10
ATOM     10  C   UNL     1       2.544   7.300  18.591  0.00  0.00    +0.000 C 
BRANCH  10  11
ATOM     11  C   UNL     1       2.089   8.557  17.855  0.00  0.00    +0.000 C 
BRANCH  11  13
ATOM     12  N   UNL     1       0.597  10.442  18.110  0.00  0.00    +0.000 N 
ATOM     13  C   UNL     1       1.220   9.396  18.771  0.00  0.00    +0.000 C 
ATOM     14  O   UNL     1       1.081   9.133  19.962  0.00  0.00    +0.000 OA
ATOM     15  H   UNL     1       0.474  10.332  17.112  0.00  0.00    +0.000 HD
BRANCH  12  22
ATOM     16  C   UNL     1       0.020  14.485  20.905  0.00  0.00    +0.000 C 
ATOM     17  C   UNL     1      -0.573  13.327  20.158  0.00  0.00    +0.000 A 
ATOM     18  C   UNL     1      -1.956  13.160  20.066  0.00  0.00    +0.000 A 
ATOM     19  C   UNL     1      -2.491  12.100  19.329  0.00  0.00    +0.000 A 
ATOM     20  C   UNL     1      -1.657  11.192  18.659  0.00  0.00    +0.000 A 
ATOM     21  C   UNL     1      -2.273  10.030  17.931  0.00  0.00    +0.000 C 
ATOM     22  C   UNL     1      -0.265  11.342  18.772  0.00  0.00    +0.000 A 
ATOM     23  C   UNL     1       0.266  12.401  19.522  0.00  0.00    +0.000 A 
ENDBRANCH  12  22
ENDBRANCH  11  13
ENDBRANCH  10  11
ENDBRANCH   1  10
BRANCH   9  24
ATOM     24  C   UNL     1       2.279   4.373  17.686  0.00  0.00    +0.000 C 
BRANCH  24  25
ATOM     25  C   UNL     1       2.199   3.806  19.074  0.00  0.00    +0.000 A 
ATOM     26  C   UNL     1       1.213   3.987  20.026  0.00  0.00    +0.000 A 
ATOM     27  C   UNL     1       1.531   3.364  21.267  0.00  0.00    +0.000 A 
ATOM     28  C   UNL     1       2.744   2.715  21.223  0.00  0.00    +0.000 A 
ATOM     29  S   UNL     1       3.489   2.856  19.691  0.00  0.00    +0.000 S 
ENDBRANCH  24  25
ENDBRANCH   9  24
TORSDOF 6
ENDMDL
MODEL 5
REMARK VINA RESULT:      -8.1      1.682      2.226
REMARK  Name = 
REMARK  8 active torsions:
REMARK  status: ('A' for Active; 'I' for Inactive)
REMARK    1  A    between atoms: C_1  and  C_2
REMARK    2  A    between atoms: C_5  and  C_6
REMARK    3  A    between atoms: C_7  and  N_8
REMARK    4  A    between atoms: C_9  and  C_11
REMARK    5  A    between atoms: C_11  and  C_12
REMARK    6  A    between atoms: C_12  and  C_13
REMARK    7  A    between atoms: N_21  and  C_22
REMARK    8  A    between atoms: C_22  and  C_23
REMARK                            x       y       z     vdW  Elec       q    Type
REMARK                         _______ _______ _______ _____ _____    ______ ____
ROOT
ATOM      1  C   UNL     1       3.531   6.652  17.978  0.00  0.00    +0.000 A 
ATOM      2  N   UNL     1       4.711   7.116  17.604  0.00  0.00    +0.000 NA
ATOM      3  C   UNL     1       5.324   6.083  16.949  0.00  0.00    +0.000 A 
ATOM      4  C   UNL     1       6.576   5.995  16.332  0.00  0.00    +0.000 A 
ATOM      5  C   UNL     1       6.902   4.784  15.717  0.00  0.00    +0.000 A 
ATOM      6  C   UNL     1       5.984   3.737  15.744  0.00  0.00    +0.000 A 
ATOM      7  N   UNL     1       4.762   3.769  16.334  0.00  0.00    +0.000 NA
ATOM      8  C   UNL     1       4.505   4.962  16.910  0.00  0.00    +0.000 A 
ATOM      9  N   UNL     1       3.372   5.335  17.590  0.00  0.00    +0.000 N 
ENDROOT
BRANCH   1  10
ATOM     10  C   UNL     1       2.471   7.407  18.713  0.00  0.00    +0.000 C 
BRANCH  10  11
ATOM     11  C   UNL     1       1.772   8.456  17.854  0.00  0.00    +0.000 C 
BRANCH  11  13
ATOM     12  N   UNL     1       0.726  10.630  18.028  0.00  0.00    +0.000 N 
ATOM     13  C   UNL     1       1.202   9.543  18.745  0.00  0.00    +0.000 C 
ATOM     14  O   UNL     1       1.155   9.431  19.966  0.00  0.00    +0.000 OA
ATOM     15  H   UNL     1       0.467  10.452  17.066  0.00  0.00    +0.000 HD
BRANCH  12  22
ATOM     16  C   UNL     1      -3.173  12.682  20.279  0.00  0.00    +0.000 C 
ATOM     17  C   UNL     1      -1.768  12.785  19.763  0.00  0.00    +0.000 A 
ATOM     18  C   UNL     1      -1.016  13.948  19.945  0.00  0.00    +0.000 A 
ATOM     19  C   UNL     1       0.306  14.011  19.496  0.00  0.00    +0.000 A 
ATOM     20  C   UNL     1       0.908  12.911  18.867  0.00  0.00    +0.000 A 
ATOM     21  C   UNL     1       2.310  13.043  18.343  0.00  0.00    +0.000 C 
ATOM     22  C   UNL     1       0.145  11.750  18.659  0.00  0.00    +0.000 A 
ATOM     23  C   UNL     1      -1.184  11.697  19.102  0.00  0.00    +0.000 A 
ENDBRANCH  12  22
ENDBRANCH  11  13
ENDBRANCH  10  11
ENDBRANCH   1  10
BRANCH   9  24
ATOM     24  C   UNL     1       2.190   4.502  17.744  0.00  0.00    +0.000 C 
BRANCH  24  25
ATOM     25  C   UNL     1       2.113   3.876  19.107  0.00  0.00    +0.000 A 
ATOM     26  C   UNL     1       1.100   3.964  20.043  0.00  0.00    +0.000 A 
ATOM     27  C   UNL     1       1.426   3.309  21.266  0.00  0.00    +0.000 A 
ATOM     28  C   UNL     1       2.674   2.729  21.222  0.00  0.00    +0.000 A 
ATOM     29  S   UNL     1       3.440   2.972  19.714  0.00  0.00    +0.000 S 
ENDBRANCH  24  25
ENDBRANCH   9  24
TORSDOF 6
ENDMDL
MODEL 6
REMARK VINA RESULT:      -8.1      3.080      8.268
REMARK  Name = 
REMARK  8 active torsions:
REMARK  status: ('A' for Active; 'I' for Inactive)
REMARK    1  A    between atoms: C_1  and  C_2
REMARK    2  A    between atoms: C_5  and  C_6
REMARK    3  A    between atoms: C_7  and  N_8
REMARK    4  A    between atoms: C_9  and  C_11
REMARK    5  A    between atoms: C_11  and  C_12
REMARK    6  A    between atoms: C_12  and  C_13
REMARK    7  A    between atoms: N_21  and  C_22
REMARK    8  A    between atoms: C_22  and  C_23
REMARK                            x       y       z     vdW  Elec       q    Type
REMARK                         _______ _______ _______ _____ _____    ______ ____
ROOT
ATOM      1  C   UNL     1       0.937   9.344  19.303  0.00  0.00    +0.000 A 
ATOM      2  N   UNL     1       1.137   8.706  20.443  0.00  0.00    +0.000 NA
ATOM      3  C   UNL     1       0.441   9.409  21.387  0.00  0.00    +0.000 A 
ATOM      4  C   UNL     1       0.280   9.201  22.760  0.00  0.00    +0.000 A 
ATOM      5  C   UNL     1      -0.530  10.103  23.454  0.00  0.00    +0.000 A 
ATOM      6  C   UNL     1      -1.131  11.151  22.761  0.00  0.00    +0.000 A 
ATOM      7  N   UNL     1      -1.002  11.401  21.434  0.00  0.00    +0.000 NA
ATOM      8  C   UNL     1      -0.209  10.498  20.820  0.00  0.00    +0.000 A 
ATOM      9  N   UNL     1       0.134  10.454  19.491  0.00  0.00    +0.000 N 
ENDROOT
BRANCH   1  10
ATOM     10  C   UNL     1       1.470   8.956  17.961  0.00  0.00    +0.000 C 
BRANCH  10  11
ATOM     11  C   UNL     1       2.869   8.351  18.020  0.00  0.00    +0.000 C 
BRANCH  11  13
ATOM     12  N   UNL     1       3.438   6.429  19.372  0.00  0.00    +0.000 N 
ATOM     13  C   UNL     1       2.766   6.853  18.238  0.00  0.00    +0.000 C 
ATOM     14  O   UNL     1       2.124   6.126  17.485  0.00  0.00    +0.000 OA
ATOM     15  H   UNL     1       3.587   7.124  20.091  0.00  0.00    +0.000 HD
BRANCH  12  22
ATOM     16  C   UNL     1       1.314   2.678  21.802  0.00  0.00    +0.000 C 
ATOM     17  C   UNL     1       2.439   3.213  20.967  0.00  0.00    +0.000 A 
ATOM     18  C   UNL     1       3.475   2.382  20.534  0.00  0.00    +0.000 A 
ATOM     19  C   UNL     1       4.492   2.888  19.720  0.00  0.00    +0.000 A 
ATOM     20  C   UNL     1       4.490   4.230  19.311  0.00  0.00    +0.000 A 
ATOM     21  C   UNL     1       5.636   4.748  18.489  0.00  0.00    +0.000 C 
ATOM     22  C   UNL     1       3.464   5.074  19.767  0.00  0.00    +0.000 A 
ATOM     23  C   UNL     1       2.452   4.563  20.593  0.00  0.00    +0.000 A 
ENDBRANCH  12  22
ENDBRANCH  11  13
ENDBRANCH  10  11
ENDBRANCH   1  10
BRANCH   9  24
ATOM     24  C   UNL     1      -0.375  11.362  18.475  0.00  0.00    +0.000 C 
BRANCH  24  25
ATOM     25  C   UNL     1      -1.689  10.901  17.912  0.00  0.00    +0.000 A 
ATOM     26  C   UNL     1      -1.925   9.953  16.934  0.00  0.00    +0.000 A 
ATOM     27  C   UNL     1      -3.305   9.853  16.592  0.00  0.00    +0.000 A 
ATOM     28  C   UNL     1      -4.082  10.718  17.328  0.00  0.00    +0.000 A 
ATOM     29  S   UNL     1      -3.151  11.640  18.425  0.00  0.00    +0.000 S 
ENDBRANCH  24  25
ENDBRANCH   9  24
TORSDOF 6
ENDMDL
MODEL 7
REMARK VINA RESULT:      -8.0      1.711      3.650
REMARK  Name = 
REMARK  8 active torsions:
REMARK  status: ('A' for Active; 'I' for Inactive)
REMARK    1  A    between atoms: C_1  and  C_2
REMARK    2  A    between atoms: C_5  and  C_6
REMARK    3  A    between atoms: C_7  and  N_8
REMARK    4  A    between atoms: C_9  and  C_11
REMARK    5  A    between atoms: C_11  and  C_12
REMARK    6  A    between atoms: C_12  and  C_13
REMARK    7  A    between atoms: N_21  and  C_22
REMARK    8  A    between atoms: C_22  and  C_23
REMARK                            x       y       z     vdW  Elec       q    Type
REMARK                         _______ _______ _______ _____ _____    ______ ____
ROOT
ATOM      1  C   UNL     1       2.581   6.611  18.961  0.00  0.00    +0.000 A 
ATOM      2  N   UNL     1       1.784   6.230  19.943  0.00  0.00    +0.000 NA
ATOM      3  C   UNL     1       1.885   4.867  19.994  0.00  0.00    +0.000 A 
ATOM      4  C   UNL     1       1.280   3.927  20.834  0.00  0.00    +0.000 A 
ATOM      5  C   UNL     1       1.617   2.585  20.642  0.00  0.00    +0.000 A 
ATOM      6  C   UNL     1       2.525   2.248  19.641  0.00  0.00    +0.000 A 
ATOM      7  N   UNL     1       3.134   3.118  18.796  0.00  0.00    +0.000 NA
ATOM      8  C   UNL     1       2.768   4.396  19.030  0.00  0.00    +0.000 A 
ATOM      9  N   UNL     1       3.189   5.521  18.365  0.00  0.00    +0.000 N 
ENDROOT
BRANCH   1  10
ATOM     10  C   UNL     1       2.839   8.015  18.518  0.00  0.00    +0.000 C 
BRANCH  10  11
ATOM     11  C   UNL     1       1.733   8.581  17.632  0.00  0.00    +0.000 C 
BRANCH  11  13
ATOM     12  N   UNL     1       1.307   9.684  19.742  0.00  0.00    +0.000 N 
ATOM     13  C   UNL     1       0.831   9.479  18.457  0.00  0.00    +0.000 C 
ATOM     14  O   UNL     1      -0.192   9.979  17.997  0.00  0.00    +0.000 OA
ATOM     15  H   UNL     1       2.301   9.557  19.876  0.00  0.00    +0.000 HD
BRANCH  12  22
ATOM     16  C   UNL     1       0.168  14.207  21.394  0.00  0.00    +0.000 C 
ATOM     17  C   UNL     1       0.059  12.715  21.512  0.00  0.00    +0.000 A 
ATOM     18  C   UNL     1      -0.742  12.126  22.492  0.00  0.00    +0.000 A 
ATOM     19  C   UNL     1      -0.866  10.736  22.559  0.00  0.00    +0.000 A 
ATOM     20  C   UNL     1      -0.202   9.906  21.643  0.00  0.00    +0.000 A 
ATOM     21  C   UNL     1      -0.312   8.414  21.791  0.00  0.00    +0.000 C 
ATOM     22  C   UNL     1       0.626  10.495  20.674  0.00  0.00    +0.000 A 
ATOM     23  C   UNL     1       0.755  11.890  20.619  0.00  0.00    +0.000 A 
ENDBRANCH  12  22
ENDBRANCH  11  13
ENDBRANCH  10  11
ENDBRANCH   1  10
BRANCH   9  24
ATOM     24  C   UNL     1       4.188   5.531  17.308  0.00  0.00    +0.000 C 
BRANCH  24  25
ATOM     25  C   UNL     1       5.570   5.777  17.838  0.00  0.00    +0.000 A 
ATOM     26  C   UNL     1       6.226   5.137  18.874  0.00  0.00    +0.000 A 
ATOM     27  C   UNL     1       7.500   5.711  19.153  0.00  0.00    +0.000 A 
ATOM     28  C   UNL     1       7.785   6.764  18.313  0.00  0.00    +0.000 A 
ATOM     29  S   UNL     1       6.524   7.051  17.196  0.00  0.00    +0.000 S 
ENDBRANCH  24  25
ENDBRANCH   9  24
TORSDOF 6
ENDMDL
MODEL 8
REMARK VINA RESULT:      -8.0      2.075      3.898
REMARK  Name = 
REMARK  8 active torsions:
REMARK  status: ('A' for Active; 'I' for Inactive)
REMARK    1  A    between atoms: C_1  and  C_2
REMARK    2  A    between atoms: C_5  and  C_6
REMARK    3  A    between atoms: C_7  and  N_8
REMARK    4  A    between atoms: C_9  and  C_11
REMARK    5  A    between atoms: C_11  and  C_12
REMARK    6  A    between atoms: C_12  and  C_13
REMARK    7  A    between atoms: N_21  and  C_22
REMARK    8  A    between atoms: C_22  and  C_23
REMARK                            x       y       z     vdW  Elec       q    Type
REMARK                         _______ _______ _______ _____ _____    ______ ____
ROOT
ATOM      1  C   UNL     1       2.773   6.334  18.475  0.00  0.00    +0.000 A 
ATOM      2  N   UNL     1       1.891   5.729  19.251  0.00  0.00    +0.000 NA
ATOM      3  C   UNL     1       2.027   4.392  18.993  0.00  0.00    +0.000 A 
ATOM      4  C   UNL     1       1.367   3.278  19.521  0.00  0.00    +0.000 A 
ATOM      5  C   UNL     1       1.762   2.021  19.059  0.00  0.00    +0.000 A 
ATOM      6  C   UNL     1       2.777   1.933  18.109  0.00  0.00    +0.000 A 
ATOM      7  N   UNL     1       3.443   2.980  17.560  0.00  0.00    +0.000 NA
ATOM      8  C   UNL     1       3.017   4.165  18.046  0.00  0.00    +0.000 A 
ATOM      9  N   UNL     1       3.470   5.417  17.710  0.00  0.00    +0.000 N 
ENDROOT
BRANCH   1  10
ATOM     10  C   UNL     1       3.033   7.804  18.402  0.00  0.00    +0.000 C 
BRANCH  10  11
ATOM     11  C   UNL     1       1.955   8.570  17.642  0.00  0.00    +0.000 C 
BRANCH  11  13
ATOM     12  N   UNL     1       0.492  10.462  18.005  0.00  0.00    +0.000 N 
ATOM     13  C   UNL     1       1.139   9.399  18.616  0.00  0.00    +0.000 C 
ATOM     14  O   UNL     1       1.057   9.116  19.808  0.00  0.00    +0.000 OA
ATOM     15  H   UNL     1       0.319  10.370  17.013  0.00  0.00    +0.000 HD
BRANCH  12  22
ATOM     16  C   UNL     1       0.091  14.432  20.930  0.00  0.00    +0.000 C 
ATOM     17  C   UNL     1      -0.549  13.305  20.175  0.00  0.00    +0.000 A 
ATOM     18  C   UNL     1      -1.938  13.161  20.134  0.00  0.00    +0.000 A 
ATOM     19  C   UNL     1      -2.518  12.131  19.389  0.00  0.00    +0.000 A 
ATOM     20  C   UNL     1      -1.726  11.230  18.663  0.00  0.00    +0.000 A 
ATOM     21  C   UNL     1      -2.388  10.098  17.928  0.00  0.00    +0.000 C 
ATOM     22  C   UNL     1      -0.329  11.356  18.725  0.00  0.00    +0.000 A 
ATOM     23  C   UNL     1       0.248  12.385  19.482  0.00  0.00    +0.000 A 
ENDBRANCH  12  22
ENDBRANCH  11  13
ENDBRANCH  10  11
ENDBRANCH   1  10
BRANCH   9  24
ATOM     24  C   UNL     1       4.571   5.680  16.797  0.00  0.00    +0.000 C 
BRANCH  24  25
ATOM     25  C   UNL     1       5.828   6.067  17.522  0.00  0.00    +0.000 A 
ATOM     26  C   UNL     1       6.681   7.125  17.269  0.00  0.00    +0.000 A 
ATOM     27  C   UNL     1       7.829   7.116  18.113  0.00  0.00    +0.000 A 
ATOM     28  C   UNL     1       7.812   6.058  18.994  0.00  0.00    +0.000 A 
ATOM     29  S   UNL     1       6.418   5.088  18.802  0.00  0.00    +0.000 S 
ENDBRANCH  24  25
ENDBRANCH   9  24
TORSDOF 6
ENDMDL
MODEL 9
REMARK VINA RESULT:      -8.0      1.856      2.134
REMARK  Name = 
REMARK  8 active torsions:
REMARK  status: ('A' for Active; 'I' for Inactive)
REMARK    1  A    between atoms: C_1  and  C_2
REMARK    2  A    between atoms: C_5  and  C_6
REMARK    3  A    between atoms: C_7  and  N_8
REMARK    4  A    between atoms: C_9  and  C_11
REMARK    5  A    between atoms: C_11  and  C_12
REMARK    6  A    between atoms: C_12  and  C_13
REMARK    7  A    between atoms: N_21  and  C_22
REMARK    8  A    between atoms: C_22  and  C_23
REMARK                            x       y       z     vdW  Elec       q    Type
REMARK                         _______ _______ _______ _____ _____    ______ ____
ROOT
ATOM      1  C   UNL     1       3.082   6.539  17.895  0.00  0.00    +0.000 A 
ATOM      2  N   UNL     1       4.188   7.192  17.585  0.00  0.00    +0.000 NA
ATOM      3  C   UNL     1       5.042   6.252  17.076  0.00  0.00    +0.000 A 
ATOM      4  C   UNL     1       6.344   6.360  16.579  0.00  0.00    +0.000 A 
ATOM      5  C   UNL     1       6.946   5.194  16.100  0.00  0.00    +0.000 A 
ATOM      6  C   UNL     1       6.236   3.997  16.138  0.00  0.00    +0.000 A 
ATOM      7  N   UNL     1       4.976   3.836  16.616  0.00  0.00    +0.000 NA
ATOM      8  C   UNL     1       4.450   4.995  17.064  0.00  0.00    +0.000 A 
ATOM      9  N   UNL     1       3.205   5.192  17.609  0.00  0.00    +0.000 N 
ENDROOT
BRANCH   1  10
ATOM     10  C   UNL     1       1.834   7.128  18.469  0.00  0.00    +0.000 C 
BRANCH  10  11
ATOM     11  C   UNL     1       2.000   7.614  19.906  0.00  0.00    +0.000 C 
BRANCH  11  13
ATOM     12  N   UNL     1       1.304   9.664  18.827  0.00  0.00    +0.000 N 
ATOM     13  C   UNL     1       1.414   9.006  20.042  0.00  0.00    +0.000 C 
ATOM     14  O   UNL     1       1.058   9.463  21.125  0.00  0.00    +0.000 OA
ATOM     15  H   UNL     1       1.258   9.078  18.004  0.00  0.00    +0.000 HD
BRANCH  12  22
ATOM     16  C   UNL     1       2.050  14.555  18.824  0.00  0.00    +0.000 C 
ATOM     17  C   UNL     1       1.118  13.383  18.729  0.00  0.00    +0.000 A 
ATOM     18  C   UNL     1      -0.246  13.563  18.490  0.00  0.00    +0.000 A 
ATOM     19  C   UNL     1      -1.092  12.458  18.361  0.00  0.00    +0.000 A 
ATOM     20  C   UNL     1      -0.592  11.151  18.457  0.00  0.00    +0.000 A 
ATOM     21  C   UNL     1      -1.546   9.993  18.376  0.00  0.00    +0.000 C 
ATOM     22  C   UNL     1       0.775  10.968  18.725  0.00  0.00    +0.000 A 
ATOM     23  C   UNL     1       1.616  12.081  18.864  0.00  0.00    +0.000 A 
ENDBRANCH  12  22
ENDBRANCH  11  13
ENDBRANCH  10  11
ENDBRANCH   1  10
BRANCH   9  24
ATOM     24  C   UNL     1       2.185   4.163  17.733  0.00  0.00    +0.000 C 
BRANCH  24  25
ATOM     25  C   UNL     1       2.077   3.640  19.136  0.00  0.00    +0.000 A 
ATOM     26  C   UNL     1       1.027   3.768  20.028  0.00  0.00    +0.000 A 
ATOM     27  C   UNL     1       1.327   3.218  21.308  0.00  0.00    +0.000 A 
ATOM     28  C   UNL     1       2.592   2.676  21.352  0.00  0.00    +0.000 A 
ATOM     29  S   UNL     1       3.406   2.828  19.857  0.00  0.00    +0.000 S 
ENDBRANCH  24  25
ENDBRANCH   9  24
TORSDOF 6
ENDMDL
