MODEL 1
REMARK VINA RESULT:      -7.8      0.000      0.000
REMARK  Name = 
REMARK  6 active torsions:
REMARK  status: ('A' for Active; 'I' for Inactive)
REMARK    1  A    between atoms: C_1  and  C_2
REMARK    2  A    between atoms: C_2  and  C_3
REMARK    3  A    between atoms: C_3  and  C_4
REMARK    4  A    between atoms: C_4  and  S_5
REMARK    5  A    between atoms: S_5  and  N_8
REMARK    6  A    between atoms: C_9  and  C_11
REMARK                            x       y       z     vdW  Elec       q    Type
REMARK                         _______ _______ _______ _____ _____    ______ ____
ROOT
ATOM      1  N   UNL     1       5.614   4.593  16.842  0.00  0.00    +0.000 N 
ATOM      2  C   UNL     1       5.353   4.273  18.196  0.00  0.00    +0.000 C 
ATOM      3  O   UNL     1       6.196   4.312  19.077  0.00  0.00    +0.000 OA
ATOM      4  H   UNL     1       4.876   5.050  16.317  0.00  0.00    +0.000 HD
ENDROOT
BRANCH   2   5
ATOM      5  C   UNL     1       3.964   3.855  18.546  0.00  0.00    +0.000 A 
ATOM      6  C   UNL     1       3.628   3.114  19.685  0.00  0.00    +0.000 A 
ATOM      7  C   UNL     1       2.286   2.811  19.939  0.00  0.00    +0.000 A 
ATOM      8  F   UNL     1       1.982   2.101  21.034  0.00  0.00    +0.000 F 
ATOM      9  C   UNL     1       1.276   3.239  19.086  0.00  0.00    +0.000 A 
ATOM     10  F   UNL     1      -0.005   2.952  19.357  0.00  0.00    +0.000 F 
ATOM     11  C   UNL     1       1.605   3.973  17.959  0.00  0.00    +0.000 A 
ATOM     12  F   UNL     1       0.647   4.402  17.128  0.00  0.00    +0.000 F 
ATOM     13  C   UNL     1       2.935   4.280  17.681  0.00  0.00    +0.000 A 
ENDBRANCH   2   5
BRANCH   1  14
ATOM     14  S   UNL     1       7.136   5.147  16.378  0.00  0.00    +0.000 S 
ATOM     15  O   UNL     1       8.152   4.224  16.824  0.00  0.00    +0.000 OA
ATOM     16  O   UNL     1       7.161   6.557  16.706  0.00  0.00    +0.000 OA
BRANCH  14  17
ATOM     17  C   UNL     1       7.061   5.011  14.589  0.00  0.00    +0.000 C 
BRANCH  17  18
ATOM     18  C   UNL     1       6.051   3.929  14.201  0.00  0.00    +0.000 C 
BRANCH  18  20
ATOM     19  C   UNL     1       4.808   3.376  12.094  0.00  0.00    +0.000 C 
ATOM     20  C   UNL     1       6.181   3.488  12.746  0.00  0.00    +0.000 C 
ENDBRANCH  18  20
ENDBRANCH  17  18
ENDBRANCH  14  17
ENDBRANCH   1  14
TORSDOF 5
ENDMDL
MODEL 2
REMARK VINA RESULT:      -7.5      1.453      1.810
REMARK  Name = 
REMARK  6 active torsions:
REMARK  status: ('A' for Active; 'I' for Inactive)
REMARK    1  A    between atoms: C_1  and  C_2
REMARK    2  A    between atoms: C_2  and  C_3
REMARK    3  A    between atoms: C_3  and  C_4
REMARK    4  A    between atoms: C_4  and  S_5
REMARK    5  A    between atoms: S_5  and  N_8
REMARK    6  A    between atoms: C_9  and  C_11
REMARK                            x       y       z     vdW  Elec       q    Type
REMARK                         _______ _______ _______ _____ _____    ______ ____
ROOT
ATOM      1  N   UNL     1       5.790   4.823  17.391  0.00  0.00    +0.000 N 
ATOM      2  C   UNL     1       5.554   4.929  18.783  0.00  0.00    +0.000 C 
ATOM      3  O   UNL     1       6.420   5.194  19.599  0.00  0.00    +0.000 OA
ATOM      4  H   UNL     1       5.054   5.132  16.765  0.00  0.00    +0.000 HD
ENDROOT
BRANCH   2   5
ATOM      5  C   UNL     1       4.161   4.689  19.261  0.00  0.00    +0.000 A 
ATOM      6  C   UNL     1       3.349   5.670  19.843  0.00  0.00    +0.000 A 
ATOM      7  C   UNL     1       2.041   5.347  20.219  0.00  0.00    +0.000 A 
ATOM      8  F   UNL     1       1.277   6.298  20.775  0.00  0.00    +0.000 F 
ATOM      9  C   UNL     1       1.526   4.073  20.019  0.00  0.00    +0.000 A 
ATOM     10  F   UNL     1       0.265   3.789  20.371  0.00  0.00    +0.000 F 
ATOM     11  C   UNL     1       2.326   3.101  19.443  0.00  0.00    +0.000 A 
ATOM     12  F   UNL     1       1.849   1.867  19.233  0.00  0.00    +0.000 F 
ATOM     13  C   UNL     1       3.635   3.396  19.067  0.00  0.00    +0.000 A 
ENDBRANCH   2   5
BRANCH   1  14
ATOM     14  S   UNL     1       7.317   5.153  16.760  0.00  0.00    +0.000 S 
ATOM     15  O   UNL     1       8.279   4.213  17.284  0.00  0.00    +0.000 OA
ATOM     16  O   UNL     1       7.487   6.588  16.865  0.00  0.00    +0.000 OA
BRANCH  14  17
ATOM     17  C   UNL     1       7.103   4.762  15.021  0.00  0.00    +0.000 C 
BRANCH  17  18
ATOM     18  C   UNL     1       5.945   3.775  14.858  0.00  0.00    +0.000 C 
BRANCH  18  20
ATOM     19  C   UNL     1       6.217   3.469  12.384  0.00  0.00    +0.000 C 
ATOM     20  C   UNL     1       5.262   3.878  13.498  0.00  0.00    +0.000 C 
ENDBRANCH  18  20
ENDBRANCH  17  18
ENDBRANCH  14  17
ENDBRANCH   1  14
TORSDOF 5
ENDMDL
MODEL 3
REMARK VINA RESULT:      -7.5      1.398      1.583
REMARK  Name = 
REMARK  6 active torsions:
REMARK  status: ('A' for Active; 'I' for Inactive)
REMARK    1  A    between atoms: C_1  and  C_2
REMARK    2  A    between atoms: C_2  and  C_3
REMARK    3  A    between atoms: C_3  and  C_4
REMARK    4  A    between atoms: C_4  and  S_5
REMARK    5  A    between atoms: S_5  and  N_8
REMARK    6  A    between atoms: C_9  and  C_11
REMARK                            x       y       z     vdW  Elec       q    Type
REMARK                         _______ _______ _______ _____ _____    ______ ____
ROOT
ATOM      1  N   UNL     1       5.709   4.688  17.075  0.00  0.00    +0.000 N 
ATOM      2  C   UNL     1       5.455   4.711  18.468  0.00  0.00    +0.000 C 
ATOM      3  O   UNL     1       6.310   4.926  19.310  0.00  0.00    +0.000 OA
ATOM      4  H   UNL     1       4.981   5.035  16.459  0.00  0.00    +0.000 HD
ENDROOT
BRANCH   2   5
ATOM      5  C   UNL     1       4.056   4.443  18.913  0.00  0.00    +0.000 A 
ATOM      6  C   UNL     1       3.359   3.258  18.647  0.00  0.00    +0.000 A 
ATOM      7  C   UNL     1       2.063   3.094  19.148  0.00  0.00    +0.000 A 
ATOM      8  F   UNL     1       1.411   1.954  18.884  0.00  0.00    +0.000 F 
ATOM      9  C   UNL     1       1.455   4.081  19.913  0.00  0.00    +0.000 A 
ATOM     10  F   UNL     1       0.219   3.897  20.398  0.00  0.00    +0.000 F 
ATOM     11  C   UNL     1       2.142   5.254  20.178  0.00  0.00    +0.000 A 
ATOM     12  F   UNL     1       1.579   6.215  20.920  0.00  0.00    +0.000 F 
ATOM     13  C   UNL     1       3.431   5.443  19.684  0.00  0.00    +0.000 A 
ENDBRANCH   2   5
BRANCH   1  14
ATOM     14  S   UNL     1       7.244   5.056  16.485  0.00  0.00    +0.000 S 
ATOM     15  O   UNL     1       8.215   4.146  17.044  0.00  0.00    +0.000 OA
ATOM     16  O   UNL     1       7.371   6.495  16.583  0.00  0.00    +0.000 OA
BRANCH  14  17
ATOM     17  C   UNL     1       7.090   4.646  14.744  0.00  0.00    +0.000 C 
BRANCH  17  18
ATOM     18  C   UNL     1       5.614   4.452  14.393  0.00  0.00    +0.000 C 
BRANCH  18  20
ATOM     19  C   UNL     1       6.626   3.666  12.238  0.00  0.00    +0.000 C 
ATOM     20  C   UNL     1       5.405   3.597  13.147  0.00  0.00    +0.000 C 
ENDBRANCH  18  20
ENDBRANCH  17  18
ENDBRANCH  14  17
ENDBRANCH   1  14
TORSDOF 5
ENDMDL
MODEL 4
REMARK VINA RESULT:      -7.5      0.431      1.974
REMARK  Name = 
REMARK  6 active torsions:
REMARK  status: ('A' for Active; 'I' for Inactive)
REMARK    1  A    between atoms: C_1  and  C_2
REMARK    2  A    between atoms: C_2  and  C_3
REMARK    3  A    between atoms: C_3  and  C_4
REMARK    4  A    between atoms: C_4  and  S_5
REMARK    5  A    between atoms: S_5  and  N_8
REMARK    6  A    between atoms: C_9  and  C_11
REMARK                            x       y       z     vdW  Elec       q    Type
REMARK                         _______ _______ _______ _____ _____    ______ ____
ROOT
ATOM      1  N   UNL     1       5.702   4.650  16.908  0.00  0.00    +0.000 N 
ATOM      2  C   UNL     1       5.389   4.434  18.272  0.00  0.00    +0.000 C 
ATOM      3  O   UNL     1       6.207   4.494  19.174  0.00  0.00    +0.000 OA
ATOM      4  H   UNL     1       5.001   5.103  16.332  0.00  0.00    +0.000 HD
ENDROOT
BRANCH   2   5
ATOM      5  C   UNL     1       3.972   4.103  18.605  0.00  0.00    +0.000 A 
ATOM      6  C   UNL     1       2.881   4.390  17.775  0.00  0.00    +0.000 A 
ATOM      7  C   UNL     1       1.597   3.999  18.166  0.00  0.00    +0.000 A 
ATOM      8  F   UNL     1       0.564   4.280  17.360  0.00  0.00    +0.000 F 
ATOM      9  C   UNL     1       1.380   3.322  19.360  0.00  0.00    +0.000 A 
ATOM     10  F   UNL     1       0.144   2.941  19.708  0.00  0.00    +0.000 F 
ATOM     11  C   UNL     1       2.457   3.036  20.182  0.00  0.00    +0.000 A 
ATOM     12  F   UNL     1       2.273   2.378  21.334  0.00  0.00    +0.000 F 
ATOM     13  C   UNL     1       3.745   3.423  19.818  0.00  0.00    +0.000 A 
ENDBRANCH   2   5
BRANCH   1  14
ATOM     14  S   UNL     1       7.260   5.103  16.456  0.00  0.00    +0.000 S 
ATOM     15  O   UNL     1       8.220   4.176  17.007  0.00  0.00    +0.000 OA
ATOM     16  O   UNL     1       7.337   6.532  16.676  0.00  0.00    +0.000 OA
BRANCH  14  17
ATOM     17  C   UNL     1       7.235   4.831  14.681  0.00  0.00    +0.000 C 
BRANCH  17  18
ATOM     18  C   UNL     1       5.856   4.319  14.262  0.00  0.00    +0.000 C 
BRANCH  18  20
ATOM     19  C   UNL     1       6.980   4.003  12.043  0.00  0.00    +0.000 C 
ATOM     20  C   UNL     1       5.893   3.493  12.981  0.00  0.00    +0.000 C 
ENDBRANCH  18  20
ENDBRANCH  17  18
ENDBRANCH  14  17
ENDBRANCH   1  14
TORSDOF 5
ENDMDL
MODEL 5
REMARK VINA RESULT:      -7.3      1.393      2.101
REMARK  Name = 
REMARK  6 active torsions:
REMARK  status: ('A' for Active; 'I' for Inactive)
REMARK    1  A    between atoms: C_1  and  C_2
REMARK    2  A    between atoms: C_2  and  C_3
REMARK    3  A    between atoms: C_3  and  C_4
REMARK    4  A    between atoms: C_4  and  S_5
REMARK    5  A    between atoms: S_5  and  N_8
REMARK    6  A    between atoms: C_9  and  C_11
REMARK                            x       y       z     vdW  Elec       q    Type
REMARK                         _______ _______ _______ _____ _____    ______ ____
ROOT
ATOM      1  N   UNL     1       5.502   4.758  17.390  0.00  0.00    +0.000 N 
ATOM      2  C   UNL     1       4.291   5.456  17.615  0.00  0.00    +0.000 C 
ATOM      3  O   UNL     1       4.058   6.569  17.173  0.00  0.00    +0.000 OA
ATOM      4  H   UNL     1       5.451   3.749  17.292  0.00  0.00    +0.000 HD
ENDROOT
BRANCH   2   5
ATOM      5  C   UNL     1       3.256   4.781  18.452  0.00  0.00    +0.000 A 
ATOM      6  C   UNL     1       2.279   3.915  17.947  0.00  0.00    +0.000 A 
ATOM      7  C   UNL     1       1.381   3.302  18.827  0.00  0.00    +0.000 A 
ATOM      8  F   UNL     1       0.453   2.475  18.328  0.00  0.00    +0.000 F 
ATOM      9  C   UNL     1       1.445   3.528  20.197  0.00  0.00    +0.000 A 
ATOM     10  F   UNL     1       0.586   2.918  21.025  0.00  0.00    +0.000 F 
ATOM     11  C   UNL     1       2.411   4.384  20.699  0.00  0.00    +0.000 A 
ATOM     12  F   UNL     1       2.496   4.611  22.015  0.00  0.00    +0.000 F 
ATOM     13  C   UNL     1       3.311   5.012  19.841  0.00  0.00    +0.000 A 
ENDBRANCH   2   5
BRANCH   1  14
ATOM     14  S   UNL     1       6.690   5.416  16.394  0.00  0.00    +0.000 S 
ATOM     15  O   UNL     1       7.828   4.529  16.334  0.00  0.00    +0.000 OA
ATOM     16  O   UNL     1       6.802   6.808  16.777  0.00  0.00    +0.000 OA
BRANCH  14  17
ATOM     17  C   UNL     1       5.905   5.363  14.780  0.00  0.00    +0.000 C 
BRANCH  17  18
ATOM     18  C   UNL     1       5.846   3.916  14.287  0.00  0.00    +0.000 C 
BRANCH  18  20
ATOM     19  C   UNL     1       5.311   3.110  11.974  0.00  0.00    +0.000 C 
ATOM     20  C   UNL     1       6.370   3.750  12.864  0.00  0.00    +0.000 C 
ENDBRANCH  18  20
ENDBRANCH  17  18
ENDBRANCH  14  17
ENDBRANCH   1  14
TORSDOF 5
ENDMDL
MODEL 6
REMARK VINA RESULT:      -7.3      1.679      2.500
REMARK  Name = 
REMARK  6 active torsions:
REMARK  status: ('A' for Active; 'I' for Inactive)
REMARK    1  A    between atoms: C_1  and  C_2
REMARK    2  A    between atoms: C_2  and  C_3
REMARK    3  A    between atoms: C_3  and  C_4
REMARK    4  A    between atoms: C_4  and  S_5
REMARK    5  A    between atoms: S_5  and  N_8
REMARK    6  A    between atoms: C_9  and  C_11
REMARK                            x       y       z     vdW  Elec       q    Type
REMARK                         _______ _______ _______ _____ _____    ______ ____
ROOT
ATOM      1  N   UNL     1       4.921   5.312  17.206  0.00  0.00    +0.000 N 
ATOM      2  C   UNL     1       3.780   5.910  17.794  0.00  0.00    +0.000 C 
ATOM      3  O   UNL     1       3.496   7.090  17.675  0.00  0.00    +0.000 OA
ATOM      4  H   UNL     1       4.835   4.354  16.883  0.00  0.00    +0.000 HD
ENDROOT
BRANCH   2   5
ATOM      5  C   UNL     1       2.892   5.033  18.612  0.00  0.00    +0.000 A 
ATOM      6  C   UNL     1       1.952   4.145  18.075  0.00  0.00    +0.000 A 
ATOM      7  C   UNL     1       1.198   3.338  18.933  0.00  0.00    +0.000 A 
ATOM      8  F   UNL     1       0.304   2.493  18.402  0.00  0.00    +0.000 F 
ATOM      9  C   UNL     1       1.369   3.392  20.311  0.00  0.00    +0.000 A 
ATOM     10  F   UNL     1       0.649   2.598  21.114  0.00  0.00    +0.000 F 
ATOM     11  C   UNL     1       2.298   4.269  20.845  0.00  0.00    +0.000 A 
ATOM     12  F   UNL     1       2.486   4.333  22.169  0.00  0.00    +0.000 F 
ATOM     13  C   UNL     1       3.055   5.088  20.010  0.00  0.00    +0.000 A 
ENDBRANCH   2   5
BRANCH   1  14
ATOM     14  S   UNL     1       5.933   6.214  16.206  0.00  0.00    +0.000 S 
ATOM     15  O   UNL     1       6.726   7.122  17.000  0.00  0.00    +0.000 OA
ATOM     16  O   UNL     1       5.107   6.655  15.102  0.00  0.00    +0.000 OA
BRANCH  14  17
ATOM     17  C   UNL     1       7.055   4.962  15.573  0.00  0.00    +0.000 C 
BRANCH  17  18
ATOM     18  C   UNL     1       6.873   4.831  14.060  0.00  0.00    +0.000 C 
BRANCH  18  20
ATOM     19  C   UNL     1       6.112   3.368  12.171  0.00  0.00    +0.000 C 
ATOM     20  C   UNL     1       6.006   3.639  13.666  0.00  0.00    +0.000 C 
ENDBRANCH  18  20
ENDBRANCH  17  18
ENDBRANCH  14  17
ENDBRANCH   1  14
TORSDOF 5
ENDMDL
MODEL 7
REMARK VINA RESULT:      -7.1      2.460      3.563
REMARK  Name = 
REMARK  6 active torsions:
REMARK  status: ('A' for Active; 'I' for Inactive)
REMARK    1  A    between atoms: C_1  and  C_2
REMARK    2  A    between atoms: C_2  and  C_3
REMARK    3  A    between atoms: C_3  and  C_4
REMARK    4  A    between atoms: C_4  and  S_5
REMARK    5  A    between atoms: S_5  and  N_8
REMARK    6  A    between atoms: C_9  and  C_11
REMARK                            x       y       z     vdW  Elec       q    Type
REMARK                         _______ _______ _______ _____ _____    ______ ____
ROOT
ATOM      1  N   UNL     1       4.709   4.517  16.611  0.00  0.00    +0.000 N 
ATOM      2  C   UNL     1       3.884   5.324  17.432  0.00  0.00    +0.000 C 
ATOM      3  O   UNL     1       3.894   6.544  17.413  0.00  0.00    +0.000 OA
ATOM      4  H   UNL     1       4.324   3.640  16.277  0.00  0.00    +0.000 HD
ENDROOT
BRANCH   2   5
ATOM      5  C   UNL     1       2.965   4.624  18.377  0.00  0.00    +0.000 A 
ATOM      6  C   UNL     1       1.968   3.724  17.983  0.00  0.00    +0.000 A 
ATOM      7  C   UNL     1       1.187   3.092  18.956  0.00  0.00    +0.000 A 
ATOM      8  F   UNL     1       0.238   2.233  18.562  0.00  0.00    +0.000 F 
ATOM      9  C   UNL     1       1.387   3.332  20.310  0.00  0.00    +0.000 A 
ATOM     10  F   UNL     1       0.640   2.702  21.227  0.00  0.00    +0.000 F 
ATOM     11  C   UNL     1       2.373   4.221  20.703  0.00  0.00    +0.000 A 
ATOM     12  F   UNL     1       2.589   4.462  22.002  0.00  0.00    +0.000 F 
ATOM     13  C   UNL     1       3.158   4.869  19.751  0.00  0.00    +0.000 A 
ENDBRANCH   2   5
BRANCH   1  14
ATOM     14  S   UNL     1       5.719   5.226  15.464  0.00  0.00    +0.000 S 
ATOM     15  O   UNL     1       5.183   6.505  15.061  0.00  0.00    +0.000 OA
ATOM     16  O   UNL     1       6.040   4.178  14.517  0.00  0.00    +0.000 OA
BRANCH  14  17
ATOM     17  C   UNL     1       7.202   5.562  16.419  0.00  0.00    +0.000 C 
BRANCH  17  18
ATOM     18  C   UNL     1       7.191   4.717  17.694  0.00  0.00    +0.000 C 
BRANCH  18  20
ATOM     19  C   UNL     1       8.024   6.920  18.553  0.00  0.00    +0.000 C 
ATOM     20  C   UNL     1       7.645   5.492  18.926  0.00  0.00    +0.000 C 
ENDBRANCH  18  20
ENDBRANCH  17  18
ENDBRANCH  14  17
ENDBRANCH   1  14
TORSDOF 5
ENDMDL
MODEL 8
REMARK VINA RESULT:      -7.1      2.820      3.897
REMARK  Name = 
REMARK  6 active torsions:
REMARK  status: ('A' for Active; 'I' for Inactive)
REMARK    1  A    between atoms: C_1  and  C_2
REMARK    2  A    between atoms: C_2  and  C_3
REMARK    3  A    between atoms: C_3  and  C_4
REMARK    4  A    between atoms: C_4  and  S_5
REMARK    5  A    between atoms: S_5  and  N_8
REMARK    6  A    between atoms: C_9  and  C_11
REMARK                            x       y       z     vdW  Elec       q    Type
REMARK                         _______ _______ _______ _____ _____    ______ ____
ROOT
ATOM      1  N   UNL     1       5.786   5.276  18.092  0.00  0.00    +0.000 N 
ATOM      2  C   UNL     1       4.896   4.330  17.528  0.00  0.00    +0.000 C 
ATOM      3  O   UNL     1       5.139   3.688  16.520  0.00  0.00    +0.000 OA
ATOM      4  H   UNL     1       5.805   5.357  19.104  0.00  0.00    +0.000 HD
ENDROOT
BRANCH   2   5
ATOM      5  C   UNL     1       3.586   4.129  18.213  0.00  0.00    +0.000 A 
ATOM      6  C   UNL     1       2.730   3.048  17.972  0.00  0.00    +0.000 A 
ATOM      7  C   UNL     1       1.542   2.934  18.701  0.00  0.00    +0.000 A 
ATOM      8  F   UNL     1       0.734   1.893  18.458  0.00  0.00    +0.000 F 
ATOM      9  C   UNL     1       1.196   3.870  19.669  0.00  0.00    +0.000 A 
ATOM     10  F   UNL     1       0.061   3.733  20.368  0.00  0.00    +0.000 F 
ATOM     11  C   UNL     1       2.041   4.940  19.910  0.00  0.00    +0.000 A 
ATOM     12  F   UNL     1       1.733   5.849  20.842  0.00  0.00    +0.000 F 
ATOM     13  C   UNL     1       3.226   5.078  19.190  0.00  0.00    +0.000 A 
ENDBRANCH   2   5
BRANCH   1  14
ATOM     14  S   UNL     1       7.316   5.507  17.425  0.00  0.00    +0.000 S 
ATOM     15  O   UNL     1       7.194   5.903  16.043  0.00  0.00    +0.000 OA
ATOM     16  O   UNL     1       8.108   4.370  17.848  0.00  0.00    +0.000 OA
BRANCH  14  17
ATOM     17  C   UNL     1       7.910   6.942  18.326  0.00  0.00    +0.000 C 
BRANCH  17  18
ATOM     18  C   UNL     1       8.056   8.124  17.366  0.00  0.00    +0.000 C 
BRANCH  18  20
ATOM     19  C   UNL     1       9.153   9.740  18.938  0.00  0.00    +0.000 C 
ATOM     20  C   UNL     1       7.934   9.475  18.062  0.00  0.00    +0.000 C 
ENDBRANCH  18  20
ENDBRANCH  17  18
ENDBRANCH  14  17
ENDBRANCH   1  14
TORSDOF 5
ENDMDL
MODEL 9
REMARK VINA RESULT:      -7.0      1.626      2.546
REMARK  Name = 
REMARK  6 active torsions:
REMARK  status: ('A' for Active; 'I' for Inactive)
REMARK    1  A    between atoms: C_1  and  C_2
REMARK    2  A    between atoms: C_2  and  C_3
REMARK    3  A    between atoms: C_3  and  C_4
REMARK    4  A    between atoms: C_4  and  S_5
REMARK    5  A    between atoms: S_5  and  N_8
REMARK    6  A    between atoms: C_9  and  C_11
REMARK                            x       y       z     vdW  Elec       q    Type
REMARK                         _______ _______ _______ _____ _____    ______ ____
ROOT
ATOM      1  N   UNL     1       5.273   5.635  17.630  0.00  0.00    +0.000 N 
ATOM      2  C   UNL     1       4.317   4.615  17.410  0.00  0.00    +0.000 C 
ATOM      3  O   UNL     1       4.055   4.156  16.311  0.00  0.00    +0.000 OA
ATOM      4  H   UNL     1       5.813   5.596  18.489  0.00  0.00    +0.000 HD
ENDROOT
BRANCH   2   5
ATOM      5  C   UNL     1       3.589   4.089  18.603  0.00  0.00    +0.000 A 
ATOM      6  C   UNL     1       2.255   4.388  18.905  0.00  0.00    +0.000 A 
ATOM      7  C   UNL     1       1.657   3.807  20.028  0.00  0.00    +0.000 A 
ATOM      8  F   UNL     1       0.379   4.103  20.303  0.00  0.00    +0.000 F 
ATOM      9  C   UNL     1       2.358   2.931  20.848  0.00  0.00    +0.000 A 
ATOM     10  F   UNL     1       1.761   2.373  21.909  0.00  0.00    +0.000 F 
ATOM     11  C   UNL     1       3.677   2.634  20.551  0.00  0.00    +0.000 A 
ATOM     12  F   UNL     1       4.370   1.786  21.322  0.00  0.00    +0.000 F 
ATOM     13  C   UNL     1       4.297   3.206  19.442  0.00  0.00    +0.000 A 
ENDBRANCH   2   5
BRANCH   1  14
ATOM     14  S   UNL     1       6.193   6.229  16.350  0.00  0.00    +0.000 S 
ATOM     15  O   UNL     1       7.260   7.060  16.855  0.00  0.00    +0.000 OA
ATOM     16  O   UNL     1       5.242   6.690  15.360  0.00  0.00    +0.000 OA
BRANCH  14  17
ATOM     17  C   UNL     1       6.958   4.736  15.708  0.00  0.00    +0.000 C 
BRANCH  17  18
ATOM     18  C   UNL     1       6.982   4.791  14.179  0.00  0.00    +0.000 C 
BRANCH  18  20
ATOM     19  C   UNL     1       6.473   3.477  12.105  0.00  0.00    +0.000 C 
ATOM     20  C   UNL     1       6.036   3.785  13.532  0.00  0.00    +0.000 C 
ENDBRANCH  18  20
ENDBRANCH  17  18
ENDBRANCH  14  17
ENDBRANCH   1  14
TORSDOF 5
ENDMDL
