MODEL 1
REMARK VINA RESULT:      -6.8      0.000      0.000
REMARK  Name = 
REMARK  2 active torsions:
REMARK  status: ('A' for Active; 'I' for Inactive)
REMARK    1  A    between atoms: N_9  and  C_10
REMARK    2  A    between atoms: C_10  and  C_11
REMARK                            x       y       z     vdW  Elec       q    Type
REMARK                         _______ _______ _______ _____ _____    ______ ____
ROOT
ATOM      1  F   UNL     1       4.737   2.316  20.426  0.00  0.00    +0.000 F 
ATOM      2  C   UNL     1       3.511   2.846  20.354  0.00  0.00    +0.000 A 
ATOM      3  C   UNL     1       2.546   2.480  21.293  0.00  0.00    +0.000 A 
ATOM      4  C   UNL     1       1.269   3.036  21.252  0.00  0.00    +0.000 A 
ATOM      5  C   UNL     1       0.940   3.990  20.282  0.00  0.00    +0.000 A 
ATOM      6  C   UNL     1       1.908   4.358  19.328  0.00  0.00    +0.000 A 
ATOM      7  C   UNL     1       1.970   5.255  18.241  0.00  0.00    +0.000 A 
ATOM      8  N   UNL     1       3.135   5.203  17.595  0.00  0.00    +0.000 NA
ATOM      9  N   UNL     1       3.848   4.280  18.286  0.00  0.00    +0.000 N 
ATOM     10  C   UNL     1       3.168   3.766  19.363  0.00  0.00    +0.000 A 
ENDROOT
BRANCH   9  11
ATOM     11  C   UNL     1       5.185   3.939  17.827  0.00  0.00    +0.000 C 
BRANCH  11  12
ATOM     12  C   UNL     1       6.186   5.036  18.078  0.00  0.00    +0.000 C 
ATOM     13  N   UNL     1       7.131   4.896  18.979  0.00  0.00    +0.000 NA
ATOM     14  C   UNL     1       7.899   6.171  18.921  0.00  0.00    +0.000 C 
ATOM     15  C   UNL     1       7.414   6.915  17.672  0.00  0.00    +0.000 C 
ATOM     16  N   UNL     1       6.164   6.245  17.418  0.00  0.00    +0.000 N 
ATOM     17  H   UNL     1       5.771   6.281  16.482  0.00  0.00    +0.000 HD
ENDBRANCH  11  12
ENDBRANCH   9  11
TORSDOF 2
ENDMDL
MODEL 2
REMARK VINA RESULT:      -6.7      1.588      1.897
REMARK  Name = 
REMARK  2 active torsions:
REMARK  status: ('A' for Active; 'I' for Inactive)
REMARK    1  A    between atoms: N_9  and  C_10
REMARK    2  A    between atoms: C_10  and  C_11
REMARK                            x       y       z     vdW  Elec       q    Type
REMARK                         _______ _______ _______ _____ _____    ______ ____
ROOT
ATOM      1  F   UNL     1       4.440   2.112  20.177  0.00  0.00    +0.000 F 
ATOM      2  C   UNL     1       3.393   2.944  20.197  0.00  0.00    +0.000 A 
ATOM      3  C   UNL     1       2.195   2.529  20.779  0.00  0.00    +0.000 A 
ATOM      4  C   UNL     1       1.097   3.386  20.832  0.00  0.00    +0.000 A 
ATOM      5  C   UNL     1       1.187   4.687  20.322  0.00  0.00    +0.000 A 
ATOM      6  C   UNL     1       2.391   5.108  19.727  0.00  0.00    +0.000 A 
ATOM      7  C   UNL     1       2.867   6.296  19.133  0.00  0.00    +0.000 A 
ATOM      8  N   UNL     1       4.108   6.175  18.661  0.00  0.00    +0.000 NA
ATOM      9  N   UNL     1       4.452   4.903  18.976  0.00  0.00    +0.000 N 
ATOM     10  C   UNL     1       3.467   4.226  19.653  0.00  0.00    +0.000 A 
ENDROOT
BRANCH   9  11
ATOM     11  C   UNL     1       5.758   4.408  18.570  0.00  0.00    +0.000 C 
BRANCH  11  12
ATOM     12  C   UNL     1       6.006   4.560  17.092  0.00  0.00    +0.000 C 
ATOM     13  N   UNL     1       7.225   4.676  16.619  0.00  0.00    +0.000 NA
ATOM     14  C   UNL     1       7.048   4.799  15.145  0.00  0.00    +0.000 C 
ATOM     15  C   UNL     1       5.584   4.455  14.852  0.00  0.00    +0.000 C 
ATOM     16  N   UNL     1       4.995   4.615  16.158  0.00  0.00    +0.000 N 
ATOM     17  H   UNL     1       4.119   4.143  16.361  0.00  0.00    +0.000 HD
ENDBRANCH  11  12
ENDBRANCH   9  11
TORSDOF 2
ENDMDL
MODEL 3
REMARK VINA RESULT:      -6.6      2.158      2.708
REMARK  Name = 
REMARK  2 active torsions:
REMARK  status: ('A' for Active; 'I' for Inactive)
REMARK    1  A    between atoms: N_9  and  C_10
REMARK    2  A    between atoms: C_10  and  C_11
REMARK                            x       y       z     vdW  Elec       q    Type
REMARK                         _______ _______ _______ _____ _____    ______ ____
ROOT
ATOM      1  F   UNL     1       3.602   6.103  19.804  0.00  0.00    +0.000 F 
ATOM      2  C   UNL     1       2.850   4.998  19.751  0.00  0.00    +0.000 A 
ATOM      3  C   UNL     1       1.670   4.931  20.492  0.00  0.00    +0.000 A 
ATOM      4  C   UNL     1       0.860   3.799  20.435  0.00  0.00    +0.000 A 
ATOM      5  C   UNL     1       1.205   2.719  19.615  0.00  0.00    +0.000 A 
ATOM      6  C   UNL     1       2.398   2.778  18.871  0.00  0.00    +0.000 A 
ATOM      7  C   UNL     1       3.064   1.936  17.955  0.00  0.00    +0.000 A 
ATOM      8  N   UNL     1       4.230   2.439  17.546  0.00  0.00    +0.000 NA
ATOM      9  N   UNL     1       4.310   3.632  18.183  0.00  0.00    +0.000 N 
ATOM     10  C   UNL     1       3.213   3.903  18.966  0.00  0.00    +0.000 A 
ENDROOT
BRANCH   9  11
ATOM     11  C   UNL     1       5.495   4.452  17.992  0.00  0.00    +0.000 C 
BRANCH  11  12
ATOM     12  C   UNL     1       5.936   4.514  16.553  0.00  0.00    +0.000 C 
ATOM     13  N   UNL     1       7.202   4.657  16.239  0.00  0.00    +0.000 NA
ATOM     14  C   UNL     1       7.223   4.669  14.749  0.00  0.00    +0.000 C 
ATOM     15  C   UNL     1       5.827   4.234  14.291  0.00  0.00    +0.000 C 
ATOM     16  N   UNL     1       5.059   4.455  15.491  0.00  0.00    +0.000 N 
ATOM     17  H   UNL     1       4.183   3.956  15.611  0.00  0.00    +0.000 HD
ENDBRANCH  11  12
ENDBRANCH   9  11
TORSDOF 2
ENDMDL
MODEL 4
REMARK VINA RESULT:      -6.6      1.937      2.844
REMARK  Name = 
REMARK  2 active torsions:
REMARK  status: ('A' for Active; 'I' for Inactive)
REMARK    1  A    between atoms: N_9  and  C_10
REMARK    2  A    between atoms: C_10  and  C_11
REMARK                            x       y       z     vdW  Elec       q    Type
REMARK                         _______ _______ _______ _____ _____    ______ ____
ROOT
ATOM      1  F   UNL     1       2.714   6.408  19.307  0.00  0.00    +0.000 F 
ATOM      2  C   UNL     1       2.478   5.191  19.811  0.00  0.00    +0.000 A 
ATOM      3  C   UNL     1       1.241   4.914  20.392  0.00  0.00    +0.000 A 
ATOM      4  C   UNL     1       0.964   3.648  20.904  0.00  0.00    +0.000 A 
ATOM      5  C   UNL     1       1.917   2.625  20.822  0.00  0.00    +0.000 A 
ATOM      6  C   UNL     1       3.170   2.901  20.244  0.00  0.00    +0.000 A 
ATOM      7  C   UNL     1       4.346   2.169  19.974  0.00  0.00    +0.000 A 
ATOM      8  N   UNL     1       5.308   2.919  19.435  0.00  0.00    +0.000 NA
ATOM      9  N   UNL     1       4.743   4.146  19.329  0.00  0.00    +0.000 N 
ATOM     10  C   UNL     1       3.441   4.183  19.769  0.00  0.00    +0.000 A 
ENDROOT
BRANCH   9  11
ATOM     11  C   UNL     1       5.539   5.243  18.803  0.00  0.00    +0.000 C 
BRANCH  11  12
ATOM     12  C   UNL     1       5.814   5.108  17.328  0.00  0.00    +0.000 C 
ATOM     13  N   UNL     1       5.148   5.818  16.447  0.00  0.00    +0.000 NA
ATOM     14  C   UNL     1       5.706   5.406  15.130  0.00  0.00    +0.000 C 
ATOM     15  C   UNL     1       6.960   4.578  15.428  0.00  0.00    +0.000 C 
ATOM     16  N   UNL     1       6.742   4.231  16.810  0.00  0.00    +0.000 N 
ATOM     17  H   UNL     1       7.540   3.973  17.382  0.00  0.00    +0.000 HD
ENDBRANCH  11  12
ENDBRANCH   9  11
TORSDOF 2
ENDMDL
MODEL 5
REMARK VINA RESULT:      -6.6      1.697      2.302
REMARK  Name = 
REMARK  2 active torsions:
REMARK  status: ('A' for Active; 'I' for Inactive)
REMARK    1  A    between atoms: N_9  and  C_10
REMARK    2  A    between atoms: C_10  and  C_11
REMARK                            x       y       z     vdW  Elec       q    Type
REMARK                         _______ _______ _______ _____ _____    ______ ____
ROOT
ATOM      1  F   UNL     1       2.015   6.387  19.546  0.00  0.00    +0.000 F 
ATOM      2  C   UNL     1       2.031   5.054  19.652  0.00  0.00    +0.000 A 
ATOM      3  C   UNL     1       1.265   4.432  20.638  0.00  0.00    +0.000 A 
ATOM      4  C   UNL     1       1.249   3.043  20.754  0.00  0.00    +0.000 A 
ATOM      5  C   UNL     1       1.984   2.248  19.866  0.00  0.00    +0.000 A 
ATOM      6  C   UNL     1       2.764   2.871  18.874  0.00  0.00    +0.000 A 
ATOM      7  C   UNL     1       3.602   2.439  17.824  0.00  0.00    +0.000 A 
ATOM      8  N   UNL     1       4.172   3.452  17.170  0.00  0.00    +0.000 NA
ATOM      9  N   UNL     1       3.678   4.554  17.784  0.00  0.00    +0.000 N 
ATOM     10  C   UNL     1       2.795   4.261  18.795  0.00  0.00    +0.000 A 
ENDROOT
BRANCH   9  11
ATOM     11  C   UNL     1       4.124   5.865  17.340  0.00  0.00    +0.000 C 
BRANCH  11  12
ATOM     12  C   UNL     1       5.580   6.117  17.636  0.00  0.00    +0.000 C 
ATOM     13  N   UNL     1       6.219   7.120  17.082  0.00  0.00    +0.000 NA
ATOM     14  C   UNL     1       7.604   7.030  17.622  0.00  0.00    +0.000 C 
ATOM     15  C   UNL     1       7.562   6.006  18.762  0.00  0.00    +0.000 C 
ATOM     16  N   UNL     1       6.331   5.314  18.467  0.00  0.00    +0.000 N 
ATOM     17  H   UNL     1       5.862   4.812  19.214  0.00  0.00    +0.000 HD
ENDBRANCH  11  12
ENDBRANCH   9  11
TORSDOF 2
ENDMDL
MODEL 6
REMARK VINA RESULT:      -6.5      0.415      1.054
REMARK  Name = 
REMARK  2 active torsions:
REMARK  status: ('A' for Active; 'I' for Inactive)
REMARK    1  A    between atoms: N_9  and  C_10
REMARK    2  A    between atoms: C_10  and  C_11
REMARK                            x       y       z     vdW  Elec       q    Type
REMARK                         _______ _______ _______ _____ _____    ______ ____
ROOT
ATOM      1  F   UNL     1       4.810   2.181  20.042  0.00  0.00    +0.000 F 
ATOM      2  C   UNL     1       3.603   2.741  20.186  0.00  0.00    +0.000 A 
ATOM      3  C   UNL     1       2.812   2.402  21.284  0.00  0.00    +0.000 A 
ATOM      4  C   UNL     1       1.562   2.989  21.466  0.00  0.00    +0.000 A 
ATOM      5  C   UNL     1       1.088   3.947  20.562  0.00  0.00    +0.000 A 
ATOM      6  C   UNL     1       1.879   4.288  19.449  0.00  0.00    +0.000 A 
ATOM      7  C   UNL     1       1.768   5.180  18.361  0.00  0.00    +0.000 A 
ATOM      8  N   UNL     1       2.798   5.096  17.518  0.00  0.00    +0.000 NA
ATOM      9  N   UNL     1       3.601   4.159  18.079  0.00  0.00    +0.000 N 
ATOM     10  C   UNL     1       3.112   3.665  19.264  0.00  0.00    +0.000 A 
ENDROOT
BRANCH   9  11
ATOM     11  C   UNL     1       4.826   3.783  17.392  0.00  0.00    +0.000 C 
BRANCH  11  12
ATOM     12  C   UNL     1       5.975   4.707  17.703  0.00  0.00    +0.000 C 
ATOM     13  N   UNL     1       6.106   5.857  17.083  0.00  0.00    +0.000 NA
ATOM     14  C   UNL     1       7.338   6.460  17.663  0.00  0.00    +0.000 C 
ATOM     15  C   UNL     1       7.709   5.608  18.881  0.00  0.00    +0.000 C 
ATOM     16  N   UNL     1       6.963   4.403  18.615  0.00  0.00    +0.000 N 
ATOM     17  H   UNL     1       6.737   3.786  19.389  0.00  0.00    +0.000 HD
ENDBRANCH  11  12
ENDBRANCH   9  11
TORSDOF 2
ENDMDL
MODEL 7
REMARK VINA RESULT:      -6.5      1.416      2.471
REMARK  Name = 
REMARK  2 active torsions:
REMARK  status: ('A' for Active; 'I' for Inactive)
REMARK    1  A    between atoms: N_9  and  C_10
REMARK    2  A    between atoms: C_10  and  C_11
REMARK                            x       y       z     vdW  Elec       q    Type
REMARK                         _______ _______ _______ _____ _____    ______ ____
ROOT
ATOM      1  F   UNL     1       1.803   4.795  17.921  0.00  0.00    +0.000 F 
ATOM      2  C   UNL     1       1.946   4.106  19.058  0.00  0.00    +0.000 A 
ATOM      3  C   UNL     1       0.880   4.024  19.954  0.00  0.00    +0.000 A 
ATOM      4  C   UNL     1       0.998   3.292  21.134  0.00  0.00    +0.000 A 
ATOM      5  C   UNL     1       2.183   2.608  21.429  0.00  0.00    +0.000 A 
ATOM      6  C   UNL     1       3.265   2.693  20.533  0.00  0.00    +0.000 A 
ATOM      7  C   UNL     1       4.570   2.161  20.465  0.00  0.00    +0.000 A 
ATOM      8  N   UNL     1       5.248   2.591  19.400  0.00  0.00    +0.000 NA
ATOM      9  N   UNL     1       4.364   3.389  18.754  0.00  0.00    +0.000 N 
ATOM     10  C   UNL     1       3.140   3.457  19.374  0.00  0.00    +0.000 A 
ENDROOT
BRANCH   9  11
ATOM     11  C   UNL     1       4.789   4.069  17.541  0.00  0.00    +0.000 C 
BRANCH  11  12
ATOM     12  C   UNL     1       5.930   5.024  17.776  0.00  0.00    +0.000 C 
ATOM     13  N   UNL     1       5.943   6.212  17.218  0.00  0.00    +0.000 NA
ATOM     14  C   UNL     1       7.210   6.836  17.691  0.00  0.00    +0.000 C 
ATOM     15  C   UNL     1       7.752   5.934  18.805  0.00  0.00    +0.000 C 
ATOM     16  N   UNL     1       7.027   4.714  18.550  0.00  0.00    +0.000 N 
ATOM     17  H   UNL     1       6.916   4.045  19.305  0.00  0.00    +0.000 HD
ENDBRANCH  11  12
ENDBRANCH   9  11
TORSDOF 2
ENDMDL
MODEL 8
REMARK VINA RESULT:      -6.5      1.796      2.166
REMARK  Name = 
REMARK  2 active torsions:
REMARK  status: ('A' for Active; 'I' for Inactive)
REMARK    1  A    between atoms: N_9  and  C_10
REMARK    2  A    between atoms: C_10  and  C_11
REMARK                            x       y       z     vdW  Elec       q    Type
REMARK                         _______ _______ _______ _____ _____    ______ ____
ROOT
ATOM      1  F   UNL     1       3.239   3.176  16.892  0.00  0.00    +0.000 F 
ATOM      2  C   UNL     1       2.456   3.379  17.957  0.00  0.00    +0.000 A 
ATOM      3  C   UNL     1       1.570   2.379  18.361  0.00  0.00    +0.000 A 
ATOM      4  C   UNL     1       0.760   2.559  19.481  0.00  0.00    +0.000 A 
ATOM      5  C   UNL     1       0.839   3.737  20.233  0.00  0.00    +0.000 A 
ATOM      6  C   UNL     1       1.726   4.751  19.826  0.00  0.00    +0.000 A 
ATOM      7  C   UNL     1       2.094   6.028  20.302  0.00  0.00    +0.000 A 
ATOM      8  N   UNL     1       2.975   6.639  19.510  0.00  0.00    +0.000 NA
ATOM      9  N   UNL     1       3.203   5.739  18.523  0.00  0.00    +0.000 N 
ATOM     10  C   UNL     1       2.503   4.568  18.684  0.00  0.00    +0.000 A 
ENDROOT
BRANCH   9  11
ATOM     11  C   UNL     1       4.108   6.097  17.442  0.00  0.00    +0.000 C 
BRANCH  11  12
ATOM     12  C   UNL     1       5.507   5.580  17.657  0.00  0.00    +0.000 C 
ATOM     13  N   UNL     1       6.154   4.962  16.697  0.00  0.00    +0.000 NA
ATOM     14  C   UNL     1       7.475   4.618  17.294  0.00  0.00    +0.000 C 
ATOM     15  C   UNL     1       7.565   5.378  18.621  0.00  0.00    +0.000 C 
ATOM     16  N   UNL     1       6.177   5.691  18.856  0.00  0.00    +0.000 N 
ATOM     17  H   UNL     1       5.947   6.465  19.471  0.00  0.00    +0.000 HD
ENDBRANCH  11  12
ENDBRANCH   9  11
TORSDOF 2
ENDMDL
MODEL 9
REMARK VINA RESULT:      -6.5      2.819      3.946
REMARK  Name = 
REMARK  2 active torsions:
REMARK  status: ('A' for Active; 'I' for Inactive)
REMARK    1  A    between atoms: N_9  and  C_10
REMARK    2  A    between atoms: C_10  and  C_11
REMARK                            x       y       z     vdW  Elec       q    Type
REMARK                         _______ _______ _______ _____ _____    ______ ____
ROOT
ATOM      1  F   UNL     1       5.408   7.217  16.577  0.00  0.00    +0.000 F 
ATOM      2  C   UNL     1       4.488   6.818  17.462  0.00  0.00    +0.000 A 
ATOM      3  C   UNL     1       3.339   7.586  17.655  0.00  0.00    +0.000 A 
ATOM      4  C   UNL     1       2.356   7.179  18.555  0.00  0.00    +0.000 A 
ATOM      5  C   UNL     1       2.495   5.979  19.263  0.00  0.00    +0.000 A 
ATOM      6  C   UNL     1       3.655   5.204  19.078  0.00  0.00    +0.000 A 
ATOM      7  C   UNL     1       4.145   3.978  19.574  0.00  0.00    +0.000 A 
ATOM      8  N   UNL     1       5.361   3.683  19.112  0.00  0.00    +0.000 NA
ATOM      9  N   UNL     1       5.653   4.717  18.286  0.00  0.00    +0.000 N 
ATOM     10  C   UNL     1       4.643   5.644  18.199  0.00  0.00    +0.000 A 
ENDROOT
BRANCH   9  11
ATOM     11  C   UNL     1       6.947   4.741  17.623  0.00  0.00    +0.000 C 
BRANCH  11  12
ATOM     12  C   UNL     1       6.844   4.532  16.134  0.00  0.00    +0.000 C 
ATOM     13  N   UNL     1       6.005   3.657  15.631  0.00  0.00    +0.000 NA
ATOM     14  C   UNL     1       6.200   3.752  14.157  0.00  0.00    +0.000 C 
ATOM     15  C   UNL     1       7.061   4.995  13.910  0.00  0.00    +0.000 C 
ATOM     16  N   UNL     1       7.624   5.207  15.221  0.00  0.00    +0.000 N 
ATOM     17  H   UNL     1       7.966   6.131  15.462  0.00  0.00    +0.000 HD
ENDBRANCH  11  12
ENDBRANCH   9  11
TORSDOF 2
ENDMDL
