MODEL 1
REMARK VINA RESULT:      -9.0      0.000      0.000
REMARK  Name = 
REMARK  8 active torsions:
REMARK  status: ('A' for Active; 'I' for Inactive)
REMARK    1  A    between atoms: C_1  and  C_2
REMARK    2  A    between atoms: C_4  and  C_5
REMARK    3  A    between atoms: C_12  and  C_13
REMARK    4  A    between atoms: N_14  and  C_15
REMARK    5  A    between atoms: C_15  and  C_16
REMARK    6  A    between atoms: N_18  and  C_19
REMARK    7  A    between atoms: C_23  and  S_24
REMARK    8  A    between atoms: S_24  and  N_25
REMARK                            x       y       z     vdW  Elec       q    Type
REMARK                         _______ _______ _______ _____ _____    ______ ____
ROOT
ATOM      1  C   UNL     1       2.851   5.156  19.980  0.00  0.00    +0.000 C 
ATOM      2  O   UNL     1       1.755   4.835  20.427  0.00  0.00    +0.000 OA
ATOM      3  N   UNL     1       3.192   6.438  19.548  0.00  0.00    +0.000 N 
ATOM      4  H   UNL     1       3.925   6.523  18.851  0.00  0.00    +0.000 HD
ENDROOT
BRANCH   3   5
ATOM      5  C   UNL     1       2.291   7.534  19.572  0.00  0.00    +0.000 A 
ATOM      6  C   UNL     1       2.148   8.282  18.395  0.00  0.00    +0.000 A 
ATOM      7  C   UNL     1       1.275   9.371  18.340  0.00  0.00    +0.000 A 
ATOM      8  C   UNL     1       0.597   9.777  19.484  0.00  0.00    +0.000 A 
ATOM      9  C   UNL     1       0.780   9.068  20.675  0.00  0.00    +0.000 A 
ATOM     10  C   UNL     1       1.605   7.930  20.724  0.00  0.00    +0.000 A 
BRANCH   9  11
ATOM     11  S   UNL     1       0.080   9.737  22.160  0.00  0.00    +0.000 S 
ATOM     12  O   UNL     1       1.118   9.791  23.171  0.00  0.00    +0.000 OA
ATOM     13  O   UNL     1      -0.733  10.881  21.821  0.00  0.00    +0.000 OA
BRANCH  11  14
ATOM     14  N   UNL     1      -0.977   8.530  22.640  0.00  0.00    +0.000 NA
ATOM     15  H   UNL     1      -1.940   8.840  22.499  0.00  0.00    +0.000 HD
ATOM     16  H   UNL     1      -0.761   7.665  22.143  0.00  0.00    +0.000 HD
ENDBRANCH  11  14
ENDBRANCH   9  11
ENDBRANCH   3   5
BRANCH   1  17
ATOM     17  C   UNL     1       3.967   4.132  19.823  0.00  0.00    +0.000 C 
BRANCH  17  25
ATOM     18  C   UNL     1       6.587   5.362  19.378  0.00  0.00    +0.000 C 
ATOM     19  C   UNL     1       5.818   4.711  18.257  0.00  0.00    +0.000 A 
ATOM     20  C   UNL     1       6.365   4.775  16.955  0.00  0.00    +0.000 A 
ATOM     21  C   UNL     1       5.729   4.213  15.850  0.00  0.00    +0.000 A 
ATOM     22  C   UNL     1       4.525   3.570  16.118  0.00  0.00    +0.000 A 
ATOM     23  C   UNL     1       3.970   3.500  17.409  0.00  0.00    +0.000 A 
ATOM     24  C   UNL     1       2.631   2.818  17.527  0.00  0.00    +0.000 C 
ATOM     25  N   UNL     1       4.607   4.097  18.465  0.00  0.00    +0.000 N 
BRANCH  21  26
ATOM     26  C   UNL     1       6.279   4.275  14.472  0.00  0.00    +0.000 A 
ATOM     27  C   UNL     1       5.761   3.489  13.427  0.00  0.00    +0.000 A 
ATOM     28  C   UNL     1       6.268   3.577  12.125  0.00  0.00    +0.000 A 
ATOM     29  C   UNL     1       7.303   4.460  11.832  0.00  0.00    +0.000 A 
ATOM     30  C   UNL     1       7.834   5.251  12.841  0.00  0.00    +0.000 A 
ATOM     31  C   UNL     1       7.335   5.151  14.144  0.00  0.00    +0.000 A 
ENDBRANCH  21  26
ENDBRANCH  17  25
ENDBRANCH   1  17
TORSDOF 6
ENDMDL
MODEL 2
REMARK VINA RESULT:      -8.9      0.868      1.101
REMARK  Name = 
REMARK  8 active torsions:
REMARK  status: ('A' for Active; 'I' for Inactive)
REMARK    1  A    between atoms: C_1  and  C_2
REMARK    2  A    between atoms: C_4  and  C_5
REMARK    3  A    between atoms: C_12  and  C_13
REMARK    4  A    between atoms: N_14  and  C_15
REMARK    5  A    between atoms: C_15  and  C_16
REMARK    6  A    between atoms: N_18  and  C_19
REMARK    7  A    between atoms: C_23  and  S_24
REMARK    8  A    between atoms: S_24  and  N_25
REMARK                            x       y       z     vdW  Elec       q    Type
REMARK                         _______ _______ _______ _____ _____    ______ ____
ROOT
ATOM      1  C   UNL     1       2.701   5.440  19.852  0.00  0.00    +0.000 C 
ATOM      2  O   UNL     1       1.616   5.186  20.368  0.00  0.00    +0.000 OA
ATOM      3  N   UNL     1       3.046   6.665  19.283  0.00  0.00    +0.000 N 
ATOM      4  H   UNL     1       3.754   6.667  18.555  0.00  0.00    +0.000 HD
ENDROOT
BRANCH   3   5
ATOM      5  C   UNL     1       2.166   7.777  19.230  0.00  0.00    +0.000 A 
ATOM      6  C   UNL     1       1.884   8.321  17.970  0.00  0.00    +0.000 A 
ATOM      7  C   UNL     1       1.020   9.412  17.839  0.00  0.00    +0.000 A 
ATOM      8  C   UNL     1       0.495  10.024  18.971  0.00  0.00    +0.000 A 
ATOM      9  C   UNL     1       0.819   9.519  20.233  0.00  0.00    +0.000 A 
ATOM     10  C   UNL     1       1.633   8.380  20.374  0.00  0.00    +0.000 A 
BRANCH   9  11
ATOM     11  S   UNL     1       0.317  10.447  21.658  0.00  0.00    +0.000 S 
ATOM     12  O   UNL     1      -1.084  10.789  21.511  0.00  0.00    +0.000 OA
ATOM     13  O   UNL     1       0.839   9.807  22.842  0.00  0.00    +0.000 OA
BRANCH  11  14
ATOM     14  N   UNL     1       1.168  11.878  21.479  0.00  0.00    +0.000 NA
ATOM     15  H   UNL     1       2.101  11.775  21.879  0.00  0.00    +0.000 HD
ATOM     16  H   UNL     1       1.186  12.148  20.494  0.00  0.00    +0.000 HD
ENDBRANCH  11  14
ENDBRANCH   9  11
ENDBRANCH   3   5
BRANCH   1  17
ATOM     17  C   UNL     1       3.793   4.382  19.757  0.00  0.00    +0.000 C 
BRANCH  17  25
ATOM     18  C   UNL     1       6.502   5.419  19.363  0.00  0.00    +0.000 C 
ATOM     19  C   UNL     1       5.717   4.808  18.232  0.00  0.00    +0.000 A 
ATOM     20  C   UNL     1       6.299   4.813  16.943  0.00  0.00    +0.000 A 
ATOM     21  C   UNL     1       5.653   4.281  15.830  0.00  0.00    +0.000 A 
ATOM     22  C   UNL     1       4.401   3.727  16.076  0.00  0.00    +0.000 A 
ATOM     23  C   UNL     1       3.811   3.716  17.352  0.00  0.00    +0.000 A 
ATOM     24  C   UNL     1       2.424   3.131  17.445  0.00  0.00    +0.000 C 
ATOM     25  N   UNL     1       4.462   4.283  18.417  0.00  0.00    +0.000 N 
BRANCH  21  26
ATOM     26  C   UNL     1       6.240   4.284  14.466  0.00  0.00    +0.000 A 
ATOM     27  C   UNL     1       5.732   3.475  13.434  0.00  0.00    +0.000 A 
ATOM     28  C   UNL     1       6.275   3.506  12.144  0.00  0.00    +0.000 A 
ATOM     29  C   UNL     1       7.337   4.356  11.849  0.00  0.00    +0.000 A 
ATOM     30  C   UNL     1       7.860   5.169  12.846  0.00  0.00    +0.000 A 
ATOM     31  C   UNL     1       7.325   5.124  14.137  0.00  0.00    +0.000 A 
ENDBRANCH  21  26
ENDBRANCH  17  25
ENDBRANCH   1  17
TORSDOF 6
ENDMDL
MODEL 3
REMARK VINA RESULT:      -8.8      0.752      1.178
REMARK  Name = 
REMARK  8 active torsions:
REMARK  status: ('A' for Active; 'I' for Inactive)
REMARK    1  A    between atoms: C_1  and  C_2
REMARK    2  A    between atoms: C_4  and  C_5
REMARK    3  A    between atoms: C_12  and  C_13
REMARK    4  A    between atoms: N_14  and  C_15
REMARK    5  A    between atoms: C_15  and  C_16
REMARK    6  A    between atoms: N_18  and  C_19
REMARK    7  A    between atoms: C_23  and  S_24
REMARK    8  A    between atoms: S_24  and  N_25
REMARK                            x       y       z     vdW  Elec       q    Type
REMARK                         _______ _______ _______ _____ _____    ______ ____
ROOT
ATOM      1  C   UNL     1       2.714   5.439  19.846  0.00  0.00    +0.000 C 
ATOM      2  O   UNL     1       1.642   5.195  20.390  0.00  0.00    +0.000 OA
ATOM      3  N   UNL     1       3.050   6.659  19.259  0.00  0.00    +0.000 N 
ATOM      4  H   UNL     1       3.739   6.652  18.513  0.00  0.00    +0.000 HD
ENDROOT
BRANCH   3   5
ATOM      5  C   UNL     1       2.173   7.774  19.220  0.00  0.00    +0.000 A 
ATOM      6  C   UNL     1       1.863   8.311  17.963  0.00  0.00    +0.000 A 
ATOM      7  C   UNL     1       1.001   9.405  17.845  0.00  0.00    +0.000 A 
ATOM      8  C   UNL     1       0.505  10.026  18.986  0.00  0.00    +0.000 A 
ATOM      9  C   UNL     1       0.858   9.528  20.243  0.00  0.00    +0.000 A 
ATOM     10  C   UNL     1       1.670   8.387  20.372  0.00  0.00    +0.000 A 
BRANCH   9  11
ATOM     11  S   UNL     1       0.394  10.468  21.673  0.00  0.00    +0.000 S 
ATOM     12  O   UNL     1       1.084  11.742  21.627  0.00  0.00    +0.000 OA
ATOM     13  O   UNL     1      -1.034  10.366  21.858  0.00  0.00    +0.000 OA
BRANCH  11  14
ATOM     14  N   UNL     1       1.096   9.602  22.922  0.00  0.00    +0.000 NA
ATOM     15  H   UNL     1       0.450   8.880  23.246  0.00  0.00    +0.000 HD
ATOM     16  H   UNL     1       1.994   9.223  22.616  0.00  0.00    +0.000 HD
ENDBRANCH  11  14
ENDBRANCH   9  11
ENDBRANCH   3   5
BRANCH   1  17
ATOM     17  C   UNL     1       3.799   4.376  19.731  0.00  0.00    +0.000 C 
BRANCH  17  25
ATOM     18  C   UNL     1       6.510   5.408  19.337  0.00  0.00    +0.000 C 
ATOM     19  C   UNL     1       5.718   4.813  18.202  0.00  0.00    +0.000 A 
ATOM     20  C   UNL     1       6.294   4.833  16.911  0.00  0.00    +0.000 A 
ATOM     21  C   UNL     1       5.640   4.316  15.795  0.00  0.00    +0.000 A 
ATOM     22  C   UNL     1       4.387   3.764  16.040  0.00  0.00    +0.000 A 
ATOM     23  C   UNL     1       3.802   3.740  17.318  0.00  0.00    +0.000 A 
ATOM     24  C   UNL     1       2.414   3.158  17.411  0.00  0.00    +0.000 C 
ATOM     25  N   UNL     1       4.461   4.291  18.386  0.00  0.00    +0.000 N 
BRANCH  21  26
ATOM     26  C   UNL     1       6.220   4.334  14.428  0.00  0.00    +0.000 A 
ATOM     27  C   UNL     1       7.317   5.149  14.094  0.00  0.00    +0.000 A 
ATOM     28  C   UNL     1       7.874   5.136  12.810  0.00  0.00    +0.000 A 
ATOM     29  C   UNL     1       7.355   4.300  11.827  0.00  0.00    +0.000 A 
ATOM     30  C   UNL     1       6.274   3.482  12.125  0.00  0.00    +0.000 A 
ATOM     31  C   UNL     1       5.710   3.507  13.404  0.00  0.00    +0.000 A 
ENDBRANCH  21  26
ENDBRANCH  17  25
ENDBRANCH   1  17
TORSDOF 6
ENDMDL
MODEL 4
REMARK VINA RESULT:      -8.8      0.414      1.667
REMARK  Name = 
REMARK  8 active torsions:
REMARK  status: ('A' for Active; 'I' for Inactive)
REMARK    1  A    between atoms: C_1  and  C_2
REMARK    2  A    between atoms: C_4  and  C_5
REMARK    3  A    between atoms: C_12  and  C_13
REMARK    4  A    between atoms: N_14  and  C_15
REMARK    5  A    between atoms: C_15  and  C_16
REMARK    6  A    between atoms: N_18  and  C_19
REMARK    7  A    between atoms: C_23  and  S_24
REMARK    8  A    between atoms: S_24  and  N_25
REMARK                            x       y       z     vdW  Elec       q    Type
REMARK                         _______ _______ _______ _____ _____    ______ ____
ROOT
ATOM      1  C   UNL     1       2.647   5.344  20.020  0.00  0.00    +0.000 C 
ATOM      2  O   UNL     1       1.577   5.009  20.518  0.00  0.00    +0.000 OA
ATOM      3  N   UNL     1       2.979   6.645  19.644  0.00  0.00    +0.000 N 
ATOM      4  H   UNL     1       3.667   6.764  18.906  0.00  0.00    +0.000 HD
ENDROOT
BRANCH   3   5
ATOM      5  C   UNL     1       2.100   7.749  19.793  0.00  0.00    +0.000 A 
ATOM      6  C   UNL     1       1.847   8.534  18.660  0.00  0.00    +0.000 A 
ATOM      7  C   UNL     1       0.987   9.633  18.729  0.00  0.00    +0.000 A 
ATOM      8  C   UNL     1       0.436  10.010  19.948  0.00  0.00    +0.000 A 
ATOM      9  C   UNL     1       0.731   9.263  21.092  0.00  0.00    +0.000 A 
ATOM     10  C   UNL     1       1.542   8.116  21.022  0.00  0.00    +0.000 A 
BRANCH   9  11
ATOM     11  S   UNL     1       0.197   9.893  22.661  0.00  0.00    +0.000 S 
ATOM     12  O   UNL     1       1.198   9.554  23.654  0.00  0.00    +0.000 OA
ATOM     13  O   UNL     1      -0.295  11.238  22.483  0.00  0.00    +0.000 OA
BRANCH  11  14
ATOM     14  N   UNL     1      -1.137   8.941  23.000  0.00  0.00    +0.000 NA
ATOM     15  H   UNL     1      -0.942   7.972  22.747  0.00  0.00    +0.000 HD
ATOM     16  H   UNL     1      -1.398   9.050  23.982  0.00  0.00    +0.000 HD
ENDBRANCH  11  14
ENDBRANCH   9  11
ENDBRANCH   3   5
BRANCH   1  17
ATOM     17  C   UNL     1       3.733   4.317  19.727  0.00  0.00    +0.000 C 
BRANCH  17  25
ATOM     18  C   UNL     1       2.232   3.355  17.405  0.00  0.00    +0.000 C 
ATOM     19  C   UNL     1       3.628   3.906  17.271  0.00  0.00    +0.000 A 
ATOM     20  C   UNL     1       4.231   3.879  15.992  0.00  0.00    +0.000 A 
ATOM     21  C   UNL     1       5.520   4.356  15.765  0.00  0.00    +0.000 A 
ATOM     22  C   UNL     1       6.168   4.877  16.879  0.00  0.00    +0.000 A 
ATOM     23  C   UNL     1       5.580   4.909  18.157  0.00  0.00    +0.000 A 
ATOM     24  C   UNL     1       6.433   5.453  19.274  0.00  0.00    +0.000 C 
ATOM     25  N   UNL     1       4.324   4.396  18.349  0.00  0.00    +0.000 N 
BRANCH  21  26
ATOM     26  C   UNL     1       6.177   4.330  14.433  0.00  0.00    +0.000 A 
ATOM     27  C   UNL     1       5.699   3.526  13.382  0.00  0.00    +0.000 A 
ATOM     28  C   UNL     1       6.309   3.530  12.122  0.00  0.00    +0.000 A 
ATOM     29  C   UNL     1       7.409   4.346  11.877  0.00  0.00    +0.000 A 
ATOM     30  C   UNL     1       7.904   5.152  12.893  0.00  0.00    +0.000 A 
ATOM     31  C   UNL     1       7.302   5.135  14.155  0.00  0.00    +0.000 A 
ENDBRANCH  21  26
ENDBRANCH  17  25
ENDBRANCH   1  17
TORSDOF 6
ENDMDL
MODEL 5
REMARK VINA RESULT:      -8.6      0.775      2.030
REMARK  Name = 
REMARK  8 active torsions:
REMARK  status: ('A' for Active; 'I' for Inactive)
REMARK    1  A    between atoms: C_1  and  C_2
REMARK    2  A    between atoms: C_4  and  C_5
REMARK    3  A    between atoms: C_12  and  C_13
REMARK    4  A    between atoms: N_14  and  C_15
REMARK    5  A    between atoms: C_15  and  C_16
REMARK    6  A    between atoms: N_18  and  C_19
REMARK    7  A    between atoms: C_23  and  S_24
REMARK    8  A    between atoms: S_24  and  N_25
REMARK                            x       y       z     vdW  Elec       q    Type
REMARK                         _______ _______ _______ _____ _____    ______ ____
ROOT
ATOM      1  C   UNL     1       3.030   5.351  19.989  0.00  0.00    +0.000 C 
ATOM      2  O   UNL     1       2.294   5.233  20.963  0.00  0.00    +0.000 OA
ATOM      3  N   UNL     1       3.047   6.451  19.131  0.00  0.00    +0.000 N 
ATOM      4  H   UNL     1       3.360   6.302  18.177  0.00  0.00    +0.000 HD
ENDROOT
BRANCH   3   5
ATOM      5  C   UNL     1       2.196   7.575  19.287  0.00  0.00    +0.000 A 
ATOM      6  C   UNL     1       1.938   8.357  18.153  0.00  0.00    +0.000 A 
ATOM      7  C   UNL     1       1.105   9.476  18.229  0.00  0.00    +0.000 A 
ATOM      8  C   UNL     1       0.586   9.875  19.455  0.00  0.00    +0.000 A 
ATOM      9  C   UNL     1       0.887   9.131  20.599  0.00  0.00    +0.000 A 
ATOM     10  C   UNL     1       1.670   7.964  20.523  0.00  0.00    +0.000 A 
BRANCH   9  11
ATOM     11  S   UNL     1       0.398   9.785  22.173  0.00  0.00    +0.000 S 
ATOM     12  O   UNL     1       0.379  11.232  22.081  0.00  0.00    +0.000 OA
ATOM     13  O   UNL     1      -0.725   9.024  22.668  0.00  0.00    +0.000 OA
BRANCH  11  14
ATOM     14  N   UNL     1       1.701   9.396  23.150  0.00  0.00    +0.000 NA
ATOM     15  H   UNL     1       1.399   9.352  24.124  0.00  0.00    +0.000 HD
ATOM     16  H   UNL     1       2.128   8.526  22.826  0.00  0.00    +0.000 HD
ENDBRANCH  11  14
ENDBRANCH   9  11
ENDBRANCH   3   5
BRANCH   1  17
ATOM     17  C   UNL     1       4.004   4.246  19.599  0.00  0.00    +0.000 C 
BRANCH  17  25
ATOM     18  C   UNL     1       2.478   3.228  17.317  0.00  0.00    +0.000 C 
ATOM     19  C   UNL     1       3.847   3.833  17.146  0.00  0.00    +0.000 A 
ATOM     20  C   UNL     1       4.416   3.830  15.851  0.00  0.00    +0.000 A 
ATOM     21  C   UNL     1       5.678   4.357  15.590  0.00  0.00    +0.000 A 
ATOM     22  C   UNL     1       6.336   4.902  16.687  0.00  0.00    +0.000 A 
ATOM     23  C   UNL     1       5.783   4.910  17.980  0.00  0.00    +0.000 A 
ATOM     24  C   UNL     1       6.645   5.485  19.075  0.00  0.00    +0.000 C 
ATOM     25  N   UNL     1       4.553   4.349  18.205  0.00  0.00    +0.000 N 
BRANCH  21  26
ATOM     26  C   UNL     1       6.300   4.357  14.241  0.00  0.00    +0.000 A 
ATOM     27  C   UNL     1       7.357   5.223  13.907  0.00  0.00    +0.000 A 
ATOM     28  C   UNL     1       7.954   5.194  12.641  0.00  0.00    +0.000 A 
ATOM     29  C   UNL     1       7.515   4.292  11.677  0.00  0.00    +0.000 A 
ATOM     30  C   UNL     1       6.475   3.422  11.976  0.00  0.00    +0.000 A 
ATOM     31  C   UNL     1       5.870   3.463  13.236  0.00  0.00    +0.000 A 
ENDBRANCH  21  26
ENDBRANCH  17  25
ENDBRANCH   1  17
TORSDOF 6
ENDMDL
MODEL 6
REMARK VINA RESULT:      -8.2      1.701      2.180
REMARK  Name = 
REMARK  8 active torsions:
REMARK  status: ('A' for Active; 'I' for Inactive)
REMARK    1  A    between atoms: C_1  and  C_2
REMARK    2  A    between atoms: C_4  and  C_5
REMARK    3  A    between atoms: C_12  and  C_13
REMARK    4  A    between atoms: N_14  and  C_15
REMARK    5  A    between atoms: C_15  and  C_16
REMARK    6  A    between atoms: N_18  and  C_19
REMARK    7  A    between atoms: C_23  and  S_24
REMARK    8  A    between atoms: S_24  and  N_25
REMARK                            x       y       z     vdW  Elec       q    Type
REMARK                         _______ _______ _______ _____ _____    ______ ____
ROOT
ATOM      1  C   UNL     1       2.481   5.011  19.898  0.00  0.00    +0.000 C 
ATOM      2  O   UNL     1       1.339   4.669  19.610  0.00  0.00    +0.000 OA
ATOM      3  N   UNL     1       2.850   6.291  20.312  0.00  0.00    +0.000 N 
ATOM      4  H   UNL     1       3.805   6.588  20.138  0.00  0.00    +0.000 HD
ENDROOT
BRANCH   3   5
ATOM      5  C   UNL     1       1.930   7.363  20.445  0.00  0.00    +0.000 A 
ATOM      6  C   UNL     1       1.045   7.327  21.532  0.00  0.00    +0.000 A 
ATOM      7  C   UNL     1       0.116   8.351  21.732  0.00  0.00    +0.000 A 
ATOM      8  C   UNL     1       0.003   9.380  20.803  0.00  0.00    +0.000 A 
ATOM      9  C   UNL     1       0.845   9.389  19.688  0.00  0.00    +0.000 A 
ATOM     10  C   UNL     1       1.830   8.400  19.512  0.00  0.00    +0.000 A 
BRANCH   9  11
ATOM     11  S   UNL     1       0.532  10.583  18.415  0.00  0.00    +0.000 S 
ATOM     12  O   UNL     1      -0.502  10.060  17.543  0.00  0.00    +0.000 OA
ATOM     13  O   UNL     1       0.453  11.895  19.013  0.00  0.00    +0.000 OA
BRANCH  11  14
ATOM     14  N   UNL     1       1.951  10.551  17.528  0.00  0.00    +0.000 NA
ATOM     15  H   UNL     1       2.741  10.364  18.148  0.00  0.00    +0.000 HD
ATOM     16  H   UNL     1       1.870   9.869  16.772  0.00  0.00    +0.000 HD
ENDBRANCH  11  14
ENDBRANCH   9  11
ENDBRANCH   3   5
BRANCH   1  17
ATOM     17  C   UNL     1       3.646   4.035  19.789  0.00  0.00    +0.000 C 
BRANCH  17  25
ATOM     18  C   UNL     1       6.149   5.499  19.384  0.00  0.00    +0.000 C 
ATOM     19  C   UNL     1       5.487   4.739  18.264  0.00  0.00    +0.000 A 
ATOM     20  C   UNL     1       6.072   4.812  16.979  0.00  0.00    +0.000 A 
ATOM     21  C   UNL     1       5.532   4.153  15.876  0.00  0.00    +0.000 A 
ATOM     22  C   UNL     1       4.388   3.406  16.128  0.00  0.00    +0.000 A 
ATOM     23  C   UNL     1       3.796   3.326  17.402  0.00  0.00    +0.000 A 
ATOM     24  C   UNL     1       2.525   2.521  17.502  0.00  0.00    +0.000 C 
ATOM     25  N   UNL     1       4.335   4.018  18.455  0.00  0.00    +0.000 N 
BRANCH  21  26
ATOM     26  C   UNL     1       6.123   4.222  14.515  0.00  0.00    +0.000 A 
ATOM     27  C   UNL     1       5.598   3.488  13.436  0.00  0.00    +0.000 A 
ATOM     28  C   UNL     1       6.145   3.582  12.151  0.00  0.00    +0.000 A 
ATOM     29  C   UNL     1       7.228   4.422  11.908  0.00  0.00    +0.000 A 
ATOM     30  C   UNL     1       7.768   5.162  12.951  0.00  0.00    +0.000 A 
ATOM     31  C   UNL     1       7.229   5.054  14.237  0.00  0.00    +0.000 A 
ENDBRANCH  21  26
ENDBRANCH  17  25
ENDBRANCH   1  17
TORSDOF 6
ENDMDL
MODEL 7
REMARK VINA RESULT:      -8.1      4.763      7.273
REMARK  Name = 
REMARK  8 active torsions:
REMARK  status: ('A' for Active; 'I' for Inactive)
REMARK    1  A    between atoms: C_1  and  C_2
REMARK    2  A    between atoms: C_4  and  C_5
REMARK    3  A    between atoms: C_12  and  C_13
REMARK    4  A    between atoms: N_14  and  C_15
REMARK    5  A    between atoms: C_15  and  C_16
REMARK    6  A    between atoms: N_18  and  C_19
REMARK    7  A    between atoms: C_23  and  S_24
REMARK    8  A    between atoms: S_24  and  N_25
REMARK                            x       y       z     vdW  Elec       q    Type
REMARK                         _______ _______ _______ _____ _____    ______ ____
ROOT
ATOM      1  C   UNL     1      -0.266  11.385  19.086  0.00  0.00    +0.000 C 
ATOM      2  O   UNL     1      -0.218  12.490  18.554  0.00  0.00    +0.000 OA
ATOM      3  N   UNL     1      -1.269  10.440  18.872  0.00  0.00    +0.000 N 
ATOM      4  H   UNL     1      -1.453   9.770  19.612  0.00  0.00    +0.000 HD
ENDROOT
BRANCH   3   5
ATOM      5  C   UNL     1      -2.370  10.654  18.004  0.00  0.00    +0.000 A 
ATOM      6  C   UNL     1      -2.199  10.336  16.649  0.00  0.00    +0.000 A 
ATOM      7  C   UNL     1      -3.241  10.514  15.735  0.00  0.00    +0.000 A 
ATOM      8  C   UNL     1      -4.438  11.089  16.148  0.00  0.00    +0.000 A 
ATOM      9  C   UNL     1      -4.592  11.460  17.487  0.00  0.00    +0.000 A 
ATOM     10  C   UNL     1      -3.574  11.224  18.429  0.00  0.00    +0.000 A 
BRANCH   9  11
ATOM     11  S   UNL     1      -6.035  12.387  17.935  0.00  0.00    +0.000 S 
ATOM     12  O   UNL     1      -5.747  13.122  19.151  0.00  0.00    +0.000 OA
ATOM     13  O   UNL     1      -6.570  13.022  16.753  0.00  0.00    +0.000 OA
BRANCH  11  14
ATOM     14  N   UNL     1      -7.122  11.187  18.361  0.00  0.00    +0.000 NA
ATOM     15  H   UNL     1      -7.706  11.511  19.134  0.00  0.00    +0.000 HD
ATOM     16  H   UNL     1      -7.665  10.907  17.543  0.00  0.00    +0.000 HD
ENDBRANCH  11  14
ENDBRANCH   9  11
ENDBRANCH   3   5
BRANCH   1  17
ATOM     17  C   UNL     1       0.792  10.950  20.092  0.00  0.00    +0.000 C 
BRANCH  17  25
ATOM     18  C   UNL     1       0.051   9.244  22.353  0.00  0.00    +0.000 C 
ATOM     19  C   UNL     1       0.795   8.699  21.162  0.00  0.00    +0.000 A 
ATOM     20  C   UNL     1       1.196   7.343  21.195  0.00  0.00    +0.000 A 
ATOM     21  C   UNL     1       1.896   6.746  20.149  0.00  0.00    +0.000 A 
ATOM     22  C   UNL     1       2.159   7.571  19.061  0.00  0.00    +0.000 A 
ATOM     23  C   UNL     1       1.766   8.920  19.015  0.00  0.00    +0.000 A 
ATOM     24  C   UNL     1       2.176   9.697  17.790  0.00  0.00    +0.000 C 
ATOM     25  N   UNL     1       1.111   9.483  20.080  0.00  0.00    +0.000 N 
BRANCH  21  26
ATOM     26  C   UNL     1       2.335   5.328  20.166  0.00  0.00    +0.000 A 
ATOM     27  C   UNL     1       3.540   4.914  19.571  0.00  0.00    +0.000 A 
ATOM     28  C   UNL     1       3.959   3.579  19.617  0.00  0.00    +0.000 A 
ATOM     29  C   UNL     1       3.187   2.623  20.269  0.00  0.00    +0.000 A 
ATOM     30  C   UNL     1       1.993   3.000  20.869  0.00  0.00    +0.000 A 
ATOM     31  C   UNL     1       1.570   4.331  20.808  0.00  0.00    +0.000 A 
ENDBRANCH  21  26
ENDBRANCH  17  25
ENDBRANCH   1  17
TORSDOF 6
ENDMDL
MODEL 8
REMARK VINA RESULT:      -8.0      4.792      7.295
REMARK  Name = 
REMARK  8 active torsions:
REMARK  status: ('A' for Active; 'I' for Inactive)
REMARK    1  A    between atoms: C_1  and  C_2
REMARK    2  A    between atoms: C_4  and  C_5
REMARK    3  A    between atoms: C_12  and  C_13
REMARK    4  A    between atoms: N_14  and  C_15
REMARK    5  A    between atoms: C_15  and  C_16
REMARK    6  A    between atoms: N_18  and  C_19
REMARK    7  A    between atoms: C_23  and  S_24
REMARK    8  A    between atoms: S_24  and  N_25
REMARK                            x       y       z     vdW  Elec       q    Type
REMARK                         _______ _______ _______ _____ _____    ______ ____
ROOT
ATOM      1  C   UNL     1      -0.261  11.423  19.109  0.00  0.00    +0.000 C 
ATOM      2  O   UNL     1      -0.230  12.541  18.603  0.00  0.00    +0.000 OA
ATOM      3  N   UNL     1      -1.253  10.471  18.880  0.00  0.00    +0.000 N 
ATOM      4  H   UNL     1      -1.424   9.781  19.605  0.00  0.00    +0.000 HD
ENDROOT
BRANCH   3   5
ATOM      5  C   UNL     1      -2.363  10.691  18.024  0.00  0.00    +0.000 A 
ATOM      6  C   UNL     1      -2.159  10.543  16.646  0.00  0.00    +0.000 A 
ATOM      7  C   UNL     1      -3.207  10.737  15.742  0.00  0.00    +0.000 A 
ATOM      8  C   UNL     1      -4.449  11.162  16.198  0.00  0.00    +0.000 A 
ATOM      9  C   UNL     1      -4.641  11.366  17.568  0.00  0.00    +0.000 A 
ATOM     10  C   UNL     1      -3.613  11.109  18.493  0.00  0.00    +0.000 A 
BRANCH   9  11
ATOM     11  S   UNL     1      -6.159  12.117  18.095  0.00  0.00    +0.000 S 
ATOM     12  O   UNL     1      -7.071  11.066  18.502  0.00  0.00    +0.000 OA
ATOM     13  O   UNL     1      -5.853  13.249  18.937  0.00  0.00    +0.000 OA
BRANCH  11  14
ATOM     14  N   UNL     1      -6.772  12.740  16.668  0.00  0.00    +0.000 NA
ATOM     15  H   UNL     1      -7.206  11.993  16.124  0.00  0.00    +0.000 HD
ATOM     16  H   UNL     1      -7.416  13.506  16.875  0.00  0.00    +0.000 HD
ENDBRANCH  11  14
ENDBRANCH   9  11
ENDBRANCH   3   5
BRANCH   1  17
ATOM     17  C   UNL     1       0.810  10.978  20.097  0.00  0.00    +0.000 C 
BRANCH  17  25
ATOM     18  C   UNL     1       0.056   9.303  22.377  0.00  0.00    +0.000 C 
ATOM     19  C   UNL     1       0.780   8.735  21.183  0.00  0.00    +0.000 A 
ATOM     20  C   UNL     1       1.156   7.373  21.224  0.00  0.00    +0.000 A 
ATOM     21  C   UNL     1       1.835   6.755  20.176  0.00  0.00    +0.000 A 
ATOM     22  C   UNL     1       2.104   7.566  19.079  0.00  0.00    +0.000 A 
ATOM     23  C   UNL     1       1.737   8.923  19.027  0.00  0.00    +0.000 A 
ATOM     24  C   UNL     1       2.150   9.683  17.792  0.00  0.00    +0.000 C 
ATOM     25  N   UNL     1       1.102   9.505  20.093  0.00  0.00    +0.000 N 
BRANCH  21  26
ATOM     26  C   UNL     1       2.248   5.329  20.200  0.00  0.00    +0.000 A 
ATOM     27  C   UNL     1       1.417   4.321  20.721  0.00  0.00    +0.000 A 
ATOM     28  C   UNL     1       1.805   2.976  20.712  0.00  0.00    +0.000 A 
ATOM     29  C   UNL     1       3.032   2.601  20.173  0.00  0.00    +0.000 A 
ATOM     30  C   UNL     1       3.874   3.572  19.649  0.00  0.00    +0.000 A 
ATOM     31  C   UNL     1       3.491   4.917  19.672  0.00  0.00    +0.000 A 
ENDBRANCH  21  26
ENDBRANCH  17  25
ENDBRANCH   1  17
TORSDOF 6
ENDMDL
MODEL 9
REMARK VINA RESULT:      -8.0      1.674      2.848
REMARK  Name = 
REMARK  8 active torsions:
REMARK  status: ('A' for Active; 'I' for Inactive)
REMARK    1  A    between atoms: C_1  and  C_2
REMARK    2  A    between atoms: C_4  and  C_5
REMARK    3  A    between atoms: C_12  and  C_13
REMARK    4  A    between atoms: N_14  and  C_15
REMARK    5  A    between atoms: C_15  and  C_16
REMARK    6  A    between atoms: N_18  and  C_19
REMARK    7  A    between atoms: C_23  and  S_24
REMARK    8  A    between atoms: S_24  and  N_25
REMARK                            x       y       z     vdW  Elec       q    Type
REMARK                         _______ _______ _______ _____ _____    ______ ____
ROOT
ATOM      1  C   UNL     1       2.389   5.132  20.106  0.00  0.00    +0.000 C 
ATOM      2  O   UNL     1       1.241   4.717  20.225  0.00  0.00    +0.000 OA
ATOM      3  N   UNL     1       2.764   6.474  20.180  0.00  0.00    +0.000 N 
ATOM      4  H   UNL     1       3.605   6.758  19.687  0.00  0.00    +0.000 HD
ENDROOT
BRANCH   3   5
ATOM      5  C   UNL     1       1.842   7.530  20.400  0.00  0.00    +0.000 A 
ATOM      6  C   UNL     1       1.026   7.452  21.536  0.00  0.00    +0.000 A 
ATOM      7  C   UNL     1       0.099   8.458  21.822  0.00  0.00    +0.000 A 
ATOM      8  C   UNL     1      -0.081   9.511  20.933  0.00  0.00    +0.000 A 
ATOM      9  C   UNL     1       0.692   9.563  19.770  0.00  0.00    +0.000 A 
ATOM     10  C   UNL     1       1.675   8.591  19.505  0.00  0.00    +0.000 A 
BRANCH   9  11
ATOM     11  S   UNL     1       0.289  10.789  18.554  0.00  0.00    +0.000 S 
ATOM     12  O   UNL     1      -0.559  10.176  17.550  0.00  0.00    +0.000 OA
ATOM     13  O   UNL     1      -0.067  12.016  19.226  0.00  0.00    +0.000 OA
BRANCH  11  14
ATOM     14  N   UNL     1       1.764  11.066  17.813  0.00  0.00    +0.000 NA
ATOM     15  H   UNL     1       2.352  10.235  17.895  0.00  0.00    +0.000 HD
ATOM     16  H   UNL     1       1.615  11.352  16.843  0.00  0.00    +0.000 HD
ENDBRANCH  11  14
ENDBRANCH   9  11
ENDBRANCH   3   5
BRANCH   1  17
ATOM     17  C   UNL     1       3.544   4.181  19.822  0.00  0.00    +0.000 C 
BRANCH  17  25
ATOM     18  C   UNL     1       2.152   3.028  17.518  0.00  0.00    +0.000 C 
ATOM     19  C   UNL     1       3.488   3.711  17.375  0.00  0.00    +0.000 A 
ATOM     20  C   UNL     1       4.095   3.716  16.098  0.00  0.00    +0.000 A 
ATOM     21  C   UNL     1       5.331   4.313  15.862  0.00  0.00    +0.000 A 
ATOM     22  C   UNL     1       5.922   4.918  16.966  0.00  0.00    +0.000 A 
ATOM     23  C   UNL     1       5.330   4.918  18.242  0.00  0.00    +0.000 A 
ATOM     24  C   UNL     1       6.122   5.566  19.349  0.00  0.00    +0.000 C 
ATOM     25  N   UNL     1       4.129   4.289  18.443  0.00  0.00    +0.000 N 
BRANCH  21  26
ATOM     26  C   UNL     1       5.992   4.323  14.532  0.00  0.00    +0.000 A 
ATOM     27  C   UNL     1       7.147   5.087  14.280  0.00  0.00    +0.000 A 
ATOM     28  C   UNL     1       7.778   5.067  13.030  0.00  0.00    +0.000 A 
ATOM     29  C   UNL     1       7.277   4.275  12.002  0.00  0.00    +0.000 A 
ATOM     30  C   UNL     1       6.140   3.509  12.220  0.00  0.00    +0.000 A 
ATOM     31  C   UNL     1       5.503   3.542  13.464  0.00  0.00    +0.000 A 
ENDBRANCH  21  26
ENDBRANCH  17  25
ENDBRANCH   1  17
TORSDOF 6
ENDMDL
