MODEL 1
REMARK VINA RESULT:      -8.2      0.000      0.000
REMARK  Name = 
REMARK  6 active torsions:
REMARK  status: ('A' for Active; 'I' for Inactive)
REMARK    1  A    between atoms: N_1  and  CA_2
REMARK    2  A    between atoms: CA_2  and  CB_3
REMARK    3  A    between atoms: CA_2  and  C_13
REMARK    4  A    between atoms: CB_3  and  CG_4
REMARK    5  A    between atoms: CA_19  and  C_20
REMARK    6  A    between atoms: C_20  and  OXT_22
REMARK                            x       y       z     vdW  Elec       q    Type
REMARK                         _______ _______ _______ _____ _____    ______ ____
ROOT
ATOM      1  CA  TRP A   1       5.277   4.486  18.138  0.00  0.00    +0.000 C 
ENDROOT
BRANCH   1   2
ATOM      2  C   TRP A   1       4.213   3.984  19.153  0.00  0.00    +0.000 C 
ATOM      3  O   TRP A   1       4.332   2.913  19.760  0.00  0.00    +0.000 OA
ATOM      4  N   PRO A   2       3.127   4.797  19.423  0.00  0.00    +0.000 N 
ATOM      5  CD  PRO A   2       2.800   6.057  18.778  0.00  0.00    +0.000 C 
ATOM      6  CG  PRO A   2       2.232   6.898  19.904  0.00  0.00    +0.000 C 
ATOM      7  CB  PRO A   2       1.483   5.890  20.768  0.00  0.00    +0.000 C 
ATOM      8  CA  PRO A   2       2.216   4.553  20.553  0.00  0.00    +0.000 C 
BRANCH   8   9
ATOM      9  C   PRO A   2       1.232   3.398  20.281  0.00  0.00    +0.000 C 
ATOM     10  O   PRO A   2       0.772   3.111  19.185  0.00  0.00    +0.000 OA
BRANCH   9  11
ATOM     11  OXT PRO A   2       0.843   2.747  21.402  0.00  0.00    +0.000 OA
ATOM     12  HXT PRO A   2       0.670   1.787  21.240  0.00  0.00    +0.000 HD
ENDBRANCH   9  11
ENDBRANCH   8   9
ENDBRANCH   1   2
BRANCH   1  13
ATOM     13  N   TRP A   1       6.610   4.101  18.669  0.00  0.00    +0.000 NA
ATOM     14  H1  TRP A   1       6.617   3.085  18.794  0.00  0.00    +0.000 HD
ATOM     15  H2  TRP A   1       6.699   4.483  19.612  0.00  0.00    +0.000 HD
ENDBRANCH   1  13
BRANCH   1  16
ATOM     16  CB  TRP A   1       5.041   3.917  16.720  0.00  0.00    +0.000 C 
BRANCH  16  17
ATOM     17  CG  TRP A   1       6.023   4.448  15.701  0.00  0.00    +0.000 A 
ATOM     18  CD1 TRP A   1       7.041   5.347  15.960  0.00  0.00    +0.000 A 
ATOM     19  NE1 TRP A   1       7.730   5.576  14.799  0.00  0.00    +0.000 N 
ATOM     20  CE2 TRP A   1       7.189   4.841  13.773  0.00  0.00    +0.000 A 
ATOM     21  CZ2 TRP A   1       7.575   4.760  12.427  0.00  0.00    +0.000 A 
ATOM     22  CH2 TRP A   1       6.836   3.924  11.588  0.00  0.00    +0.000 A 
ATOM     23  CZ3 TRP A   1       5.750   3.204  12.075  0.00  0.00    +0.000 A 
ATOM     24  CE3 TRP A   1       5.373   3.301  13.425  0.00  0.00    +0.000 A 
ATOM     25  CD2 TRP A   1       6.104   4.134  14.298  0.00  0.00    +0.000 A 
ATOM     26  HE1 TRP A   1       8.524   6.194  14.702  0.00  0.00    +0.000 HD
ENDBRANCH  16  17
ENDBRANCH   1  16
TORSDOF 6
ENDMDL
MODEL 2
REMARK VINA RESULT:      -7.9      3.182      7.496
REMARK  Name = 
REMARK  6 active torsions:
REMARK  status: ('A' for Active; 'I' for Inactive)
REMARK    1  A    between atoms: N_1  and  CA_2
REMARK    2  A    between atoms: CA_2  and  CB_3
REMARK    3  A    between atoms: CA_2  and  C_13
REMARK    4  A    between atoms: CB_3  and  CG_4
REMARK    5  A    between atoms: CA_19  and  C_20
REMARK    6  A    between atoms: C_20  and  OXT_22
REMARK                            x       y       z     vdW  Elec       q    Type
REMARK                         _______ _______ _______ _____ _____    ______ ____
ROOT
ATOM      1  CA  TRP A   1       5.532   4.204  16.384  0.00  0.00    +0.000 C 
ENDROOT
BRANCH   1   2
ATOM      2  C   TRP A   1       6.677   4.465  15.366  0.00  0.00    +0.000 C 
ATOM      3  O   TRP A   1       7.822   4.763  15.723  0.00  0.00    +0.000 OA
ATOM      4  N   PRO A   2       6.409   4.300  14.020  0.00  0.00    +0.000 N 
ATOM      5  CD  PRO A   2       5.121   4.000  13.418  0.00  0.00    +0.000 C 
ATOM      6  CG  PRO A   2       5.470   3.073  12.270  0.00  0.00    +0.000 C 
ATOM      7  CB  PRO A   2       6.810   3.601  11.771  0.00  0.00    +0.000 C 
ATOM      8  CA  PRO A   2       7.470   4.251  13.001  0.00  0.00    +0.000 C 
BRANCH   8   9
ATOM      9  C   PRO A   2       8.042   5.644  12.675  0.00  0.00    +0.000 C 
ATOM     10  O   PRO A   2       7.672   6.357  11.753  0.00  0.00    +0.000 OA
BRANCH   9  11
ATOM     11  OXT PRO A   2       9.077   6.001  13.471  0.00  0.00    +0.000 OA
ATOM     12  HXT PRO A   2       9.937   6.021  12.985  0.00  0.00    +0.000 HD
ENDBRANCH   9  11
ENDBRANCH   8   9
ENDBRANCH   1   2
BRANCH   1  13
ATOM     13  N   TRP A   1       6.166   3.862  17.683  0.00  0.00    +0.000 NA
ATOM     14  H1  TRP A   1       7.181   3.880  17.553  0.00  0.00    +0.000 HD
ATOM     15  H2  TRP A   1       5.946   2.888  17.899  0.00  0.00    +0.000 HD
ENDBRANCH   1  13
BRANCH   1  16
ATOM     16  CB  TRP A   1       4.582   5.417  16.514  0.00  0.00    +0.000 C 
BRANCH  16  17
ATOM     17  CG  TRP A   1       3.818   5.431  17.818  0.00  0.00    +0.000 A 
ATOM     18  CD1 TRP A   1       3.947   6.383  18.814  0.00  0.00    +0.000 A 
ATOM     19  NE1 TRP A   1       3.083   6.074  19.830  0.00  0.00    +0.000 N 
ATOM     20  CE2 TRP A   1       2.378   4.935  19.525  0.00  0.00    +0.000 A 
ATOM     21  CZ2 TRP A   1       1.392   4.267  20.263  0.00  0.00    +0.000 A 
ATOM     22  CH2 TRP A   1       0.835   3.112  19.709  0.00  0.00    +0.000 A 
ATOM     23  CZ3 TRP A   1       1.255   2.643  18.468  0.00  0.00    +0.000 A 
ATOM     24  CE3 TRP A   1       2.250   3.321  17.745  0.00  0.00    +0.000 A 
ATOM     25  CD2 TRP A   1       2.826   4.494  18.277  0.00  0.00    +0.000 A 
ATOM     26  HE1 TRP A   1       2.971   6.603  20.684  0.00  0.00    +0.000 HD
ENDBRANCH  16  17
ENDBRANCH   1  16
TORSDOF 6
ENDMDL
MODEL 3
REMARK VINA RESULT:      -7.9      1.368      1.982
REMARK  Name = 
REMARK  6 active torsions:
REMARK  status: ('A' for Active; 'I' for Inactive)
REMARK    1  A    between atoms: N_1  and  CA_2
REMARK    2  A    between atoms: CA_2  and  CB_3
REMARK    3  A    between atoms: CA_2  and  C_13
REMARK    4  A    between atoms: CB_3  and  CG_4
REMARK    5  A    between atoms: CA_19  and  C_20
REMARK    6  A    between atoms: C_20  and  OXT_22
REMARK                            x       y       z     vdW  Elec       q    Type
REMARK                         _______ _______ _______ _____ _____    ______ ____
ROOT
ATOM      1  CA  TRP A   1       5.258   4.881  18.032  0.00  0.00    +0.000 C 
ENDROOT
BRANCH   1   2
ATOM      2  C   TRP A   1       4.040   4.926  18.996  0.00  0.00    +0.000 C 
ATOM      3  O   TRP A   1       3.734   5.945  19.626  0.00  0.00    +0.000 OA
ATOM      4  N   PRO A   2       3.245   3.800  19.103  0.00  0.00    +0.000 N 
ATOM      5  CD  PRO A   2       3.475   2.509  18.480  0.00  0.00    +0.000 C 
ATOM      6  CG  PRO A   2       2.081   2.033  18.118  0.00  0.00    +0.000 C 
ATOM      7  CB  PRO A   2       1.213   2.554  19.257  0.00  0.00    +0.000 C 
ATOM      8  CA  PRO A   2       1.929   3.819  19.764  0.00  0.00    +0.000 C 
BRANCH   8   9
ATOM      9  C   PRO A   2       2.039   3.839  21.300  0.00  0.00    +0.000 C 
ATOM     10  O   PRO A   2       1.848   2.877  22.031  0.00  0.00    +0.000 OA
BRANCH   9  11
ATOM     11  OXT PRO A   2       2.300   5.067  21.806  0.00  0.00    +0.000 OA
ATOM     12  HXT PRO A   2       3.208   5.385  21.574  0.00  0.00    +0.000 HD
ENDBRANCH   9  11
ENDBRANCH   8   9
ENDBRANCH   1   2
BRANCH   1  13
ATOM     13  N   TRP A   1       6.248   3.939  18.615  0.00  0.00    +0.000 NA
ATOM     14  H1  TRP A   1       7.045   3.884  17.975  0.00  0.00    +0.000 HD
ATOM     15  H2  TRP A   1       5.839   3.003  18.607  0.00  0.00    +0.000 HD
ENDBRANCH   1  13
BRANCH   1  16
ATOM     16  CB  TRP A   1       4.851   4.467  16.599  0.00  0.00    +0.000 C 
BRANCH  16  17
ATOM     17  CG  TRP A   1       5.921   4.759  15.574  0.00  0.00    +0.000 A 
ATOM     18  CD1 TRP A   1       7.050   5.530  15.788  0.00  0.00    +0.000 A 
ATOM     19  NE1 TRP A   1       7.792   5.552  14.638  0.00  0.00    +0.000 N 
ATOM     20  CE2 TRP A   1       7.177   4.805  13.662  0.00  0.00    +0.000 A 
ATOM     21  CZ2 TRP A   1       7.580   4.545  12.345  0.00  0.00    +0.000 A 
ATOM     22  CH2 TRP A   1       6.751   3.744  11.557  0.00  0.00    +0.000 A 
ATOM     23  CZ3 TRP A   1       5.564   3.229  12.067  0.00  0.00    +0.000 A 
ATOM     24  CE3 TRP A   1       5.171   3.504  13.387  0.00  0.00    +0.000 A 
ATOM     25  CD2 TRP A   1       5.992   4.307  14.209  0.00  0.00    +0.000 A 
ATOM     26  HE1 TRP A   1       8.667   6.042  14.515  0.00  0.00    +0.000 HD
ENDBRANCH  16  17
ENDBRANCH   1  16
TORSDOF 6
ENDMDL
MODEL 4
REMARK VINA RESULT:      -7.8      2.747      7.377
REMARK  Name = 
REMARK  6 active torsions:
REMARK  status: ('A' for Active; 'I' for Inactive)
REMARK    1  A    between atoms: N_1  and  CA_2
REMARK    2  A    between atoms: CA_2  and  CB_3
REMARK    3  A    between atoms: CA_2  and  C_13
REMARK    4  A    between atoms: CB_3  and  CG_4
REMARK    5  A    between atoms: CA_19  and  C_20
REMARK    6  A    between atoms: C_20  and  OXT_22
REMARK                            x       y       z     vdW  Elec       q    Type
REMARK                         _______ _______ _______ _____ _____    ______ ____
ROOT
ATOM      1  CA  TRP A   1       3.510   4.608  19.068  0.00  0.00    +0.000 C 
ENDROOT
BRANCH   1   2
ATOM      2  C   TRP A   1       5.009   4.995  18.929  0.00  0.00    +0.000 C 
ATOM      3  O   TRP A   1       5.726   5.222  19.910  0.00  0.00    +0.000 OA
ATOM      4  N   PRO A   2       5.564   5.028  17.663  0.00  0.00    +0.000 N 
ATOM      5  CD  PRO A   2       4.870   4.837  16.401  0.00  0.00    +0.000 C 
ATOM      6  CG  PRO A   2       5.871   4.078  15.553  0.00  0.00    +0.000 C 
ATOM      7  CB  PRO A   2       7.217   4.653  15.979  0.00  0.00    +0.000 C 
ATOM      8  CA  PRO A   2       7.016   5.110  17.436  0.00  0.00    +0.000 C 
BRANCH   8   9
ATOM      9  C   PRO A   2       7.573   6.527  17.674  0.00  0.00    +0.000 C 
ATOM     10  O   PRO A   2       7.549   7.437  16.857  0.00  0.00    +0.000 OA
BRANCH   9  11
ATOM     11  OXT PRO A   2       8.181   6.672  18.874  0.00  0.00    +0.000 OA
ATOM     12  HXT PRO A   2       8.880   7.372  18.861  0.00  0.00    +0.000 HD
ENDBRANCH   9  11
ENDBRANCH   8   9
ENDBRANCH   1   2
BRANCH   1  13
ATOM     13  N   TRP A   1       3.459   3.192  19.515  0.00  0.00    +0.000 NA
ATOM     14  H1  TRP A   1       4.049   3.104  20.347  0.00  0.00    +0.000 HD
ATOM     15  H2  TRP A   1       3.918   2.617  18.806  0.00  0.00    +0.000 HD
ENDBRANCH   1  13
BRANCH   1  16
ATOM     16  CB  TRP A   1       2.757   5.542  20.042  0.00  0.00    +0.000 C 
BRANCH  16  17
ATOM     17  CG  TRP A   1       2.381   6.866  19.419  0.00  0.00    +0.000 A 
ATOM     18  CD1 TRP A   1       2.635   7.238  18.110  0.00  0.00    +0.000 A 
ATOM     19  NE1 TRP A   1       2.133   8.495  17.907  0.00  0.00    +0.000 N 
ATOM     20  CE2 TRP A   1       1.548   8.965  19.057  0.00  0.00    +0.000 A 
ATOM     21  CZ2 TRP A   1       0.907  10.188  19.302  0.00  0.00    +0.000 A 
ATOM     22  CH2 TRP A   1       0.397  10.410  20.583  0.00  0.00    +0.000 A 
ATOM     23  CZ3 TRP A   1       0.529   9.448  21.579  0.00  0.00    +0.000 A 
ATOM     24  CE3 TRP A   1       1.179   8.231  21.319  0.00  0.00    +0.000 A 
ATOM     25  CD2 TRP A   1       1.700   7.976  20.032  0.00  0.00    +0.000 A 
ATOM     26  HE1 TRP A   1       2.181   9.011  17.039  0.00  0.00    +0.000 HD
ENDBRANCH  16  17
ENDBRANCH   1  16
TORSDOF 6
ENDMDL
MODEL 5
REMARK VINA RESULT:      -7.8      2.283      6.435
REMARK  Name = 
REMARK  6 active torsions:
REMARK  status: ('A' for Active; 'I' for Inactive)
REMARK    1  A    between atoms: N_1  and  CA_2
REMARK    2  A    between atoms: CA_2  and  CB_3
REMARK    3  A    between atoms: CA_2  and  C_13
REMARK    4  A    between atoms: CB_3  and  CG_4
REMARK    5  A    between atoms: CA_19  and  C_20
REMARK    6  A    between atoms: C_20  and  OXT_22
REMARK                            x       y       z     vdW  Elec       q    Type
REMARK                         _______ _______ _______ _____ _____    ______ ____
ROOT
ATOM      1  CA  TRP A   1       3.642   2.009  17.685  0.00  0.00    +0.000 C 
ENDROOT
BRANCH   1   2
ATOM      2  C   TRP A   1       4.712   3.041  18.140  0.00  0.00    +0.000 C 
ATOM      3  O   TRP A   1       5.078   3.136  19.317  0.00  0.00    +0.000 OA
ATOM      4  N   PRO A   2       5.308   3.835  17.178  0.00  0.00    +0.000 N 
ATOM      5  CD  PRO A   2       4.975   3.893  15.766  0.00  0.00    +0.000 C 
ATOM      6  CG  PRO A   2       6.318   4.084  15.089  0.00  0.00    +0.000 C 
ATOM      7  CB  PRO A   2       7.093   4.965  16.062  0.00  0.00    +0.000 C 
ATOM      8  CA  PRO A   2       6.511   4.640  17.450  0.00  0.00    +0.000 C 
BRANCH   8   9
ATOM      9  C   PRO A   2       6.199   5.917  18.254  0.00  0.00    +0.000 C 
ATOM     10  O   PRO A   2       5.968   7.014  17.767  0.00  0.00    +0.000 OA
BRANCH   9  11
ATOM     11  OXT PRO A   2       6.277   5.742  19.594  0.00  0.00    +0.000 OA
ATOM     12  HXT PRO A   2       7.078   5.229  19.861  0.00  0.00    +0.000 HD
ENDBRANCH   9  11
ENDBRANCH   8   9
ENDBRANCH   1   2
BRANCH   1  13
ATOM     13  N   TRP A   1       3.729   0.848  18.608  0.00  0.00    +0.000 NA
ATOM     14  H1  TRP A   1       2.777   0.595  18.887  0.00  0.00    +0.000 HD
ATOM     15  H2  TRP A   1       4.182   1.158  19.469  0.00  0.00    +0.000 HD
ENDBRANCH   1  13
BRANCH   1  16
ATOM     16  CB  TRP A   1       2.220   2.616  17.664  0.00  0.00    +0.000 C 
BRANCH  16  17
ATOM     17  CG  TRP A   1       1.934   3.491  18.862  0.00  0.00    +0.000 A 
ATOM     18  CD1 TRP A   1       1.498   3.045  20.097  0.00  0.00    +0.000 A 
ATOM     19  NE1 TRP A   1       1.368   4.121  20.932  0.00  0.00    +0.000 N 
ATOM     20  CE2 TRP A   1       1.713   5.277  20.274  0.00  0.00    +0.000 A 
ATOM     21  CZ2 TRP A   1       1.737   6.600  20.738  0.00  0.00    +0.000 A 
ATOM     22  CH2 TRP A   1       2.131   7.596  19.843  0.00  0.00    +0.000 A 
ATOM     23  CZ3 TRP A   1       2.482   7.281  18.535  0.00  0.00    +0.000 A 
ATOM     24  CE3 TRP A   1       2.447   5.951  18.084  0.00  0.00    +0.000 A 
ATOM     25  CD2 TRP A   1       2.057   4.921  18.967  0.00  0.00    +0.000 A 
ATOM     26  HE1 TRP A   1       1.064   4.081  21.895  0.00  0.00    +0.000 HD
ENDBRANCH  16  17
ENDBRANCH   1  16
TORSDOF 6
ENDMDL
MODEL 6
REMARK VINA RESULT:      -7.8      2.425      6.616
REMARK  Name = 
REMARK  6 active torsions:
REMARK  status: ('A' for Active; 'I' for Inactive)
REMARK    1  A    between atoms: N_1  and  CA_2
REMARK    2  A    between atoms: CA_2  and  CB_3
REMARK    3  A    between atoms: CA_2  and  C_13
REMARK    4  A    between atoms: CB_3  and  CG_4
REMARK    5  A    between atoms: CA_19  and  C_20
REMARK    6  A    between atoms: C_20  and  OXT_22
REMARK                            x       y       z     vdW  Elec       q    Type
REMARK                         _______ _______ _______ _____ _____    ______ ____
ROOT
ATOM      1  CA  TRP A   1       4.390   2.861  18.491  0.00  0.00    +0.000 C 
ENDROOT
BRANCH   1   2
ATOM      2  C   TRP A   1       5.422   4.007  18.296  0.00  0.00    +0.000 C 
ATOM      3  O   TRP A   1       6.018   4.527  19.246  0.00  0.00    +0.000 OA
ATOM      4  N   PRO A   2       5.717   4.413  17.007  0.00  0.00    +0.000 N 
ATOM      5  CD  PRO A   2       5.088   3.952  15.782  0.00  0.00    +0.000 C 
ATOM      6  CG  PRO A   2       6.230   3.911  14.787  0.00  0.00    +0.000 C 
ATOM      7  CB  PRO A   2       7.101   5.098  15.184  0.00  0.00    +0.000 C 
ATOM      8  CA  PRO A   2       6.863   5.283  16.694  0.00  0.00    +0.000 C 
BRANCH   8   9
ATOM      9  C   PRO A   2       6.600   6.758  17.055  0.00  0.00    +0.000 C 
ATOM     10  O   PRO A   2       5.499   7.244  17.267  0.00  0.00    +0.000 OA
BRANCH   9  11
ATOM     11  OXT PRO A   2       7.718   7.522  17.046  0.00  0.00    +0.000 OA
ATOM     12  HXT PRO A   2       7.586   8.378  16.570  0.00  0.00    +0.000 HD
ENDBRANCH   9  11
ENDBRANCH   8   9
ENDBRANCH   1   2
BRANCH   1  13
ATOM     13  N   TRP A   1       4.640   2.266  19.829  0.00  0.00    +0.000 NA
ATOM     14  H1  TRP A   1       4.996   3.005  20.441  0.00  0.00    +0.000 HD
ATOM     15  H2  TRP A   1       5.410   1.601  19.743  0.00  0.00    +0.000 HD
ENDBRANCH   1  13
BRANCH   1  16
ATOM     16  CB  TRP A   1       2.934   3.360  18.350  0.00  0.00    +0.000 C 
BRANCH  16  17
ATOM     17  CG  TRP A   1       2.595   4.473  19.313  0.00  0.00    +0.000 A 
ATOM     18  CD1 TRP A   1       2.462   4.337  20.683  0.00  0.00    +0.000 A 
ATOM     19  NE1 TRP A   1       2.170   5.562  21.220  0.00  0.00    +0.000 N 
ATOM     20  CE2 TRP A   1       2.111   6.513  20.230  0.00  0.00    +0.000 A 
ATOM     21  CZ2 TRP A   1       1.853   7.887  20.321  0.00  0.00    +0.000 A 
ATOM     22  CH2 TRP A   1       1.850   8.629  19.138  0.00  0.00    +0.000 A 
ATOM     23  CZ3 TRP A   1       2.091   8.016  17.912  0.00  0.00    +0.000 A 
ATOM     24  CE3 TRP A   1       2.341   6.636  17.838  0.00  0.00    +0.000 A 
ATOM     25  CD2 TRP A   1       2.356   5.862  19.018  0.00  0.00    +0.000 A 
ATOM     26  HE1 TRP A   1       2.020   5.750  22.202  0.00  0.00    +0.000 HD
ENDBRANCH  16  17
ENDBRANCH   1  16
TORSDOF 6
ENDMDL
MODEL 7
REMARK VINA RESULT:      -7.8      3.272      6.713
REMARK  Name = 
REMARK  6 active torsions:
REMARK  status: ('A' for Active; 'I' for Inactive)
REMARK    1  A    between atoms: N_1  and  CA_2
REMARK    2  A    between atoms: CA_2  and  CB_3
REMARK    3  A    between atoms: CA_2  and  C_13
REMARK    4  A    between atoms: CB_3  and  CG_4
REMARK    5  A    between atoms: CA_19  and  C_20
REMARK    6  A    between atoms: C_20  and  OXT_22
REMARK                            x       y       z     vdW  Elec       q    Type
REMARK                         _______ _______ _______ _____ _____    ______ ____
ROOT
ATOM      1  CA  TRP A   1       3.270   6.943  18.037  0.00  0.00    +0.000 C 
ENDROOT
BRANCH   1   2
ATOM      2  C   TRP A   1       4.534   6.653  17.181  0.00  0.00    +0.000 C 
ATOM      3  O   TRP A   1       4.668   7.088  16.032  0.00  0.00    +0.000 OA
ATOM      4  N   PRO A   2       5.564   5.930  17.755  0.00  0.00    +0.000 N 
ATOM      5  CD  PRO A   2       5.565   5.305  19.066  0.00  0.00    +0.000 C 
ATOM      6  CG  PRO A   2       6.987   5.498  19.553  0.00  0.00    +0.000 C 
ATOM      7  CB  PRO A   2       7.825   5.372  18.286  0.00  0.00    +0.000 C 
ATOM      8  CA  PRO A   2       6.900   5.833  17.145  0.00  0.00    +0.000 C 
BRANCH   8   9
ATOM      9  C   PRO A   2       6.936   4.860  15.951  0.00  0.00    +0.000 C 
ATOM     10  O   PRO A   2       7.439   5.102  14.862  0.00  0.00    +0.000 OA
BRANCH   9  11
ATOM     11  OXT PRO A   2       6.277   3.700  16.181  0.00  0.00    +0.000 OA
ATOM     12  HXT PRO A   2       6.715   2.926  15.750  0.00  0.00    +0.000 HD
ENDBRANCH   9  11
ENDBRANCH   8   9
ENDBRANCH   1   2
BRANCH   1  13
ATOM     13  N   TRP A   1       2.988   8.398  17.928  0.00  0.00    +0.000 NA
ATOM     14  H1  TRP A   1       3.648   8.892  18.534  0.00  0.00    +0.000 HD
ATOM     15  H2  TRP A   1       2.069   8.576  18.339  0.00  0.00    +0.000 HD
ENDBRANCH   1  13
BRANCH   1  16
ATOM     16  CB  TRP A   1       2.058   6.092  17.591  0.00  0.00    +0.000 C 
BRANCH  16  17
ATOM     17  CG  TRP A   1       2.173   4.643  18.002  0.00  0.00    +0.000 A 
ATOM     18  CD1 TRP A   1       2.364   3.577  17.141  0.00  0.00    +0.000 A 
ATOM     19  NE1 TRP A   1       2.436   2.425  17.878  0.00  0.00    +0.000 N 
ATOM     20  CE2 TRP A   1       2.300   2.707  19.215  0.00  0.00    +0.000 A 
ATOM     21  CZ2 TRP A   1       2.320   1.845  20.320  0.00  0.00    +0.000 A 
ATOM     22  CH2 TRP A   1       2.152   2.407  21.588  0.00  0.00    +0.000 A 
ATOM     23  CZ3 TRP A   1       1.967   3.777  21.741  0.00  0.00    +0.000 A 
ATOM     24  CE3 TRP A   1       1.944   4.627  20.622  0.00  0.00    +0.000 A 
ATOM     25  CD2 TRP A   1       2.116   4.088  19.329  0.00  0.00    +0.000 A 
ATOM     26  HE1 TRP A   1       2.572   1.497  17.501  0.00  0.00    +0.000 HD
ENDBRANCH  16  17
ENDBRANCH   1  16
TORSDOF 6
ENDMDL
MODEL 8
REMARK VINA RESULT:      -7.7      2.827      7.638
REMARK  Name = 
REMARK  6 active torsions:
REMARK  status: ('A' for Active; 'I' for Inactive)
REMARK    1  A    between atoms: N_1  and  CA_2
REMARK    2  A    between atoms: CA_2  and  CB_3
REMARK    3  A    between atoms: CA_2  and  C_13
REMARK    4  A    between atoms: CB_3  and  CG_4
REMARK    5  A    between atoms: CA_19  and  C_20
REMARK    6  A    between atoms: C_20  and  OXT_22
REMARK                            x       y       z     vdW  Elec       q    Type
REMARK                         _______ _______ _______ _____ _____    ______ ____
ROOT
ATOM      1  CA  TRP A   1       2.934   5.403  18.328  0.00  0.00    +0.000 C 
ENDROOT
BRANCH   1   2
ATOM      2  C   TRP A   1       4.366   4.802  18.267  0.00  0.00    +0.000 C 
ATOM      3  O   TRP A   1       4.765   3.964  19.083  0.00  0.00    +0.000 OA
ATOM      4  N   PRO A   2       5.193   5.182  17.227  0.00  0.00    +0.000 N 
ATOM      5  CD  PRO A   2       4.914   6.181  16.210  0.00  0.00    +0.000 C 
ATOM      6  CG  PRO A   2       5.544   5.604  14.958  0.00  0.00    +0.000 C 
ATOM      7  CB  PRO A   2       6.790   4.894  15.473  0.00  0.00    +0.000 C 
ATOM      8  CA  PRO A   2       6.450   4.480  16.917  0.00  0.00    +0.000 C 
BRANCH   8   9
ATOM      9  C   PRO A   2       7.584   4.838  17.897  0.00  0.00    +0.000 C 
ATOM     10  O   PRO A   2       7.638   5.860  18.567  0.00  0.00    +0.000 OA
BRANCH   9  11
ATOM     11  OXT PRO A   2       8.593   3.935  17.906  0.00  0.00    +0.000 OA
ATOM     12  HXT PRO A   2       8.292   3.037  18.189  0.00  0.00    +0.000 HD
ENDBRANCH   9  11
ENDBRANCH   8   9
ENDBRANCH   1   2
BRANCH   1  13
ATOM     13  N   TRP A   1       1.977   4.266  18.318  0.00  0.00    +0.000 NA
ATOM     14  H1  TRP A   1       1.740   4.063  17.343  0.00  0.00    +0.000 HD
ATOM     15  H2  TRP A   1       1.103   4.581  18.742  0.00  0.00    +0.000 HD
ENDBRANCH   1  13
BRANCH   1  16
ATOM     16  CB  TRP A   1       2.734   6.305  19.566  0.00  0.00    +0.000 C 
BRANCH  16  17
ATOM     17  CG  TRP A   1       2.154   7.658  19.224  0.00  0.00    +0.000 A 
ATOM     18  CD1 TRP A   1       2.248   8.283  17.993  0.00  0.00    +0.000 A 
ATOM     19  NE1 TRP A   1       1.588   9.481  18.057  0.00  0.00    +0.000 N 
ATOM     20  CE2 TRP A   1       1.054   9.662  19.310  0.00  0.00    +0.000 A 
ATOM     21  CZ2 TRP A   1       0.300  10.729  19.818  0.00  0.00    +0.000 A 
ATOM     22  CH2 TRP A   1      -0.119  10.655  21.148  0.00  0.00    +0.000 A 
ATOM     23  CZ3 TRP A   1       0.210   9.559  21.939  0.00  0.00    +0.000 A 
ATOM     24  CE3 TRP A   1       0.972   8.501  21.416  0.00  0.00    +0.000 A 
ATOM     25  CD2 TRP A   1       1.405   8.545  20.074  0.00  0.00    +0.000 A 
ATOM     26  HE1 TRP A   1       1.499  10.142  17.298  0.00  0.00    +0.000 HD
ENDBRANCH  16  17
ENDBRANCH   1  16
TORSDOF 6
ENDMDL
MODEL 9
REMARK VINA RESULT:      -7.6      2.822      6.008
REMARK  Name = 
REMARK  6 active torsions:
REMARK  status: ('A' for Active; 'I' for Inactive)
REMARK    1  A    between atoms: N_1  and  CA_2
REMARK    2  A    between atoms: CA_2  and  CB_3
REMARK    3  A    between atoms: CA_2  and  C_13
REMARK    4  A    between atoms: CB_3  and  CG_4
REMARK    5  A    between atoms: CA_19  and  C_20
REMARK    6  A    between atoms: C_20  and  OXT_22
REMARK                            x       y       z     vdW  Elec       q    Type
REMARK                         _______ _______ _______ _____ _____    ______ ____
ROOT
ATOM      1  CA  TRP A   1       5.968   5.393  15.335  0.00  0.00    +0.000 C 
ENDROOT
BRANCH   1   2
ATOM      2  C   TRP A   1       6.872   5.203  16.585  0.00  0.00    +0.000 C 
ATOM      3  O   TRP A   1       7.413   4.124  16.850  0.00  0.00    +0.000 OA
ATOM      4  N   PRO A   2       7.118   6.300  17.390  0.00  0.00    +0.000 N 
ATOM      5  CD  PRO A   2       6.536   7.624  17.261  0.00  0.00    +0.000 C 
ATOM      6  CG  PRO A   2       7.672   8.553  17.641  0.00  0.00    +0.000 C 
ATOM      7  CB  PRO A   2       8.414   7.791  18.733  0.00  0.00    +0.000 C 
ATOM      8  CA  PRO A   2       8.164   6.303  18.427  0.00  0.00    +0.000 C 
BRANCH   8   9
ATOM      9  C   PRO A   2       7.749   5.521  19.688  0.00  0.00    +0.000 C 
ATOM     10  O   PRO A   2       6.596   5.283  20.019  0.00  0.00    +0.000 OA
BRANCH   9  11
ATOM     11  OXT PRO A   2       8.795   5.169  20.471  0.00  0.00    +0.000 OA
ATOM     12  HXT PRO A   2       8.519   4.964  21.399  0.00  0.00    +0.000 HD
ENDBRANCH   9  11
ENDBRANCH   8   9
ENDBRANCH   1   2
BRANCH   1  13
ATOM     13  N   TRP A   1       6.811   5.141  14.138  0.00  0.00    +0.000 NA
ATOM     14  H1  TRP A   1       7.791   5.171  14.432  0.00  0.00    +0.000 HD
ATOM     15  H2  TRP A   1       6.703   5.932  13.501  0.00  0.00    +0.000 HD
ENDBRANCH   1  13
BRANCH   1  16
ATOM     16  CB  TRP A   1       4.730   4.467  15.367  0.00  0.00    +0.000 C 
BRANCH  16  17
ATOM     17  CG  TRP A   1       4.159   4.292  16.755  0.00  0.00    +0.000 A 
ATOM     18  CD1 TRP A   1       4.131   3.107  17.468  0.00  0.00    +0.000 A 
ATOM     19  NE1 TRP A   1       3.557   3.342  18.688  0.00  0.00    +0.000 N 
ATOM     20  CE2 TRP A   1       3.205   4.666  18.800  0.00  0.00    +0.000 A 
ATOM     21  CZ2 TRP A   1       2.602   5.346  19.868  0.00  0.00    +0.000 A 
ATOM     22  CH2 TRP A   1       2.350   6.710  19.710  0.00  0.00    +0.000 A 
ATOM     23  CZ3 TRP A   1       2.683   7.365  18.529  0.00  0.00    +0.000 A 
ATOM     24  CE3 TRP A   1       3.281   6.667  17.466  0.00  0.00    +0.000 A 
ATOM     25  CD2 TRP A   1       3.553   5.288  17.599  0.00  0.00    +0.000 A 
ATOM     26  HE1 TRP A   1       3.410   2.649  19.409  0.00  0.00    +0.000 HD
ENDBRANCH  16  17
ENDBRANCH   1  16
TORSDOF 6
ENDMDL
