MODEL 1
REMARK VINA RESULT:      -8.3      0.000      0.000
REMARK  Name = 
REMARK  7 active torsions:
REMARK  status: ('A' for Active; 'I' for Inactive)
REMARK    1  A    between atoms: C_2  and  C_11
REMARK    2  A    between atoms: N_3  and  C_4
REMARK    3  A    between atoms: C_16  and  C_17
REMARK    4  A    between atoms: N_19  and  C_20
REMARK    5  A    between atoms: C_20  and  C_21
REMARK    6  A    between atoms: C_21  and  C_22
REMARK    7  A    between atoms: C_22  and  N_23
REMARK                            x       y       z     vdW  Elec       q    Type
REMARK                         _______ _______ _______ _____ _____    ______ ____
ROOT
ATOM      1  C   UNL     1       3.061   5.991  18.395  0.00  0.00    +0.000 C 
ATOM      2  C   UNL     1       2.071   4.804  18.166  0.00  0.00    +0.000 C 
ATOM      3  C   UNL     1       1.267   4.634  19.449  0.00  0.00    +0.000 C 
ATOM      4  C   UNL     1       2.109   4.152  20.384  0.00  0.00    +0.000 C 
ATOM      5  C   UNL     1       3.475   3.964  19.718  0.00  0.00    +0.000 C 
ATOM      6  C   UNL     1       4.051   5.392  19.485  0.00  0.00    +0.000 C 
ATOM      7  C   UNL     1       3.031   3.639  18.315  0.00  0.00    +0.000 C 
ATOM      8  C   UNL     1       2.745   2.239  17.840  0.00  0.00    +0.000 C 
ATOM      9  C   UNL     1       3.897   3.026  17.251  0.00  0.00    +0.000 C 
ENDROOT
BRANCH   1  11
ATOM     10  O   UNL     1       2.297   7.488  20.098  0.00  0.00    +0.000 OA
ATOM     11  C   UNL     1       2.446   7.291  18.894  0.00  0.00    +0.000 C 
ATOM     12  N   UNL     1       2.119   8.200  17.898  0.00  0.00    +0.000 N 
ATOM     13  H   UNL     1       2.192   7.892  16.939  0.00  0.00    +0.000 HD
BRANCH  12  14
ATOM     14  C   UNL     1       1.519   9.463  18.113  0.00  0.00    +0.000 A 
ATOM     15  C   UNL     1       2.253  10.646  18.259  0.00  0.00    +0.000 A 
ATOM     16  C   UNL     1       1.619  11.855  18.552  0.00  0.00    +0.000 A 
ATOM     17  C   UNL     1       0.236  11.891  18.690  0.00  0.00    +0.000 A 
ATOM     18 BR   UNL     1      -0.616  13.517  19.139  0.00  0.00    +0.000 Br
ATOM     19  C   UNL     1      -0.516  10.734  18.504  0.00  0.00    +0.000 A 
ATOM     20  C   UNL     1       0.123   9.525  18.204  0.00  0.00    +0.000 A 
ENDBRANCH  12  14
ENDBRANCH   1  11
BRANCH   6  21
ATOM     21  C   UNL     1       5.487   5.376  18.989  0.00  0.00    +0.000 C 
ATOM     22  O   UNL     1       6.355   4.640  19.447  0.00  0.00    +0.000 OA
ATOM     23  N   UNL     1       5.725   6.226  17.929  0.00  0.00    +0.000 N 
ATOM     24  H   UNL     1       4.947   6.730  17.523  0.00  0.00    +0.000 HD
BRANCH  23  25
ATOM     25  C   UNL     1       7.011   6.260  17.262  0.00  0.00    +0.000 C 
BRANCH  25  26
ATOM     26  C   UNL     1       7.138   5.191  16.178  0.00  0.00    +0.000 C 
BRANCH  26  27
ATOM     27  C   UNL     1       5.942   5.204  15.229  0.00  0.00    +0.000 C 
BRANCH  27  28
ATOM     28  N   UNL     1       6.219   4.556  13.966  0.00  0.00    +0.000 N 
ATOM     29  C   UNL     1       5.422   3.641  13.337  0.00  0.00    +0.000 A 
ATOM     30  C   UNL     1       6.067   3.365  12.154  0.00  0.00    +0.000 A 
ATOM     31  N   UNL     1       7.225   4.092  12.050  0.00  0.00    +0.000 NA
ATOM     32  C   UNL     1       7.287   4.804  13.154  0.00  0.00    +0.000 A 
ENDBRANCH  27  28
ENDBRANCH  26  27
ENDBRANCH  25  26
ENDBRANCH  23  25
ENDBRANCH   6  21
TORSDOF 7
ENDMDL
MODEL 2
REMARK VINA RESULT:      -8.1      2.415      4.058
REMARK  Name = 
REMARK  7 active torsions:
REMARK  status: ('A' for Active; 'I' for Inactive)
REMARK    1  A    between atoms: C_2  and  C_11
REMARK    2  A    between atoms: N_3  and  C_4
REMARK    3  A    between atoms: C_16  and  C_17
REMARK    4  A    between atoms: N_19  and  C_20
REMARK    5  A    between atoms: C_20  and  C_21
REMARK    6  A    between atoms: C_21  and  C_22
REMARK    7  A    between atoms: C_22  and  N_23
REMARK                            x       y       z     vdW  Elec       q    Type
REMARK                         _______ _______ _______ _____ _____    ______ ____
ROOT
ATOM      1  C   UNL     1       3.185   6.116  18.337  0.00  0.00    +0.000 C 
ATOM      2  C   UNL     1       2.230   4.930  17.987  0.00  0.00    +0.000 C 
ATOM      3  C   UNL     1       1.348   4.688  19.206  0.00  0.00    +0.000 C 
ATOM      4  C   UNL     1       2.136   4.170  20.170  0.00  0.00    +0.000 C 
ATOM      5  C   UNL     1       3.544   4.032  19.585  0.00  0.00    +0.000 C 
ATOM      6  C   UNL     1       4.113   5.476  19.458  0.00  0.00    +0.000 C 
ATOM      7  C   UNL     1       3.195   3.771  18.142  0.00  0.00    +0.000 C 
ATOM      8  C   UNL     1       2.962   2.392  17.583  0.00  0.00    +0.000 C 
ATOM      9  C   UNL     1       4.137   3.221  17.107  0.00  0.00    +0.000 C 
ENDROOT
BRANCH   1  11
ATOM     10  O   UNL     1       2.360   7.552  20.064  0.00  0.00    +0.000 OA
ATOM     11  C   UNL     1       2.519   7.382  18.857  0.00  0.00    +0.000 C 
ATOM     12  N   UNL     1       2.160   8.296  17.877  0.00  0.00    +0.000 N 
ATOM     13  H   UNL     1       2.248   8.009  16.913  0.00  0.00    +0.000 HD
BRANCH  12  14
ATOM     14  C   UNL     1       1.513   9.532  18.113  0.00  0.00    +0.000 A 
ATOM     15  C   UNL     1       2.202  10.731  18.330  0.00  0.00    +0.000 A 
ATOM     16  C   UNL     1       1.519  11.909  18.640  0.00  0.00    +0.000 A 
ATOM     17  C   UNL     1       0.131  11.897  18.725  0.00  0.00    +0.000 A 
ATOM     18 BR   UNL     1      -0.788  13.478  19.198  0.00  0.00    +0.000 Br
ATOM     19  C   UNL     1      -0.576  10.725  18.469  0.00  0.00    +0.000 A 
ATOM     20  C   UNL     1       0.113   9.548  18.152  0.00  0.00    +0.000 A 
ENDBRANCH  12  14
ENDBRANCH   1  11
BRANCH   6  21
ATOM     21  C   UNL     1       5.577   5.502  19.055  0.00  0.00    +0.000 C 
ATOM     22  O   UNL     1       6.412   4.709  19.479  0.00  0.00    +0.000 OA
ATOM     23  N   UNL     1       5.885   6.466  18.118  0.00  0.00    +0.000 N 
ATOM     24  H   UNL     1       5.136   7.022  17.724  0.00  0.00    +0.000 HD
BRANCH  23  25
ATOM     25  C   UNL     1       7.211   6.563  17.541  0.00  0.00    +0.000 C 
BRANCH  25  26
ATOM     26  C   UNL     1       8.076   7.614  18.233  0.00  0.00    +0.000 C 
BRANCH  26  27
ATOM     27  C   UNL     1       7.939   8.983  17.572  0.00  0.00    +0.000 C 
BRANCH  27  28
ATOM     28  N   UNL     1       8.621  10.031  18.300  0.00  0.00    +0.000 N 
ATOM     29  C   UNL     1       9.269   9.892  19.495  0.00  0.00    +0.000 A 
ATOM     30  C   UNL     1       9.805  11.132  19.752  0.00  0.00    +0.000 A 
ATOM     31  N   UNL     1       9.504  12.011  18.743  0.00  0.00    +0.000 NA
ATOM     32  C   UNL     1       8.794  11.318  17.881  0.00  0.00    +0.000 A 
ENDBRANCH  27  28
ENDBRANCH  26  27
ENDBRANCH  25  26
ENDBRANCH  23  25
ENDBRANCH   6  21
TORSDOF 7
ENDMDL
MODEL 3
REMARK VINA RESULT:      -7.9      2.461      4.224
REMARK  Name = 
REMARK  7 active torsions:
REMARK  status: ('A' for Active; 'I' for Inactive)
REMARK    1  A    between atoms: C_2  and  C_11
REMARK    2  A    between atoms: N_3  and  C_4
REMARK    3  A    between atoms: C_16  and  C_17
REMARK    4  A    between atoms: N_19  and  C_20
REMARK    5  A    between atoms: C_20  and  C_21
REMARK    6  A    between atoms: C_21  and  C_22
REMARK    7  A    between atoms: C_22  and  N_23
REMARK                            x       y       z     vdW  Elec       q    Type
REMARK                         _______ _______ _______ _____ _____    ______ ____
ROOT
ATOM      1  C   UNL     1       3.178   6.137  18.292  0.00  0.00    +0.000 C 
ATOM      2  C   UNL     1       2.242   4.929  17.966  0.00  0.00    +0.000 C 
ATOM      3  C   UNL     1       1.425   4.643  19.220  0.00  0.00    +0.000 C 
ATOM      4  C   UNL     1       2.270   4.133  20.137  0.00  0.00    +0.000 C 
ATOM      5  C   UNL     1       3.654   4.045  19.486  0.00  0.00    +0.000 C 
ATOM      6  C   UNL     1       4.174   5.507  19.358  0.00  0.00    +0.000 C 
ATOM      7  C   UNL     1       3.246   3.796  18.056  0.00  0.00    +0.000 C 
ATOM      8  C   UNL     1       3.026   2.421  17.485  0.00  0.00    +0.000 C 
ATOM      9  C   UNL     1       4.154   3.291  16.970  0.00  0.00    +0.000 C 
ENDROOT
BRANCH   1  11
ATOM     10  O   UNL     1       2.309   7.478  20.074  0.00  0.00    +0.000 OA
ATOM     11  C   UNL     1       2.502   7.375  18.864  0.00  0.00    +0.000 C 
ATOM     12  N   UNL     1       2.173   8.344  17.927  0.00  0.00    +0.000 N 
ATOM     13  H   UNL     1       2.287   8.111  16.950  0.00  0.00    +0.000 HD
BRANCH  12  14
ATOM     14  C   UNL     1       1.522   9.567  18.214  0.00  0.00    +0.000 A 
ATOM     15  C   UNL     1       0.136   9.679  18.377  0.00  0.00    +0.000 A 
ATOM     16  C   UNL     1      -0.467  10.922  18.578  0.00  0.00    +0.000 A 
ATOM     17  C   UNL     1       0.318  12.068  18.628  0.00  0.00    +0.000 A 
ATOM     18 BR   UNL     1      -0.504  13.755  18.847  0.00  0.00    +0.000 Br
ATOM     19  C   UNL     1       1.703  11.973  18.513  0.00  0.00    +0.000 A 
ATOM     20  C   UNL     1       2.304  10.723  18.319  0.00  0.00    +0.000 A 
ENDBRANCH  12  14
ENDBRANCH   1  11
BRANCH   6  21
ATOM     21  C   UNL     1       5.618   5.581  18.889  0.00  0.00    +0.000 C 
ATOM     22  O   UNL     1       6.482   4.778  19.223  0.00  0.00    +0.000 OA
ATOM     23  N   UNL     1       5.867   6.606  18.000  0.00  0.00    +0.000 N 
ATOM     24  H   UNL     1       5.093   7.173  17.678  0.00  0.00    +0.000 HD
BRANCH  23  25
ATOM     25  C   UNL     1       7.162   6.761  17.369  0.00  0.00    +0.000 C 
BRANCH  25  26
ATOM     26  C   UNL     1       8.096   7.673  18.162  0.00  0.00    +0.000 C 
BRANCH  26  27
ATOM     27  C   UNL     1       7.920   9.138  17.772  0.00  0.00    +0.000 C 
BRANCH  27  28
ATOM     28  N   UNL     1       8.868  10.013  18.427  0.00  0.00    +0.000 N 
ATOM     29  C   UNL     1       9.647  10.957  17.819  0.00  0.00    +0.000 A 
ATOM     30  C   UNL     1      10.327  11.568  18.846  0.00  0.00    +0.000 A 
ATOM     31  N   UNL     1       9.975  11.024  20.055  0.00  0.00    +0.000 NA
ATOM     32  C   UNL     1       9.091  10.093  19.771  0.00  0.00    +0.000 A 
ENDBRANCH  27  28
ENDBRANCH  26  27
ENDBRANCH  25  26
ENDBRANCH  23  25
ENDBRANCH   6  21
TORSDOF 7
ENDMDL
MODEL 4
REMARK VINA RESULT:      -7.9      1.635      1.871
REMARK  Name = 
REMARK  7 active torsions:
REMARK  status: ('A' for Active; 'I' for Inactive)
REMARK    1  A    between atoms: C_2  and  C_11
REMARK    2  A    between atoms: N_3  and  C_4
REMARK    3  A    between atoms: C_16  and  C_17
REMARK    4  A    between atoms: N_19  and  C_20
REMARK    5  A    between atoms: C_20  and  C_21
REMARK    6  A    between atoms: C_21  and  C_22
REMARK    7  A    between atoms: C_22  and  N_23
REMARK                            x       y       z     vdW  Elec       q    Type
REMARK                         _______ _______ _______ _____ _____    ______ ____
ROOT
ATOM      1  C   UNL     1       2.950   5.740  18.434  0.00  0.00    +0.000 C 
ATOM      2  C   UNL     1       2.058   4.460  18.357  0.00  0.00    +0.000 C 
ATOM      3  C   UNL     1       1.243   4.401  19.642  0.00  0.00    +0.000 C 
ATOM      4  C   UNL     1       2.099   4.114  20.643  0.00  0.00    +0.000 C 
ATOM      5  C   UNL     1       3.488   3.947  20.023  0.00  0.00    +0.000 C 
ATOM      6  C   UNL     1       3.960   5.370  19.605  0.00  0.00    +0.000 C 
ATOM      7  C   UNL     1       3.099   3.403  18.671  0.00  0.00    +0.000 C 
ATOM      8  C   UNL     1       2.930   1.934  18.386  0.00  0.00    +0.000 C 
ATOM      9  C   UNL     1       4.031   2.723  17.708  0.00  0.00    +0.000 C 
ENDROOT
BRANCH   1  11
ATOM     10  O   UNL     1       1.804   7.754  17.839  0.00  0.00    +0.000 OA
ATOM     11  C   UNL     1       2.228   7.043  18.747  0.00  0.00    +0.000 C 
ATOM     12  N   UNL     1       2.076   7.314  20.100  0.00  0.00    +0.000 N 
ATOM     13  H   UNL     1       2.552   6.711  20.756  0.00  0.00    +0.000 HD
BRANCH  12  14
ATOM     14  C   UNL     1       1.459   8.469  20.634  0.00  0.00    +0.000 A 
ATOM     15  C   UNL     1       1.162   8.621  21.994  0.00  0.00    +0.000 A 
ATOM     16  C   UNL     1       0.478   9.746  22.461  0.00  0.00    +0.000 A 
ATOM     17  C   UNL     1       0.094  10.738  21.566  0.00  0.00    +0.000 A 
ATOM     18 BR   UNL     1      -0.878  12.233  22.189  0.00  0.00    +0.000 Br
ATOM     19  C   UNL     1       0.420  10.627  20.216  0.00  0.00    +0.000 A 
ATOM     20  C   UNL     1       1.112   9.501  19.754  0.00  0.00    +0.000 A 
ENDBRANCH  12  14
ENDBRANCH   1  11
BRANCH   6  21
ATOM     21  C   UNL     1       5.403   5.400  19.130  0.00  0.00    +0.000 C 
ATOM     22  O   UNL     1       6.335   4.914  19.762  0.00  0.00    +0.000 OA
ATOM     23  N   UNL     1       5.574   5.974  17.888  0.00  0.00    +0.000 N 
ATOM     24  H   UNL     1       4.756   6.262  17.366  0.00  0.00    +0.000 HD
BRANCH  23  25
ATOM     25  C   UNL     1       6.868   5.991  17.235  0.00  0.00    +0.000 C 
BRANCH  25  26
ATOM     26  C   UNL     1       7.212   4.653  16.581  0.00  0.00    +0.000 C 
BRANCH  26  27
ATOM     27  C   UNL     1       6.130   4.209  15.600  0.00  0.00    +0.000 C 
BRANCH  27  28
ATOM     28  N   UNL     1       6.545   4.315  14.218  0.00  0.00    +0.000 N 
ATOM     29  C   UNL     1       7.534   5.124  13.733  0.00  0.00    +0.000 A 
ATOM     30  C   UNL     1       7.602   4.833  12.391  0.00  0.00    +0.000 A 
ATOM     31  N   UNL     1       6.689   3.865  12.056  0.00  0.00    +0.000 NA
ATOM     32  C   UNL     1       6.070   3.570  13.178  0.00  0.00    +0.000 A 
ENDBRANCH  27  28
ENDBRANCH  26  27
ENDBRANCH  25  26
ENDBRANCH  23  25
ENDBRANCH   6  21
TORSDOF 7
ENDMDL
MODEL 5
REMARK VINA RESULT:      -7.8      2.896      4.392
REMARK  Name = 
REMARK  7 active torsions:
REMARK  status: ('A' for Active; 'I' for Inactive)
REMARK    1  A    between atoms: C_2  and  C_11
REMARK    2  A    between atoms: N_3  and  C_4
REMARK    3  A    between atoms: C_16  and  C_17
REMARK    4  A    between atoms: N_19  and  C_20
REMARK    5  A    between atoms: C_20  and  C_21
REMARK    6  A    between atoms: C_21  and  C_22
REMARK    7  A    between atoms: C_22  and  N_23
REMARK                            x       y       z     vdW  Elec       q    Type
REMARK                         _______ _______ _______ _____ _____    ______ ____
ROOT
ATOM      1  C   UNL     1       3.234   5.908  18.129  0.00  0.00    +0.000 C 
ATOM      2  C   UNL     1       2.455   4.587  17.826  0.00  0.00    +0.000 C 
ATOM      3  C   UNL     1       1.497   4.354  18.987  0.00  0.00    +0.000 C 
ATOM      4  C   UNL     1       2.245   4.026  20.059  0.00  0.00    +0.000 C 
ATOM      5  C   UNL     1       3.708   4.007  19.609  0.00  0.00    +0.000 C 
ATOM      6  C   UNL     1       4.119   5.491  19.382  0.00  0.00    +0.000 C 
ATOM      7  C   UNL     1       3.527   3.573  18.176  0.00  0.00    +0.000 C 
ATOM      8  C   UNL     1       3.503   2.131  17.744  0.00  0.00    +0.000 C 
ATOM      9  C   UNL     1       4.617   3.049  17.284  0.00  0.00    +0.000 C 
ENDROOT
BRANCH   1  11
ATOM     10  O   UNL     1       1.933   7.835  17.564  0.00  0.00    +0.000 OA
ATOM     11  C   UNL     1       2.384   7.127  18.461  0.00  0.00    +0.000 C 
ATOM     12  N   UNL     1       2.155   7.325  19.815  0.00  0.00    +0.000 N 
ATOM     13  H   UNL     1       2.657   6.739  20.467  0.00  0.00    +0.000 HD
BRANCH  12  14
ATOM     14  C   UNL     1       1.415   8.397  20.367  0.00  0.00    +0.000 A 
ATOM     15  C   UNL     1       1.441   9.696  19.847  0.00  0.00    +0.000 A 
ATOM     16  C   UNL     1       0.756  10.738  20.476  0.00  0.00    +0.000 A 
ATOM     17  C   UNL     1       0.027  10.483  21.632  0.00  0.00    +0.000 A 
ATOM     18 BR   UNL     1      -0.854  11.903  22.512  0.00  0.00    +0.000 Br
ATOM     19  C   UNL     1      -0.048   9.189  22.140  0.00  0.00    +0.000 A 
ATOM     20  C   UNL     1       0.634   8.146  21.502  0.00  0.00    +0.000 A 
ENDBRANCH  12  14
ENDBRANCH   1  11
BRANCH   6  21
ATOM     21  C   UNL     1       5.603   5.657  19.100  0.00  0.00    +0.000 C 
ATOM     22  O   UNL     1       6.485   5.138  19.776  0.00  0.00    +0.000 OA
ATOM     23  N   UNL     1       5.881   6.402  17.972  0.00  0.00    +0.000 N 
ATOM     24  H   UNL     1       5.112   6.716  17.393  0.00  0.00    +0.000 HD
BRANCH  23  25
ATOM     25  C   UNL     1       7.238   6.571  17.493  0.00  0.00    +0.000 C 
BRANCH  25  26
ATOM     26  C   UNL     1       8.003   7.643  18.267  0.00  0.00    +0.000 C 
BRANCH  26  27
ATOM     27  C   UNL     1       7.949   8.996  17.562  0.00  0.00    +0.000 C 
BRANCH  27  28
ATOM     28  N   UNL     1       8.612  10.045  18.305  0.00  0.00    +0.000 N 
ATOM     29  C   UNL     1       9.257   9.902  19.501  0.00  0.00    +0.000 A 
ATOM     30  C   UNL     1       9.773  11.147  19.775  0.00  0.00    +0.000 A 
ATOM     31  N   UNL     1       9.465  12.033  18.775  0.00  0.00    +0.000 NA
ATOM     32  C   UNL     1       8.768  11.339  17.901  0.00  0.00    +0.000 A 
ENDBRANCH  27  28
ENDBRANCH  26  27
ENDBRANCH  25  26
ENDBRANCH  23  25
ENDBRANCH   6  21
TORSDOF 7
ENDMDL
MODEL 6
REMARK VINA RESULT:      -7.8      0.530      1.015
REMARK  Name = 
REMARK  7 active torsions:
REMARK  status: ('A' for Active; 'I' for Inactive)
REMARK    1  A    between atoms: C_2  and  C_11
REMARK    2  A    between atoms: N_3  and  C_4
REMARK    3  A    between atoms: C_16  and  C_17
REMARK    4  A    between atoms: N_19  and  C_20
REMARK    5  A    between atoms: C_20  and  C_21
REMARK    6  A    between atoms: C_21  and  C_22
REMARK    7  A    between atoms: C_22  and  N_23
REMARK                            x       y       z     vdW  Elec       q    Type
REMARK                         _______ _______ _______ _____ _____    ______ ____
ROOT
ATOM      1  C   UNL     1       2.752   5.955  18.675  0.00  0.00    +0.000 C 
ATOM      2  C   UNL     1       1.708   4.800  18.545  0.00  0.00    +0.000 C 
ATOM      3  C   UNL     1       1.021   4.659  19.897  0.00  0.00    +0.000 C 
ATOM      4  C   UNL     1       1.930   4.152  20.753  0.00  0.00    +0.000 C 
ATOM      5  C   UNL     1       3.222   3.919  19.965  0.00  0.00    +0.000 C 
ATOM      6  C   UNL     1       3.819   5.327  19.672  0.00  0.00    +0.000 C 
ATOM      7  C   UNL     1       2.640   3.605  18.610  0.00  0.00    +0.000 C 
ATOM      8  C   UNL     1       2.267   2.214  18.171  0.00  0.00    +0.000 C 
ATOM      9  C   UNL     1       3.384   2.963  17.474  0.00  0.00    +0.000 C 
ENDROOT
BRANCH   1  11
ATOM     10  O   UNL     1       2.123   7.451  20.435  0.00  0.00    +0.000 OA
ATOM     11  C   UNL     1       2.226   7.275  19.222  0.00  0.00    +0.000 C 
ATOM     12  N   UNL     1       1.924   8.226  18.258  0.00  0.00    +0.000 N 
ATOM     13  H   UNL     1       1.952   7.938  17.290  0.00  0.00    +0.000 HD
BRANCH  12  14
ATOM     14  C   UNL     1       1.404   9.515  18.520  0.00  0.00    +0.000 A 
ATOM     15  C   UNL     1       0.113   9.736  19.013  0.00  0.00    +0.000 A 
ATOM     16  C   UNL     1      -0.383  11.031  19.179  0.00  0.00    +0.000 A 
ATOM     17  C   UNL     1       0.418  12.121  18.860  0.00  0.00    +0.000 A 
ATOM     18 BR   UNL     1      -0.272  13.871  19.032  0.00  0.00    +0.000 Br
ATOM     19  C   UNL     1       1.722  11.923  18.410  0.00  0.00    +0.000 A 
ATOM     20  C   UNL     1       2.217  10.623  18.253  0.00  0.00    +0.000 A 
ENDBRANCH  12  14
ENDBRANCH   1  11
BRANCH   6  21
ATOM     21  C   UNL     1       5.202   5.264  19.045  0.00  0.00    +0.000 C 
ATOM     22  O   UNL     1       6.006   4.365  19.265  0.00  0.00    +0.000 OA
ATOM     23  N   UNL     1       5.461   6.284  18.153  0.00  0.00    +0.000 N 
ATOM     24  H   UNL     1       4.721   6.939  17.931  0.00  0.00    +0.000 HD
BRANCH  23  25
ATOM     25  C   UNL     1       6.688   6.321  17.383  0.00  0.00    +0.000 C 
BRANCH  25  26
ATOM     26  C   UNL     1       6.464   6.000  15.907  0.00  0.00    +0.000 C 
BRANCH  26  27
ATOM     27  C   UNL     1       7.046   4.639  15.530  0.00  0.00    +0.000 C 
BRANCH  27  28
ATOM     28  N   UNL     1       6.937   4.353  14.116  0.00  0.00    +0.000 N 
ATOM     29  C   UNL     1       6.025   3.520  13.530  0.00  0.00    +0.000 A 
ATOM     30  C   UNL     1       6.274   3.619  12.181  0.00  0.00    +0.000 A 
ATOM     31  N   UNL     1       7.303   4.492  11.938  0.00  0.00    +0.000 NA
ATOM     32  C   UNL     1       7.680   4.921  13.123  0.00  0.00    +0.000 A 
ENDBRANCH  27  28
ENDBRANCH  26  27
ENDBRANCH  25  26
ENDBRANCH  23  25
ENDBRANCH   6  21
TORSDOF 7
ENDMDL
MODEL 7
REMARK VINA RESULT:      -7.7      0.928      1.231
REMARK  Name = 
REMARK  7 active torsions:
REMARK  status: ('A' for Active; 'I' for Inactive)
REMARK    1  A    between atoms: C_2  and  C_11
REMARK    2  A    between atoms: N_3  and  C_4
REMARK    3  A    between atoms: C_16  and  C_17
REMARK    4  A    between atoms: N_19  and  C_20
REMARK    5  A    between atoms: C_20  and  C_21
REMARK    6  A    between atoms: C_21  and  C_22
REMARK    7  A    between atoms: C_22  and  N_23
REMARK                            x       y       z     vdW  Elec       q    Type
REMARK                         _______ _______ _______ _____ _____    ______ ____
ROOT
ATOM      1  C   UNL     1       2.643   5.876  18.457  0.00  0.00    +0.000 C 
ATOM      2  C   UNL     1       1.588   4.758  18.738  0.00  0.00    +0.000 C 
ATOM      3  C   UNL     1       1.239   4.830  20.219  0.00  0.00    +0.000 C 
ATOM      4  C   UNL     1       2.320   4.406  20.903  0.00  0.00    +0.000 C 
ATOM      5  C   UNL     1       3.388   4.016  19.877  0.00  0.00    +0.000 C 
ATOM      6  C   UNL     1       3.910   5.345  19.257  0.00  0.00    +0.000 C 
ATOM      7  C   UNL     1       2.500   3.546  18.753  0.00  0.00    +0.000 C 
ATOM      8  C   UNL     1       2.023   2.124  18.614  0.00  0.00    +0.000 C 
ATOM      9  C   UNL     1       2.950   2.725  17.577  0.00  0.00    +0.000 C 
ENDROOT
BRANCH   1  11
ATOM     10  O   UNL     1       2.408   7.603  20.097  0.00  0.00    +0.000 OA
ATOM     11  C   UNL     1       2.272   7.278  18.919  0.00  0.00    +0.000 C 
ATOM     12  N   UNL     1       1.820   8.122  17.914  0.00  0.00    +0.000 N 
ATOM     13  H   UNL     1       1.654   7.719  17.003  0.00  0.00    +0.000 HD
BRANCH  12  14
ATOM     14  C   UNL     1       1.399   9.459  18.101  0.00  0.00    +0.000 A 
ATOM     15  C   UNL     1       2.282  10.546  18.116  0.00  0.00    +0.000 A 
ATOM     16  C   UNL     1       1.827  11.839  18.385  0.00  0.00    +0.000 A 
ATOM     17  C   UNL     1       0.477  12.056  18.635  0.00  0.00    +0.000 A 
ATOM     18 BR   UNL     1      -0.128  13.796  19.053  0.00  0.00    +0.000 Br
ATOM     19  C   UNL     1      -0.424  10.995  18.581  0.00  0.00    +0.000 A 
ATOM     20  C   UNL     1       0.035   9.701  18.302  0.00  0.00    +0.000 A 
ENDBRANCH  12  14
ENDBRANCH   1  11
BRANCH   6  21
ATOM     21  C   UNL     1       5.105   5.141  18.341  0.00  0.00    +0.000 C 
ATOM     22  O   UNL     1       6.085   4.469  18.645  0.00  0.00    +0.000 OA
ATOM     23  N   UNL     1       4.972   5.734  17.103  0.00  0.00    +0.000 N 
ATOM     24  H   UNL     1       4.097   6.187  16.870  0.00  0.00    +0.000 HD
BRANCH  23  25
ATOM     25  C   UNL     1       5.969   5.552  16.067  0.00  0.00    +0.000 C 
BRANCH  25  26
ATOM     26  C   UNL     1       5.484   4.641  14.940  0.00  0.00    +0.000 C 
BRANCH  26  27
ATOM     27  C   UNL     1       6.577   4.390  13.906  0.00  0.00    +0.000 C 
BRANCH  27  28
ATOM     28  N   UNL     1       6.123   3.589  12.790  0.00  0.00    +0.000 N 
ATOM     29  C   UNL     1       6.901   2.781  12.009  0.00  0.00    +0.000 A 
ATOM     30  C   UNL     1       6.023   2.187  11.132  0.00  0.00    +0.000 A 
ATOM     31  N   UNL     1       4.739   2.609  11.368  0.00  0.00    +0.000 NA
ATOM     32  C   UNL     1       4.831   3.450  12.375  0.00  0.00    +0.000 A 
ENDBRANCH  27  28
ENDBRANCH  26  27
ENDBRANCH  25  26
ENDBRANCH  23  25
ENDBRANCH   6  21
TORSDOF 7
ENDMDL
MODEL 8
REMARK VINA RESULT:      -7.4      1.852      2.091
REMARK  Name = 
REMARK  7 active torsions:
REMARK  status: ('A' for Active; 'I' for Inactive)
REMARK    1  A    between atoms: C_2  and  C_11
REMARK    2  A    between atoms: N_3  and  C_4
REMARK    3  A    between atoms: C_16  and  C_17
REMARK    4  A    between atoms: N_19  and  C_20
REMARK    5  A    between atoms: C_20  and  C_21
REMARK    6  A    between atoms: C_21  and  C_22
REMARK    7  A    between atoms: C_22  and  N_23
REMARK                            x       y       z     vdW  Elec       q    Type
REMARK                         _______ _______ _______ _____ _____    ______ ____
ROOT
ATOM      1  C   UNL     1       2.400   5.751  19.217  0.00  0.00    +0.000 C 
ATOM      2  C   UNL     1       1.528   4.477  18.976  0.00  0.00    +0.000 C 
ATOM      3  C   UNL     1       1.274   3.842  20.338  0.00  0.00    +0.000 C 
ATOM      4  C   UNL     1       2.446   3.331  20.763  0.00  0.00    +0.000 C 
ATOM      5  C   UNL     1       3.484   3.595  19.668  0.00  0.00    +0.000 C 
ATOM      6  C   UNL     1       3.779   5.123  19.698  0.00  0.00    +0.000 C 
ATOM      7  C   UNL     1       2.593   3.534  18.454  0.00  0.00    +0.000 C 
ATOM      8  C   UNL     1       2.305   2.261  17.702  0.00  0.00    +0.000 C 
ATOM      9  C   UNL     1       3.069   3.387  17.035  0.00  0.00    +0.000 C 
ENDROOT
BRANCH   1  11
ATOM     10  O   UNL     1       1.894   6.455  21.448  0.00  0.00    +0.000 OA
ATOM     11  C   UNL     1       1.875   6.737  20.252  0.00  0.00    +0.000 C 
ATOM     12  N   UNL     1       1.427   7.943  19.731  0.00  0.00    +0.000 N 
ATOM     13  H   UNL     1       1.365   8.026  18.727  0.00  0.00    +0.000 HD
BRANCH  12  14
ATOM     14  C   UNL     1       0.879   9.004  20.490  0.00  0.00    +0.000 A 
ATOM     15  C   UNL     1       0.253   8.818  21.729  0.00  0.00    +0.000 A 
ATOM     16  C   UNL     1      -0.345   9.886  22.401  0.00  0.00    +0.000 A 
ATOM     17  C   UNL     1      -0.312  11.157  21.840  0.00  0.00    +0.000 A 
ATOM     18 BR   UNL     1      -1.167  12.591  22.724  0.00  0.00    +0.000 Br
ATOM     19  C   UNL     1       0.345  11.371  20.631  0.00  0.00    +0.000 A 
ATOM     20  C   UNL     1       0.949  10.299  19.964  0.00  0.00    +0.000 A 
ENDBRANCH  12  14
ENDBRANCH   1  11
BRANCH   6  21
ATOM     21  C   UNL     1       4.925   5.523  18.785  0.00  0.00    +0.000 C 
ATOM     22  O   UNL     1       4.866   6.455  17.990  0.00  0.00    +0.000 OA
ATOM     23  N   UNL     1       6.073   4.780  18.966  0.00  0.00    +0.000 N 
ATOM     24  H   UNL     1       6.098   4.094  19.710  0.00  0.00    +0.000 HD
BRANCH  23  25
ATOM     25  C   UNL     1       7.297   5.094  18.256  0.00  0.00    +0.000 C 
BRANCH  25  26
ATOM     26  C   UNL     1       7.364   4.431  16.881  0.00  0.00    +0.000 C 
BRANCH  26  27
ATOM     27  C   UNL     1       7.204   5.448  15.755  0.00  0.00    +0.000 C 
BRANCH  27  28
ATOM     28  N   UNL     1       6.922   4.833  14.476  0.00  0.00    +0.000 N 
ATOM     29  C   UNL     1       7.588   5.063  13.306  0.00  0.00    +0.000 A 
ATOM     30  C   UNL     1       7.006   4.213  12.395  0.00  0.00    +0.000 A 
ATOM     31  N   UNL     1       6.015   3.472  12.985  0.00  0.00    +0.000 NA
ATOM     32  C   UNL     1       5.990   3.864  14.240  0.00  0.00    +0.000 A 
ENDBRANCH  27  28
ENDBRANCH  26  27
ENDBRANCH  25  26
ENDBRANCH  23  25
ENDBRANCH   6  21
TORSDOF 7
ENDMDL
MODEL 9
REMARK VINA RESULT:      -7.4      1.240      1.291
REMARK  Name = 
REMARK  7 active torsions:
REMARK  status: ('A' for Active; 'I' for Inactive)
REMARK    1  A    between atoms: C_2  and  C_11
REMARK    2  A    between atoms: N_3  and  C_4
REMARK    3  A    between atoms: C_16  and  C_17
REMARK    4  A    between atoms: N_19  and  C_20
REMARK    5  A    between atoms: C_20  and  C_21
REMARK    6  A    between atoms: C_21  and  C_22
REMARK    7  A    between atoms: C_22  and  N_23
REMARK                            x       y       z     vdW  Elec       q    Type
REMARK                         _______ _______ _______ _____ _____    ______ ____
ROOT
ATOM      1  C   UNL     1       2.455   5.609  19.109  0.00  0.00    +0.000 C 
ATOM      2  C   UNL     1       1.452   4.416  18.995  0.00  0.00    +0.000 C 
ATOM      3  C   UNL     1       0.966   4.102  20.404  0.00  0.00    +0.000 C 
ATOM      4  C   UNL     1       2.004   3.563  21.073  0.00  0.00    +0.000 C 
ATOM      5  C   UNL     1       3.183   3.484  20.099  0.00  0.00    +0.000 C 
ATOM      6  C   UNL     1       3.675   4.945  19.881  0.00  0.00    +0.000 C 
ATOM      7  C   UNL     1       2.433   3.275  18.808  0.00  0.00    +0.000 C 
ATOM      8  C   UNL     1       2.062   1.916  18.277  0.00  0.00    +0.000 C 
ATOM      9  C   UNL     1       3.039   2.792  17.521  0.00  0.00    +0.000 C 
ENDROOT
BRANCH   1  11
ATOM     10  O   UNL     1       1.775   6.793  21.074  0.00  0.00    +0.000 OA
ATOM     11  C   UNL     1       1.956   6.836  19.859  0.00  0.00    +0.000 C 
ATOM     12  N   UNL     1       1.770   7.963  19.071  0.00  0.00    +0.000 N 
ATOM     13  H   UNL     1       1.854   7.856  18.070  0.00  0.00    +0.000 HD
BRANCH  12  14
ATOM     14  C   UNL     1       1.295   9.212  19.537  0.00  0.00    +0.000 A 
ATOM     15  C   UNL     1       1.275  10.368  18.747  0.00  0.00    +0.000 A 
ATOM     16  C   UNL     1       0.873  11.596  19.278  0.00  0.00    +0.000 A 
ATOM     17  C   UNL     1       0.476  11.674  20.608  0.00  0.00    +0.000 A 
ATOM     18 BR   UNL     1      -0.016  13.345  21.339  0.00  0.00    +0.000 Br
ATOM     19  C   UNL     1       0.446  10.527  21.397  0.00  0.00    +0.000 A 
ATOM     20  C   UNL     1       0.843   9.297  20.859  0.00  0.00    +0.000 A 
ENDBRANCH  12  14
ENDBRANCH   1  11
BRANCH   6  21
ATOM     21  C   UNL     1       4.960   5.022  19.073  0.00  0.00    +0.000 C 
ATOM     22  O   UNL     1       5.902   4.251  19.221  0.00  0.00    +0.000 OA
ATOM     23  N   UNL     1       4.957   6.007  18.107  0.00  0.00    +0.000 N 
ATOM     24  H   UNL     1       4.111   6.543  17.959  0.00  0.00    +0.000 HD
BRANCH  23  25
ATOM     25  C   UNL     1       6.056   6.153  17.174  0.00  0.00    +0.000 C 
BRANCH  25  26
ATOM     26  C   UNL     1       5.619   5.979  15.721  0.00  0.00    +0.000 C 
BRANCH  26  27
ATOM     27  C   UNL     1       5.579   4.508  15.315  0.00  0.00    +0.000 C 
BRANCH  27  28
ATOM     28  N   UNL     1       6.164   4.266  14.014  0.00  0.00    +0.000 N 
ATOM     29  C   UNL     1       5.673   3.429  13.052  0.00  0.00    +0.000 A 
ATOM     30  C   UNL     1       6.526   3.580  11.984  0.00  0.00    +0.000 A 
ATOM     31  N   UNL     1       7.511   4.490  12.272  0.00  0.00    +0.000 NA
ATOM     32  C   UNL     1       7.264   4.889  13.501  0.00  0.00    +0.000 A 
ENDBRANCH  27  28
ENDBRANCH  26  27
ENDBRANCH  25  26
ENDBRANCH  23  25
ENDBRANCH   6  21
TORSDOF 7
ENDMDL
