MODEL 1
REMARK VINA RESULT:      -7.8      0.000      0.000
REMARK  Name = 
REMARK  13 active torsions:
REMARK  status: ('A' for Active; 'I' for Inactive)
REMARK    1  A    between atoms: C_1  and  O_2
REMARK    2  A    between atoms: O_2  and  C_3
REMARK    3  A    between atoms: C_6  and  C_7
REMARK    4  A    between atoms: C_9  and  C_10
REMARK    5  A    between atoms: C_10  and  O_11
REMARK    6  A    between atoms: O_11  and  C_12
REMARK    7  A    between atoms: C_15  and  O_16
REMARK    8  A    between atoms: O_16  and  C_17
REMARK    9  A    between atoms: C_17  and  C_18
REMARK   10  A    between atoms: C_18  and  O_20
REMARK   11  A    between atoms: C_21  and  C_22
REMARK   12  A    between atoms: C_25  and  C_26
REMARK   13  A    between atoms: C_27  and  C_28
REMARK                            x       y       z     vdW  Elec       q    Type
REMARK                         _______ _______ _______ _____ _____    ______ ____
ROOT
ATOM      1  C   UNL     1      -1.308  11.771  21.849  0.00  0.00    +0.000 A 
ATOM      2  N   UNL     1      -0.951  10.475  22.215  0.00  0.00    +0.000 NA
ATOM      3  C   UNL     1       0.164  10.115  21.621  0.00  0.00    +0.000 A 
ATOM      4  S   UNL     1       0.895  11.320  20.662  0.00  0.00    +0.000 S 
ATOM      5  C   UNL     1      -0.407  12.425  21.008  0.00  0.00    +0.000 A 
ENDROOT
BRANCH   1   9
ATOM      6  C   UNL     1      -5.116  12.999  23.378  0.00  0.00    +0.000 A 
ATOM      7  C   UNL     1      -4.084  12.628  24.238  0.00  0.00    +0.000 A 
ATOM      8  C   UNL     1      -2.827  12.286  23.731  0.00  0.00    +0.000 A 
ATOM      9  C   UNL     1      -2.582  12.292  22.348  0.00  0.00    +0.000 A 
ATOM     10  C   UNL     1      -3.623  12.676  21.493  0.00  0.00    +0.000 A 
ATOM     11  C   UNL     1      -4.880  13.032  22.004  0.00  0.00    +0.000 A 
BRANCH   6  13
ATOM     12  C   UNL     1      -7.413  12.450  23.570  0.00  0.00    +0.000 C 
ATOM     13  O   UNL     1      -6.314  13.247  23.990  0.00  0.00    +0.000 OA
ENDBRANCH   6  13
ENDBRANCH   1   9
BRANCH   5  14
ATOM     14  C   UNL     1      -0.345  13.768  20.507  0.00  0.00    +0.000 C 
ATOM     15  C   UNL     1       0.244  14.047  19.331  0.00  0.00    +0.000 C 
BRANCH  15  16
ATOM     16  C   UNL     1       0.564  15.382  18.800  0.00  0.00    +0.000 A 
ATOM     17  C   UNL     1      -0.514  16.249  18.558  0.00  0.00    +0.000 A 
ATOM     18  C   UNL     1      -0.309  17.524  18.029  0.00  0.00    +0.000 A 
ATOM     19  C   UNL     1       0.983  17.953  17.745  0.00  0.00    +0.000 A 
ATOM     20  C   UNL     1       2.066  17.110  17.999  0.00  0.00    +0.000 A 
ATOM     21  C   UNL     1       1.859  15.831  18.527  0.00  0.00    +0.000 A 
ENDBRANCH  15  16
ENDBRANCH   5  14
BRANCH   3  22
ATOM     22  C   UNL     1       0.815   8.773  21.760  0.00  0.00    +0.000 C 
BRANCH  22  23
ATOM     23  O   UNL     1       1.746   8.650  20.685  0.00  0.00    +0.000 OA
BRANCH  23  24
ATOM     24  C   UNL     1       1.895   7.408  20.136  0.00  0.00    +0.000 A 
ATOM     25  C   UNL     1       2.374   7.407  18.830  0.00  0.00    +0.000 A 
ATOM     26  C   UNL     1       2.613   6.206  18.163  0.00  0.00    +0.000 A 
ATOM     27  C   UNL     1       2.402   4.974  18.796  0.00  0.00    +0.000 A 
ATOM     28  C   UNL     1       1.840   4.964  20.085  0.00  0.00    +0.000 A 
ATOM     29  C   UNL     1       1.460   3.709  20.823  0.00  0.00    +0.000 C 
ATOM     30  C   UNL     1       1.611   6.190  20.749  0.00  0.00    +0.000 A 
BRANCH  27  31
ATOM     31  O   UNL     1       2.728   3.766  18.219  0.00  0.00    +0.000 OA
BRANCH  31  32
ATOM     32  C   UNL     1       4.080   3.685  17.743  0.00  0.00    +0.000 C 
BRANCH  32  33
ATOM     33  C   UNL     1       5.101   3.602  18.866  0.00  0.00    +0.000 C 
ATOM     34  O   UNL     1       5.987   4.424  19.048  0.00  0.00    +0.000 OA
BRANCH  33  35
ATOM     35  O   UNL     1       4.951   2.516  19.655  0.00  0.00    +0.000 OA
ATOM     36  H   UNL     1       4.419   1.837  19.188  0.00  0.00    +0.000 HD
ENDBRANCH  33  35
ENDBRANCH  32  33
ENDBRANCH  31  32
ENDBRANCH  27  31
ENDBRANCH  23  24
ENDBRANCH  22  23
ENDBRANCH   3  22
TORSDOF 11
ENDMDL
MODEL 2
REMARK VINA RESULT:      -7.6      2.258      3.122
REMARK  Name = 
REMARK  13 active torsions:
REMARK  status: ('A' for Active; 'I' for Inactive)
REMARK    1  A    between atoms: C_1  and  O_2
REMARK    2  A    between atoms: O_2  and  C_3
REMARK    3  A    between atoms: C_6  and  C_7
REMARK    4  A    between atoms: C_9  and  C_10
REMARK    5  A    between atoms: C_10  and  O_11
REMARK    6  A    between atoms: O_11  and  C_12
REMARK    7  A    between atoms: C_15  and  O_16
REMARK    8  A    between atoms: O_16  and  C_17
REMARK    9  A    between atoms: C_17  and  C_18
REMARK   10  A    between atoms: C_18  and  O_20
REMARK   11  A    between atoms: C_21  and  C_22
REMARK   12  A    between atoms: C_25  and  C_26
REMARK   13  A    between atoms: C_27  and  C_28
REMARK                            x       y       z     vdW  Elec       q    Type
REMARK                         _______ _______ _______ _____ _____    ______ ____
ROOT
ATOM      1  C   UNL     1      -0.002  11.031  20.107  0.00  0.00    +0.000 A 
ATOM      2  N   UNL     1       0.362   9.728  20.442  0.00  0.00    +0.000 NA
ATOM      3  C   UNL     1       1.271   9.271  19.611  0.00  0.00    +0.000 A 
ATOM      4  S   UNL     1       1.805  10.387  18.438  0.00  0.00    +0.000 S 
ATOM      5  C   UNL     1       0.696  11.590  19.036  0.00  0.00    +0.000 A 
ENDROOT
BRANCH   1   9
ATOM      6  C   UNL     1      -3.275  12.571  22.400  0.00  0.00    +0.000 A 
ATOM      7  C   UNL     1      -2.217  11.907  23.018  0.00  0.00    +0.000 A 
ATOM      8  C   UNL     1      -1.125  11.461  22.267  0.00  0.00    +0.000 A 
ATOM      9  C   UNL     1      -1.079  11.656  20.878  0.00  0.00    +0.000 A 
ATOM     10  C   UNL     1      -2.143  12.332  20.268  0.00  0.00    +0.000 A 
ATOM     11  C   UNL     1      -3.231  12.791  21.024  0.00  0.00    +0.000 A 
BRANCH   6  13
ATOM     12  C   UNL     1      -4.148  12.572  24.603  0.00  0.00    +0.000 C 
ATOM     13  O   UNL     1      -4.311  12.900  23.230  0.00  0.00    +0.000 OA
ENDBRANCH   6  13
ENDBRANCH   1   9
BRANCH   5  14
ATOM     14  C   UNL     1       0.706  12.906  18.465  0.00  0.00    +0.000 C 
ATOM     15  C   UNL     1       0.977  13.990  19.215  0.00  0.00    +0.000 C 
BRANCH  15  16
ATOM     16  C   UNL     1       0.818  15.397  18.819  0.00  0.00    +0.000 A 
ATOM     17  C   UNL     1      -0.482  15.929  18.855  0.00  0.00    +0.000 A 
ATOM     18  C   UNL     1      -0.732  17.247  18.470  0.00  0.00    +0.000 A 
ATOM     19  C   UNL     1       0.320  18.055  18.053  0.00  0.00    +0.000 A 
ATOM     20  C   UNL     1       1.619  17.548  18.030  0.00  0.00    +0.000 A 
ATOM     21  C   UNL     1       1.870  16.225  18.414  0.00  0.00    +0.000 A 
ENDBRANCH  15  16
ENDBRANCH   5  14
BRANCH   3  22
ATOM     22  C   UNL     1       1.859   7.894  19.655  0.00  0.00    +0.000 C 
BRANCH  22  23
ATOM     23  O   UNL     1       1.972   7.447  18.304  0.00  0.00    +0.000 OA
BRANCH  23  24
ATOM     24  C   UNL     1       3.106   6.761  17.974  0.00  0.00    +0.000 A 
ATOM     25  C   UNL     1       2.931   5.389  17.834  0.00  0.00    +0.000 A 
ATOM     26  C   UNL     1       3.997   4.572  17.457  0.00  0.00    +0.000 A 
ATOM     27  C   UNL     1       5.261   5.113  17.187  0.00  0.00    +0.000 A 
ATOM     28  C   UNL     1       5.469   6.486  17.407  0.00  0.00    +0.000 A 
ATOM     29  C   UNL     1       6.804   7.163  17.264  0.00  0.00    +0.000 C 
ATOM     30  C   UNL     1       4.376   7.301  17.781  0.00  0.00    +0.000 A 
BRANCH  27  31
ATOM     31  O   UNL     1       6.313   4.364  16.707  0.00  0.00    +0.000 OA
BRANCH  31  32
ATOM     32  C   UNL     1       6.025   3.654  15.492  0.00  0.00    +0.000 C 
BRANCH  32  33
ATOM     33  C   UNL     1       6.676   4.281  14.270  0.00  0.00    +0.000 C 
ATOM     34  O   UNL     1       6.440   3.944  13.119  0.00  0.00    +0.000 OA
BRANCH  33  35
ATOM     35  O   UNL     1       7.564   5.255  14.568  0.00  0.00    +0.000 OA
ATOM     36  H   UNL     1       8.268   5.284  13.886  0.00  0.00    +0.000 HD
ENDBRANCH  33  35
ENDBRANCH  32  33
ENDBRANCH  31  32
ENDBRANCH  27  31
ENDBRANCH  23  24
ENDBRANCH  22  23
ENDBRANCH   3  22
TORSDOF 11
ENDMDL
MODEL 3
REMARK VINA RESULT:      -7.6      3.148      4.672
REMARK  Name = 
REMARK  13 active torsions:
REMARK  status: ('A' for Active; 'I' for Inactive)
REMARK    1  A    between atoms: C_1  and  O_2
REMARK    2  A    between atoms: O_2  and  C_3
REMARK    3  A    between atoms: C_6  and  C_7
REMARK    4  A    between atoms: C_9  and  C_10
REMARK    5  A    between atoms: C_10  and  O_11
REMARK    6  A    between atoms: O_11  and  C_12
REMARK    7  A    between atoms: C_15  and  O_16
REMARK    8  A    between atoms: O_16  and  C_17
REMARK    9  A    between atoms: C_17  and  C_18
REMARK   10  A    between atoms: C_18  and  O_20
REMARK   11  A    between atoms: C_21  and  C_22
REMARK   12  A    between atoms: C_25  and  C_26
REMARK   13  A    between atoms: C_27  and  C_28
REMARK                            x       y       z     vdW  Elec       q    Type
REMARK                         _______ _______ _______ _____ _____    ______ ____
ROOT
ATOM      1  C   UNL     1      -1.024  10.935  18.753  0.00  0.00    +0.000 A 
ATOM      2  N   UNL     1      -0.310   9.963  18.055  0.00  0.00    +0.000 NA
ATOM      3  C   UNL     1       0.952   9.963  18.417  0.00  0.00    +0.000 A 
ATOM      4  S   UNL     1       1.348  11.058  19.663  0.00  0.00    +0.000 S 
ATOM      5  C   UNL     1      -0.293  11.642  19.709  0.00  0.00    +0.000 A 
ENDROOT
BRANCH   1   9
ATOM      6  C   UNL     1      -5.215  11.361  17.976  0.00  0.00    +0.000 A 
ATOM      7  C   UNL     1      -4.579  12.148  18.934  0.00  0.00    +0.000 A 
ATOM      8  C   UNL     1      -3.200  12.043  19.138  0.00  0.00    +0.000 A 
ATOM      9  C   UNL     1      -2.431  11.133  18.397  0.00  0.00    +0.000 A 
ATOM     10  C   UNL     1      -3.076  10.353  17.430  0.00  0.00    +0.000 A 
ATOM     11  C   UNL     1      -4.458  10.470  17.216  0.00  0.00    +0.000 A 
BRANCH   6  13
ATOM     12  C   UNL     1      -7.060  12.844  17.869  0.00  0.00    +0.000 C 
ATOM     13  O   UNL     1      -6.573  11.510  17.916  0.00  0.00    +0.000 OA
ENDBRANCH   6  13
ENDBRANCH   1   9
BRANCH   5  14
ATOM     14  C   UNL     1      -0.669  12.617  20.693  0.00  0.00    +0.000 C 
ATOM     15  C   UNL     1      -1.045  12.249  21.931  0.00  0.00    +0.000 C 
BRANCH  15  16
ATOM     16  C   UNL     1      -1.650  13.108  22.960  0.00  0.00    +0.000 A 
ATOM     17  C   UNL     1      -2.868  12.682  23.514  0.00  0.00    +0.000 A 
ATOM     18  C   UNL     1      -3.529  13.448  24.476  0.00  0.00    +0.000 A 
ATOM     19  C   UNL     1      -2.971  14.647  24.906  0.00  0.00    +0.000 A 
ATOM     20  C   UNL     1      -1.751  15.074  24.379  0.00  0.00    +0.000 A 
ATOM     21  C   UNL     1      -1.090  14.307  23.412  0.00  0.00    +0.000 A 
ENDBRANCH  15  16
ENDBRANCH   5  14
BRANCH   3  22
ATOM     22  C   UNL     1       2.010   9.073  17.842  0.00  0.00    +0.000 C 
BRANCH  22  23
ATOM     23  O   UNL     1       1.813   7.776  18.405  0.00  0.00    +0.000 OA
BRANCH  23  24
ATOM     24  C   UNL     1       2.696   6.802  18.037  0.00  0.00    +0.000 A 
ATOM     25  C   UNL     1       3.975   7.262  17.742  0.00  0.00    +0.000 A 
ATOM     26  C   UNL     1       4.988   6.369  17.393  0.00  0.00    +0.000 A 
ATOM     27  C   UNL     1       4.752   4.989  17.354  0.00  0.00    +0.000 A 
ATOM     28  C   UNL     1       3.443   4.521  17.569  0.00  0.00    +0.000 A 
ATOM     29  C   UNL     1       3.039   3.077  17.442  0.00  0.00    +0.000 C 
ATOM     30  C   UNL     1       2.431   5.438  17.929  0.00  0.00    +0.000 A 
BRANCH  27  31
ATOM     31  O   UNL     1       5.745   4.062  17.123  0.00  0.00    +0.000 OA
BRANCH  31  32
ATOM     32  C   UNL     1       6.915   4.598  16.489  0.00  0.00    +0.000 C 
BRANCH  32  33
ATOM     33  C   UNL     1       6.804   4.637  14.973  0.00  0.00    +0.000 C 
ATOM     34  O   UNL     1       7.169   5.578  14.284  0.00  0.00    +0.000 OA
BRANCH  33  35
ATOM     35  O   UNL     1       6.246   3.527  14.442  0.00  0.00    +0.000 OA
ATOM     36  H   UNL     1       6.353   2.773  15.060  0.00  0.00    +0.000 HD
ENDBRANCH  33  35
ENDBRANCH  32  33
ENDBRANCH  31  32
ENDBRANCH  27  31
ENDBRANCH  23  24
ENDBRANCH  22  23
ENDBRANCH   3  22
TORSDOF 11
ENDMDL
MODEL 4
REMARK VINA RESULT:      -7.5      3.109      3.940
REMARK  Name = 
REMARK  13 active torsions:
REMARK  status: ('A' for Active; 'I' for Inactive)
REMARK    1  A    between atoms: C_1  and  O_2
REMARK    2  A    between atoms: O_2  and  C_3
REMARK    3  A    between atoms: C_6  and  C_7
REMARK    4  A    between atoms: C_9  and  C_10
REMARK    5  A    between atoms: C_10  and  O_11
REMARK    6  A    between atoms: O_11  and  C_12
REMARK    7  A    between atoms: C_15  and  O_16
REMARK    8  A    between atoms: O_16  and  C_17
REMARK    9  A    between atoms: C_17  and  C_18
REMARK   10  A    between atoms: C_18  and  O_20
REMARK   11  A    between atoms: C_21  and  C_22
REMARK   12  A    between atoms: C_25  and  C_26
REMARK   13  A    between atoms: C_27  and  C_28
REMARK                            x       y       z     vdW  Elec       q    Type
REMARK                         _______ _______ _______ _____ _____    ______ ____
ROOT
ATOM      1  C   UNL     1      -0.736  10.654  19.278  0.00  0.00    +0.000 A 
ATOM      2  N   UNL     1      -0.308   9.454  19.842  0.00  0.00    +0.000 NA
ATOM      3  C   UNL     1       0.688   9.660  20.673  0.00  0.00    +0.000 A 
ATOM      4  S   UNL     1       1.118  11.295  20.896  0.00  0.00    +0.000 S 
ATOM      5  C   UNL     1      -0.088  11.799  19.743  0.00  0.00    +0.000 A 
ENDROOT
BRANCH   1   9
ATOM      6  C   UNL     1      -3.592  10.618  16.085  0.00  0.00    +0.000 A 
ATOM      7  C   UNL     1      -2.493   9.761  16.074  0.00  0.00    +0.000 A 
ATOM      8  C   UNL     1      -1.600   9.739  17.149  0.00  0.00    +0.000 A 
ATOM      9  C   UNL     1      -1.779  10.589  18.252  0.00  0.00    +0.000 A 
ATOM     10  C   UNL     1      -2.892  11.440  18.258  0.00  0.00    +0.000 A 
ATOM     11  C   UNL     1      -3.795  11.451  17.185  0.00  0.00    +0.000 A 
BRANCH   6  13
ATOM     12  C   UNL     1      -3.718  10.112  13.774  0.00  0.00    +0.000 C 
ATOM     13  O   UNL     1      -4.354  10.593  14.951  0.00  0.00    +0.000 OA
ENDBRANCH   6  13
ENDBRANCH   1   9
BRANCH   5  14
ATOM     14  C   UNL     1      -0.302  13.198  19.511  0.00  0.00    +0.000 C 
ATOM     15  C   UNL     1       0.620  13.950  18.884  0.00  0.00    +0.000 C 
BRANCH  15  16
ATOM     16  C   UNL     1       0.629  15.417  18.767  0.00  0.00    +0.000 A 
ATOM     17  C   UNL     1      -0.617  16.064  18.743  0.00  0.00    +0.000 A 
ATOM     18  C   UNL     1      -0.706  17.450  18.605  0.00  0.00    +0.000 A 
ATOM     19  C   UNL     1       0.454  18.209  18.502  0.00  0.00    +0.000 A 
ATOM     20  C   UNL     1       1.700  17.583  18.544  0.00  0.00    +0.000 A 
ATOM     21  C   UNL     1       1.789  16.192  18.680  0.00  0.00    +0.000 A 
ENDBRANCH  15  16
ENDBRANCH   5  14
BRANCH   3  22
ATOM     22  C   UNL     1       1.413   8.588  21.426  0.00  0.00    +0.000 C 
BRANCH  22  23
ATOM     23  O   UNL     1       0.935   7.337  20.932  0.00  0.00    +0.000 OA
BRANCH  23  24
ATOM     24  C   UNL     1       1.849   6.520  20.331  0.00  0.00    +0.000 A 
ATOM     25  C   UNL     1       2.556   7.110  19.289  0.00  0.00    +0.000 A 
ATOM     26  C   UNL     1       3.550   6.402  18.615  0.00  0.00    +0.000 A 
ATOM     27  C   UNL     1       3.879   5.091  18.984  0.00  0.00    +0.000 A 
ATOM     28  C   UNL     1       3.115   4.457  19.980  0.00  0.00    +0.000 A 
ATOM     29  C   UNL     1       3.293   3.019  20.383  0.00  0.00    +0.000 C 
ATOM     30  C   UNL     1       2.116   5.191  20.658  0.00  0.00    +0.000 A 
BRANCH  27  31
ATOM     31  O   UNL     1       4.926   4.392  18.423  0.00  0.00    +0.000 OA
BRANCH  31  32
ATOM     32  C   UNL     1       6.211   5.001  18.614  0.00  0.00    +0.000 C 
BRANCH  32  33
ATOM     33  C   UNL     1       6.985   5.173  17.317  0.00  0.00    +0.000 C 
ATOM     34  O   UNL     1       6.814   6.096  16.535  0.00  0.00    +0.000 OA
BRANCH  33  35
ATOM     35  O   UNL     1       7.889   4.194  17.091  0.00  0.00    +0.000 OA
ATOM     36  H   UNL     1       7.515   3.328  17.360  0.00  0.00    +0.000 HD
ENDBRANCH  33  35
ENDBRANCH  32  33
ENDBRANCH  31  32
ENDBRANCH  27  31
ENDBRANCH  23  24
ENDBRANCH  22  23
ENDBRANCH   3  22
TORSDOF 11
ENDMDL
MODEL 5
REMARK VINA RESULT:      -7.5      2.554      5.711
REMARK  Name = 
REMARK  13 active torsions:
REMARK  status: ('A' for Active; 'I' for Inactive)
REMARK    1  A    between atoms: C_1  and  O_2
REMARK    2  A    between atoms: O_2  and  C_3
REMARK    3  A    between atoms: C_6  and  C_7
REMARK    4  A    between atoms: C_9  and  C_10
REMARK    5  A    between atoms: C_10  and  O_11
REMARK    6  A    between atoms: O_11  and  C_12
REMARK    7  A    between atoms: C_15  and  O_16
REMARK    8  A    between atoms: O_16  and  C_17
REMARK    9  A    between atoms: C_17  and  C_18
REMARK   10  A    between atoms: C_18  and  O_20
REMARK   11  A    between atoms: C_21  and  C_22
REMARK   12  A    between atoms: C_25  and  C_26
REMARK   13  A    between atoms: C_27  and  C_28
REMARK                            x       y       z     vdW  Elec       q    Type
REMARK                         _______ _______ _______ _____ _____    ______ ____
ROOT
ATOM      1  C   UNL     1       0.929  12.462  19.560  0.00  0.00    +0.000 A 
ATOM      2  N   UNL     1       1.739  11.588  18.836  0.00  0.00    +0.000 NA
ATOM      3  C   UNL     1       1.166  10.412  18.720  0.00  0.00    +0.000 A 
ATOM      4  S   UNL     1      -0.399  10.300  19.387  0.00  0.00    +0.000 S 
ATOM      5  C   UNL     1      -0.312  11.950  19.942  0.00  0.00    +0.000 A 
ENDROOT
BRANCH   1   9
ATOM      6  C   UNL     1       2.231  16.404  20.614  0.00  0.00    +0.000 A 
ATOM      7  C   UNL     1       2.257  15.368  21.544  0.00  0.00    +0.000 A 
ATOM      8  C   UNL     1       1.886  14.072  21.174  0.00  0.00    +0.000 A 
ATOM      9  C   UNL     1       1.464  13.790  19.865  0.00  0.00    +0.000 A 
ATOM     10  C   UNL     1       1.450  14.837  18.934  0.00  0.00    +0.000 A 
ATOM     11  C   UNL     1       1.836  16.134  19.304  0.00  0.00    +0.000 A 
BRANCH   6  13
ATOM     12  C   UNL     1       3.827  18.150  20.748  0.00  0.00    +0.000 C 
ATOM     13  O   UNL     1       2.554  17.636  21.113  0.00  0.00    +0.000 OA
ENDBRANCH   6  13
ENDBRANCH   1   9
BRANCH   5  14
ATOM     14  C   UNL     1      -1.452  12.542  20.579  0.00  0.00    +0.000 C 
ATOM     15  C   UNL     1      -1.861  12.136  21.795  0.00  0.00    +0.000 C 
BRANCH  15  16
ATOM     16  C   UNL     1      -3.118  12.499  22.468  0.00  0.00    +0.000 A 
ATOM     17  C   UNL     1      -3.217  12.206  23.838  0.00  0.00    +0.000 A 
ATOM     18  C   UNL     1      -4.382  12.489  24.553  0.00  0.00    +0.000 A 
ATOM     19  C   UNL     1      -5.462  13.081  23.906  0.00  0.00    +0.000 A 
ATOM     20  C   UNL     1      -5.371  13.396  22.549  0.00  0.00    +0.000 A 
ATOM     21  C   UNL     1      -4.203  13.110  21.832  0.00  0.00    +0.000 A 
ENDBRANCH  15  16
ENDBRANCH   5  14
BRANCH   3  22
ATOM     22  C   UNL     1       1.773   9.226  18.035  0.00  0.00    +0.000 C 
BRANCH  22  23
ATOM     23  O   UNL     1       1.983   8.231  19.037  0.00  0.00    +0.000 OA
BRANCH  23  24
ATOM     24  C   UNL     1       2.673   7.114  18.662  0.00  0.00    +0.000 A 
ATOM     25  C   UNL     1       3.530   7.298  17.583  0.00  0.00    +0.000 A 
ATOM     26  C   UNL     1       4.327   6.250  17.122  0.00  0.00    +0.000 A 
ATOM     27  C   UNL     1       4.303   4.996  17.747  0.00  0.00    +0.000 A 
ATOM     28  C   UNL     1       3.381   4.776  18.785  0.00  0.00    +0.000 A 
ATOM     29  C   UNL     1       3.179   3.445  19.456  0.00  0.00    +0.000 C 
ATOM     30  C   UNL     1       2.586   5.851  19.244  0.00  0.00    +0.000 A 
BRANCH  27  31
ATOM     31  O   UNL     1       5.150   3.967  17.399  0.00  0.00    +0.000 OA
BRANCH  31  32
ATOM     32  C   UNL     1       5.846   4.168  16.160  0.00  0.00    +0.000 C 
BRANCH  32  33
ATOM     33  C   UNL     1       7.220   4.793  16.345  0.00  0.00    +0.000 C 
ATOM     34  O   UNL     1       7.574   5.837  15.819  0.00  0.00    +0.000 OA
BRANCH  33  35
ATOM     35  O   UNL     1       8.037   4.076  17.148  0.00  0.00    +0.000 OA
ATOM     36  H   UNL     1       8.669   4.675  17.598  0.00  0.00    +0.000 HD
ENDBRANCH  33  35
ENDBRANCH  32  33
ENDBRANCH  31  32
ENDBRANCH  27  31
ENDBRANCH  23  24
ENDBRANCH  22  23
ENDBRANCH   3  22
TORSDOF 11
ENDMDL
MODEL 6
REMARK VINA RESULT:      -7.5      7.712     12.121
REMARK  Name = 
REMARK  13 active torsions:
REMARK  status: ('A' for Active; 'I' for Inactive)
REMARK    1  A    between atoms: C_1  and  O_2
REMARK    2  A    between atoms: O_2  and  C_3
REMARK    3  A    between atoms: C_6  and  C_7
REMARK    4  A    between atoms: C_9  and  C_10
REMARK    5  A    between atoms: C_10  and  O_11
REMARK    6  A    between atoms: O_11  and  C_12
REMARK    7  A    between atoms: C_15  and  O_16
REMARK    8  A    between atoms: O_16  and  C_17
REMARK    9  A    between atoms: C_17  and  C_18
REMARK   10  A    between atoms: C_18  and  O_20
REMARK   11  A    between atoms: C_21  and  C_22
REMARK   12  A    between atoms: C_25  and  C_26
REMARK   13  A    between atoms: C_27  and  C_28
REMARK                            x       y       z     vdW  Elec       q    Type
REMARK                         _______ _______ _______ _____ _____    ______ ____
ROOT
ATOM      1  C   UNL     1       5.582   5.406  17.603  0.00  0.00    +0.000 A 
ATOM      2  N   UNL     1       6.202   6.444  18.296  0.00  0.00    +0.000 NA
ATOM      3  C   UNL     1       7.318   6.798  17.701  0.00  0.00    +0.000 A 
ATOM      4  S   UNL     1       7.653   5.979  16.243  0.00  0.00    +0.000 S 
ATOM      5  C   UNL     1       6.214   5.012  16.423  0.00  0.00    +0.000 A 
ENDROOT
BRANCH   1   9
ATOM      6  C   UNL     1       2.123   3.844  19.589  0.00  0.00    +0.000 A 
ATOM      7  C   UNL     1       2.191   5.184  19.215  0.00  0.00    +0.000 A 
ATOM      8  C   UNL     1       3.299   5.670  18.515  0.00  0.00    +0.000 A 
ATOM      9  C   UNL     1       4.371   4.826  18.189  0.00  0.00    +0.000 A 
ATOM     10  C   UNL     1       4.290   3.477  18.561  0.00  0.00    +0.000 A 
ATOM     11  C   UNL     1       3.171   2.988  19.251  0.00  0.00    +0.000 A 
BRANCH   6  13
ATOM     12  C   UNL     1       1.252   2.710  21.479  0.00  0.00    +0.000 C 
ATOM     13  O   UNL     1       1.020   3.505  20.324  0.00  0.00    +0.000 OA
ENDBRANCH   6  13
ENDBRANCH   1   9
BRANCH   5  14
ATOM     14  C   UNL     1       5.850   4.087  15.389  0.00  0.00    +0.000 C 
ATOM     15  C   UNL     1       6.214   4.293  14.110  0.00  0.00    +0.000 C 
BRANCH  15  16
ATOM     16  C   UNL     1       5.741   3.553  12.930  0.00  0.00    +0.000 A 
ATOM     17  C   UNL     1       4.487   3.915  12.409  0.00  0.00    +0.000 A 
ATOM     18  C   UNL     1       3.945   3.250  11.308  0.00  0.00    +0.000 A 
ATOM     19  C   UNL     1       4.658   2.218  10.706  0.00  0.00    +0.000 A 
ATOM     20  C   UNL     1       5.913   1.861  11.200  0.00  0.00    +0.000 A 
ATOM     21  C   UNL     1       6.455   2.527  12.305  0.00  0.00    +0.000 A 
ENDBRANCH  15  16
ENDBRANCH   5  14
BRANCH   3  22
ATOM     22  C   UNL     1       8.255   7.857  18.194  0.00  0.00    +0.000 C 
BRANCH  22  23
ATOM     23  O   UNL     1       7.637   9.116  17.928  0.00  0.00    +0.000 OA
BRANCH  23  24
ATOM     24  C   UNL     1       8.379  10.234  18.183  0.00  0.00    +0.000 A 
ATOM     25  C   UNL     1       8.128  11.301  17.327  0.00  0.00    +0.000 A 
ATOM     26  C   UNL     1       8.785  12.520  17.500  0.00  0.00    +0.000 A 
ATOM     27  C   UNL     1       9.693  12.707  18.551  0.00  0.00    +0.000 A 
ATOM     28  C   UNL     1      10.014  11.611  19.370  0.00  0.00    +0.000 A 
ATOM     29  C   UNL     1      11.055  11.654  20.456  0.00  0.00    +0.000 C 
ATOM     30  C   UNL     1       9.334  10.386  19.186  0.00  0.00    +0.000 A 
BRANCH  27  31
ATOM     31  O   UNL     1      10.281  13.922  18.829  0.00  0.00    +0.000 OA
BRANCH  31  32
ATOM     32  C   UNL     1      10.999  14.495  17.726  0.00  0.00    +0.000 C 
BRANCH  32  33
ATOM     33  C   UNL     1      10.452  15.849  17.301  0.00  0.00    +0.000 C 
ATOM     34  O   UNL     1       9.939  16.651  18.067  0.00  0.00    +0.000 OA
BRANCH  33  35
ATOM     35  O   UNL     1      10.575  16.091  15.977  0.00  0.00    +0.000 OA
ATOM     36  H   UNL     1       9.955  16.803  15.711  0.00  0.00    +0.000 HD
ENDBRANCH  33  35
ENDBRANCH  32  33
ENDBRANCH  31  32
ENDBRANCH  27  31
ENDBRANCH  23  24
ENDBRANCH  22  23
ENDBRANCH   3  22
TORSDOF 11
ENDMDL
MODEL 7
REMARK VINA RESULT:      -7.4      3.182      4.482
REMARK  Name = 
REMARK  13 active torsions:
REMARK  status: ('A' for Active; 'I' for Inactive)
REMARK    1  A    between atoms: C_1  and  O_2
REMARK    2  A    between atoms: O_2  and  C_3
REMARK    3  A    between atoms: C_6  and  C_7
REMARK    4  A    between atoms: C_9  and  C_10
REMARK    5  A    between atoms: C_10  and  O_11
REMARK    6  A    between atoms: O_11  and  C_12
REMARK    7  A    between atoms: C_15  and  O_16
REMARK    8  A    between atoms: O_16  and  C_17
REMARK    9  A    between atoms: C_17  and  C_18
REMARK   10  A    between atoms: C_18  and  O_20
REMARK   11  A    between atoms: C_21  and  C_22
REMARK   12  A    between atoms: C_25  and  C_26
REMARK   13  A    between atoms: C_27  and  C_28
REMARK                            x       y       z     vdW  Elec       q    Type
REMARK                         _______ _______ _______ _____ _____    ______ ____
ROOT
ATOM      1  C   UNL     1      -1.388  11.297  19.138  0.00  0.00    +0.000 A 
ATOM      2  N   UNL     1      -0.466  10.666  18.304  0.00  0.00    +0.000 NA
ATOM      3  C   UNL     1       0.712  10.599  18.880  0.00  0.00    +0.000 A 
ATOM      4  S   UNL     1       0.774  11.203  20.473  0.00  0.00    +0.000 S 
ATOM      5  C   UNL     1      -0.907  11.656  20.398  0.00  0.00    +0.000 A 
ENDROOT
BRANCH   1   9
ATOM      6  C   UNL     1      -5.418  11.775  17.767  0.00  0.00    +0.000 A 
ATOM      7  C   UNL     1      -5.030  12.228  19.027  0.00  0.00    +0.000 A 
ATOM      8  C   UNL     1      -3.700  12.120  19.441  0.00  0.00    +0.000 A 
ATOM      9  C   UNL     1      -2.731  11.540  18.607  0.00  0.00    +0.000 A 
ATOM     10  C   UNL     1      -3.128  11.097  17.339  0.00  0.00    +0.000 A 
ATOM     11  C   UNL     1      -4.461  11.218  16.919  0.00  0.00    +0.000 A 
BRANCH   6  13
ATOM     12  C   UNL     1      -7.486  12.804  18.297  0.00  0.00    +0.000 C 
ATOM     13  O   UNL     1      -6.756  11.876  17.504  0.00  0.00    +0.000 OA
ENDBRANCH   6  13
ENDBRANCH   1   9
BRANCH   5  14
ATOM     14  C   UNL     1      -1.544  12.204  21.560  0.00  0.00    +0.000 C 
ATOM     15  C   UNL     1      -1.525  13.526  21.808  0.00  0.00    +0.000 C 
BRANCH  15  16
ATOM     16  C   UNL     1      -1.946  14.196  23.048  0.00  0.00    +0.000 A 
ATOM     17  C   UNL     1      -3.325  14.386  23.236  0.00  0.00    +0.000 A 
ATOM     18  C   UNL     1      -3.814  15.038  24.369  0.00  0.00    +0.000 A 
ATOM     19  C   UNL     1      -2.928  15.498  25.337  0.00  0.00    +0.000 A 
ATOM     20  C   UNL     1      -1.557  15.299  25.174  0.00  0.00    +0.000 A 
ATOM     21  C   UNL     1      -1.066  14.648  24.036  0.00  0.00    +0.000 A 
ENDBRANCH  15  16
ENDBRANCH   5  14
BRANCH   3  22
ATOM     22  C   UNL     1       1.941  10.018  18.253  0.00  0.00    +0.000 C 
BRANCH  22  23
ATOM     23  O   UNL     1       1.606   8.698  17.826  0.00  0.00    +0.000 OA
BRANCH  23  24
ATOM     24  C   UNL     1       2.526   7.718  18.068  0.00  0.00    +0.000 A 
ATOM     25  C   UNL     1       2.306   6.995  19.236  0.00  0.00    +0.000 A 
ATOM     26  C   UNL     1       3.145   5.936  19.584  0.00  0.00    +0.000 A 
ATOM     27  C   UNL     1       4.212   5.559  18.758  0.00  0.00    +0.000 A 
ATOM     28  C   UNL     1       4.493   6.335  17.620  0.00  0.00    +0.000 A 
ATOM     29  C   UNL     1       5.675   6.104  16.719  0.00  0.00    +0.000 C 
ATOM     30  C   UNL     1       3.628   7.399  17.277  0.00  0.00    +0.000 A 
BRANCH  27  31
ATOM     31  O   UNL     1       4.999   4.455  19.003  0.00  0.00    +0.000 OA
BRANCH  31  32
ATOM     32  C   UNL     1       4.321   3.200  18.839  0.00  0.00    +0.000 C 
BRANCH  32  33
ATOM     33  C   UNL     1       4.240   2.397  20.128  0.00  0.00    +0.000 C 
ATOM     34  O   UNL     1       3.313   2.466  20.921  0.00  0.00    +0.000 OA
BRANCH  33  35
ATOM     35  O   UNL     1       5.306   1.592  20.332  0.00  0.00    +0.000 OA
ATOM     36  H   UNL     1       5.084   0.909  21.000  0.00  0.00    +0.000 HD
ENDBRANCH  33  35
ENDBRANCH  32  33
ENDBRANCH  31  32
ENDBRANCH  27  31
ENDBRANCH  23  24
ENDBRANCH  22  23
ENDBRANCH   3  22
TORSDOF 11
ENDMDL
MODEL 8
REMARK VINA RESULT:      -7.4      3.439      5.577
REMARK  Name = 
REMARK  13 active torsions:
REMARK  status: ('A' for Active; 'I' for Inactive)
REMARK    1  A    between atoms: C_1  and  O_2
REMARK    2  A    between atoms: O_2  and  C_3
REMARK    3  A    between atoms: C_6  and  C_7
REMARK    4  A    between atoms: C_9  and  C_10
REMARK    5  A    between atoms: C_10  and  O_11
REMARK    6  A    between atoms: O_11  and  C_12
REMARK    7  A    between atoms: C_15  and  O_16
REMARK    8  A    between atoms: O_16  and  C_17
REMARK    9  A    between atoms: C_17  and  C_18
REMARK   10  A    between atoms: C_18  and  O_20
REMARK   11  A    between atoms: C_21  and  C_22
REMARK   12  A    between atoms: C_25  and  C_26
REMARK   13  A    between atoms: C_27  and  C_28
REMARK                            x       y       z     vdW  Elec       q    Type
REMARK                         _______ _______ _______ _____ _____    ______ ____
ROOT
ATOM      1  C   UNL     1      -1.732  10.909  19.120  0.00  0.00    +0.000 A 
ATOM      2  N   UNL     1      -0.670  10.043  19.370  0.00  0.00    +0.000 NA
ATOM      3  C   UNL     1      -0.018  10.406  20.451  0.00  0.00    +0.000 A 
ATOM      4  S   UNL     1      -0.676  11.744  21.278  0.00  0.00    +0.000 S 
ATOM      5  C   UNL     1      -1.922  11.912  20.072  0.00  0.00    +0.000 A 
ENDROOT
BRANCH   1   9
ATOM      6  C   UNL     1      -3.775  10.474  15.381  0.00  0.00    +0.000 A 
ATOM      7  C   UNL     1      -2.620   9.746  15.656  0.00  0.00    +0.000 A 
ATOM      8  C   UNL     1      -1.994   9.851  16.902  0.00  0.00    +0.000 A 
ATOM      9  C   UNL     1      -2.505  10.702  17.894  0.00  0.00    +0.000 A 
ATOM     10  C   UNL     1      -3.672  11.424  17.611  0.00  0.00    +0.000 A 
ATOM     11  C   UNL     1      -4.306  11.306  16.366  0.00  0.00    +0.000 A 
BRANCH   6  13
ATOM     12  C   UNL     1      -3.353   9.800  13.149  0.00  0.00    +0.000 C 
ATOM     13  O   UNL     1      -4.255  10.335  14.108  0.00  0.00    +0.000 OA
ENDBRANCH   6  13
ENDBRANCH   1   9
BRANCH   5  14
ATOM     14  C   UNL     1      -2.941  12.907  20.244  0.00  0.00    +0.000 C 
ATOM     15  C   UNL     1      -3.973  12.711  21.085  0.00  0.00    +0.000 C 
BRANCH  15  16
ATOM     16  C   UNL     1      -5.183  13.538  21.202  0.00  0.00    +0.000 A 
ATOM     17  C   UNL     1      -6.079  13.519  20.120  0.00  0.00    +0.000 A 
ATOM     18  C   UNL     1      -7.239  14.294  20.131  0.00  0.00    +0.000 A 
ATOM     19  C   UNL     1      -7.525  15.092  21.233  0.00  0.00    +0.000 A 
ATOM     20  C   UNL     1      -6.656  15.107  22.324  0.00  0.00    +0.000 A 
ATOM     21  C   UNL     1      -5.490  14.331  22.312  0.00  0.00    +0.000 A 
ENDBRANCH  15  16
ENDBRANCH   5  14
BRANCH   3  22
ATOM     22  C   UNL     1       1.200   9.720  20.989  0.00  0.00    +0.000 C 
BRANCH  22  23
ATOM     23  O   UNL     1       0.871   8.338  21.128  0.00  0.00    +0.000 OA
BRANCH  23  24
ATOM     24  C   UNL     1       1.606   7.451  20.394  0.00  0.00    +0.000 A 
ATOM     25  C   UNL     1       1.587   6.146  20.874  0.00  0.00    +0.000 A 
ATOM     26  C   UNL     1       2.261   5.130  20.197  0.00  0.00    +0.000 A 
ATOM     27  C   UNL     1       2.952   5.391  19.006  0.00  0.00    +0.000 A 
ATOM     28  C   UNL     1       3.047   6.720  18.558  0.00  0.00    +0.000 A 
ATOM     29  C   UNL     1       3.854   7.144  17.361  0.00  0.00    +0.000 C 
ATOM     30  C   UNL     1       2.352   7.736  19.251  0.00  0.00    +0.000 A 
BRANCH  27  31
ATOM     31  O   UNL     1       3.538   4.404  18.245  0.00  0.00    +0.000 OA
BRANCH  31  32
ATOM     32  C   UNL     1       2.605   3.559  17.555  0.00  0.00    +0.000 C 
BRANCH  32  33
ATOM     33  C   UNL     1       2.606   2.128  18.071  0.00  0.00    +0.000 C 
ATOM     34  O   UNL     1       3.590   1.404  18.078  0.00  0.00    +0.000 OA
BRANCH  33  35
ATOM     35  O   UNL     1       1.401   1.714  18.520  0.00  0.00    +0.000 OA
ATOM     36  H   UNL     1       0.823   1.488  17.761  0.00  0.00    +0.000 HD
ENDBRANCH  33  35
ENDBRANCH  32  33
ENDBRANCH  31  32
ENDBRANCH  27  31
ENDBRANCH  23  24
ENDBRANCH  22  23
ENDBRANCH   3  22
TORSDOF 11
ENDMDL
MODEL 9
REMARK VINA RESULT:      -7.4      0.837      1.647
REMARK  Name = 
REMARK  13 active torsions:
REMARK  status: ('A' for Active; 'I' for Inactive)
REMARK    1  A    between atoms: C_1  and  O_2
REMARK    2  A    between atoms: O_2  and  C_3
REMARK    3  A    between atoms: C_6  and  C_7
REMARK    4  A    between atoms: C_9  and  C_10
REMARK    5  A    between atoms: C_10  and  O_11
REMARK    6  A    between atoms: O_11  and  C_12
REMARK    7  A    between atoms: C_15  and  O_16
REMARK    8  A    between atoms: O_16  and  C_17
REMARK    9  A    between atoms: C_17  and  C_18
REMARK   10  A    between atoms: C_18  and  O_20
REMARK   11  A    between atoms: C_21  and  C_22
REMARK   12  A    between atoms: C_25  and  C_26
REMARK   13  A    between atoms: C_27  and  C_28
REMARK                            x       y       z     vdW  Elec       q    Type
REMARK                         _______ _______ _______ _____ _____    ______ ____
ROOT
ATOM      1  C   UNL     1      -1.015  11.841  21.703  0.00  0.00    +0.000 A 
ATOM      2  N   UNL     1      -0.809  10.497  22.007  0.00  0.00    +0.000 NA
ATOM      3  C   UNL     1       0.335  10.079  21.516  0.00  0.00    +0.000 A 
ATOM      4  S   UNL     1       1.269  11.275  20.738  0.00  0.00    +0.000 S 
ATOM      5  C   UNL     1       0.029  12.467  21.020  0.00  0.00    +0.000 A 
ENDROOT
BRANCH   1   9
ATOM      6  C   UNL     1      -4.874  13.299  22.858  0.00  0.00    +0.000 A 
ATOM      7  C   UNL     1      -4.033  12.685  23.783  0.00  0.00    +0.000 A 
ATOM      8  C   UNL     1      -2.752  12.266  23.410  0.00  0.00    +0.000 A 
ATOM      9  C   UNL     1      -2.293  12.439  22.095  0.00  0.00    +0.000 A 
ATOM     10  C   UNL     1      -3.142  13.066  21.174  0.00  0.00    +0.000 A 
ATOM     11  C   UNL     1      -4.422  13.499  21.553  0.00  0.00    +0.000 A 
BRANCH   6  13
ATOM     12  C   UNL     1      -6.800  12.574  24.032  0.00  0.00    +0.000 C 
ATOM     13  O   UNL     1      -6.121  13.605  23.326  0.00  0.00    +0.000 OA
ENDBRANCH   6  13
ENDBRANCH   1   9
BRANCH   5  14
ATOM     14  C   UNL     1       0.257  13.829  20.633  0.00  0.00    +0.000 C 
ATOM     15  C   UNL     1      -0.055  14.265  19.399  0.00  0.00    +0.000 C 
BRANCH  15  16
ATOM     16  C   UNL     1       0.312  15.559  18.803  0.00  0.00    +0.000 A 
ATOM     17  C   UNL     1       1.681  15.811  18.615  0.00  0.00    +0.000 A 
ATOM     18  C   UNL     1       2.124  17.023  18.082  0.00  0.00    +0.000 A 
ATOM     19  C   UNL     1       1.199  17.996  17.719  0.00  0.00    +0.000 A 
ATOM     20  C   UNL     1      -0.165  17.752  17.881  0.00  0.00    +0.000 A 
ATOM     21  C   UNL     1      -0.609  16.537  18.417  0.00  0.00    +0.000 A 
ENDBRANCH  15  16
ENDBRANCH   5  14
BRANCH   3  22
ATOM     22  C   UNL     1       0.855   8.679  21.624  0.00  0.00    +0.000 C 
BRANCH  22  23
ATOM     23  O   UNL     1       1.772   8.492  20.546  0.00  0.00    +0.000 OA
BRANCH  23  24
ATOM     24  C   UNL     1       1.936   7.215  20.089  0.00  0.00    +0.000 A 
ATOM     25  C   UNL     1       1.285   6.244  20.841  0.00  0.00    +0.000 A 
ATOM     26  C   UNL     1       1.334   4.902  20.463  0.00  0.00    +0.000 A 
ATOM     27  C   UNL     1       2.016   4.502  19.306  0.00  0.00    +0.000 A 
ATOM     28  C   UNL     1       2.747   5.465  18.586  0.00  0.00    +0.000 A 
ATOM     29  C   UNL     1       3.611   5.142  17.398  0.00  0.00    +0.000 C 
ATOM     30  C   UNL     1       2.680   6.820  18.979  0.00  0.00    +0.000 A 
BRANCH  27  31
ATOM     31  O   UNL     1       2.000   3.209  18.832  0.00  0.00    +0.000 OA
BRANCH  31  32
ATOM     32  C   UNL     1       2.578   2.246  19.726  0.00  0.00    +0.000 C 
BRANCH  32  33
ATOM     33  C   UNL     1       4.043   1.965  19.430  0.00  0.00    +0.000 C 
ATOM     34  O   UNL     1       4.949   2.141  20.231  0.00  0.00    +0.000 OA
BRANCH  33  35
ATOM     35  O   UNL     1       4.264   1.505  18.179  0.00  0.00    +0.000 OA
ATOM     36  H   UNL     1       3.611   0.806  17.962  0.00  0.00    +0.000 HD
ENDBRANCH  33  35
ENDBRANCH  32  33
ENDBRANCH  31  32
ENDBRANCH  27  31
ENDBRANCH  23  24
ENDBRANCH  22  23
ENDBRANCH   3  22
TORSDOF 11
ENDMDL
