MODEL 1
REMARK VINA RESULT:      -9.5      0.000      0.000
REMARK  Name = 
REMARK  7 active torsions:
REMARK  status: ('A' for Active; 'I' for Inactive)
REMARK    1  A    between atoms: C_1  and  O_2
REMARK    2  A    between atoms: O_2  and  C_3
REMARK    3  A    between atoms: C_3  and  C_5
REMARK    4  A    between atoms: C_11  and  C_12
REMARK    5  A    between atoms: C_20  and  C_21
REMARK    6  A    between atoms: C_24  and  O_25
REMARK    7  A    between atoms: O_25  and  C_26
REMARK                            x       y       z     vdW  Elec       q    Type
REMARK                         _______ _______ _______ _____ _____    ______ ____
ROOT
ATOM      1  C   UNL     1       1.734   7.172  20.580  0.00  0.00    +0.000 A 
ATOM      2  C   UNL     1       0.981   6.096  21.030  0.00  0.00    +0.000 A 
ATOM      3  C   UNL     1       1.346   4.854  20.516  0.00  0.00    +0.000 A 
ATOM      4  N   UNL     1       0.820   3.606  20.735  0.00  0.00    +0.000 N 
ATOM      5  N   UNL     1       1.435   2.629  20.062  0.00  0.00    +0.000 NA
ATOM      6  C   UNL     1       2.398   3.255  19.392  0.00  0.00    +0.000 A 
ATOM      7  N   UNL     1       3.244   2.558  18.617  0.00  0.00    +0.000 N 
ATOM      8  C   UNL     1       2.391   4.671  19.609  0.00  0.00    +0.000 A 
ATOM      9  C   UNL     1       3.104   5.816  19.188  0.00  0.00    +0.000 A 
ATOM     10  N   UNL     1       2.764   7.039  19.713  0.00  0.00    +0.000 NA
ATOM     11  H   UNL     1       0.046   3.361  21.334  0.00  0.00    +0.000 HD
ATOM     12  H   UNL     1       3.163   1.550  18.665  0.00  0.00    +0.000 HD
ATOM     13  H   UNL     1       4.196   2.874  18.478  0.00  0.00    +0.000 HD
ENDROOT
BRANCH   1  20
ATOM     14  C   UNL     1       0.807  11.951  19.629  0.00  0.00    +0.000 C 
ATOM     15  O   UNL     1       0.320  13.049  19.876  0.00  0.00    +0.000 OA
ATOM     16  N   UNL     1       0.526  10.778  20.333  0.00  0.00    +0.000 N 
ATOM     17  C   UNL     1      -0.465  10.818  21.401  0.00  0.00    +0.000 C 
ATOM     18  C   UNL     1      -0.028   9.974  22.596  0.00  0.00    +0.000 C 
ATOM     19  C   UNL     1       0.367   8.557  22.180  0.00  0.00    +0.000 C 
ATOM     20  C   UNL     1       1.412   8.577  21.051  0.00  0.00    +0.000 C 
ATOM     21  C   UNL     1       0.920   9.440  19.880  0.00  0.00    +0.000 C 
BRANCH  14  22
ATOM     22  C   UNL     1       1.829  11.848  18.485  0.00  0.00    +0.000 C 
ATOM     23  O   UNL     1       2.283  10.782  18.100  0.00  0.00    +0.000 OA
BRANCH  22  25
ATOM     24  C   UNL     1       3.411  13.512  18.130  0.00  0.00    +0.000 C 
ATOM     25  O   UNL     1       2.062  13.076  17.976  0.00  0.00    +0.000 OA
ENDBRANCH  22  25
ENDBRANCH  14  22
ENDBRANCH   1  20
BRANCH   9  26
ATOM     26  C   UNL     1       4.225   5.813  18.239  0.00  0.00    +0.000 A 
ATOM     27  C   UNL     1       4.172   6.473  16.999  0.00  0.00    +0.000 A 
ATOM     28  C   UNL     1       5.219   6.391  16.078  0.00  0.00    +0.000 A 
ATOM     29  C   UNL     1       6.390   5.725  16.415  0.00  0.00    +0.000 A 
ATOM     30  C   UNL     1       6.487   5.087  17.654  0.00  0.00    +0.000 A 
ATOM     31  C   UNL     1       5.423   5.148  18.560  0.00  0.00    +0.000 A 
BRANCH  29  32
ATOM     32  O   UNL     1       7.393   5.740  15.472  0.00  0.00    +0.000 OA
BRANCH  32  33
ATOM     33  C   UNL     1       7.188   5.052  14.298  0.00  0.00    +0.000 A 
ATOM     34  C   UNL     1       7.890   5.493  13.178  0.00  0.00    +0.000 A 
ATOM     35  C   UNL     1       7.661   4.898  11.938  0.00  0.00    +0.000 A 
ATOM     36  C   UNL     1       6.735   3.859  11.822  0.00  0.00    +0.000 A 
ATOM     37  C   UNL     1       6.085   3.371  12.954  0.00  0.00    +0.000 A 
ATOM     38  C   UNL     1       6.340   3.943  14.198  0.00  0.00    +0.000 A 
ENDBRANCH  32  33
ENDBRANCH  29  32
ENDBRANCH   9  26
TORSDOF 6
ENDMDL
MODEL 2
REMARK VINA RESULT:      -9.5      2.500      8.842
REMARK  Name = 
REMARK  7 active torsions:
REMARK  status: ('A' for Active; 'I' for Inactive)
REMARK    1  A    between atoms: C_1  and  O_2
REMARK    2  A    between atoms: O_2  and  C_3
REMARK    3  A    between atoms: C_3  and  C_5
REMARK    4  A    between atoms: C_11  and  C_12
REMARK    5  A    between atoms: C_20  and  C_21
REMARK    6  A    between atoms: C_24  and  O_25
REMARK    7  A    between atoms: O_25  and  C_26
REMARK                            x       y       z     vdW  Elec       q    Type
REMARK                         _______ _______ _______ _____ _____    ______ ____
ROOT
ATOM      1  C   UNL     1       4.476   3.728  16.906  0.00  0.00    +0.000 A 
ATOM      2  C   UNL     1       3.938   2.485  17.213  0.00  0.00    +0.000 A 
ATOM      3  C   UNL     1       2.845   2.503  18.077  0.00  0.00    +0.000 A 
ATOM      4  N   UNL     1       2.091   1.476  18.586  0.00  0.00    +0.000 N 
ATOM      5  N   UNL     1       1.105   1.873  19.395  0.00  0.00    +0.000 NA
ATOM      6  C   UNL     1       1.211   3.198  19.407  0.00  0.00    +0.000 A 
ATOM      7  N   UNL     1       0.342   3.938  20.113  0.00  0.00    +0.000 N 
ATOM      8  C   UNL     1       2.305   3.672  18.614  0.00  0.00    +0.000 A 
ATOM      9  C   UNL     1       2.915   4.898  18.265  0.00  0.00    +0.000 A 
ATOM     10  N   UNL     1       3.976   4.887  17.393  0.00  0.00    +0.000 NA
ATOM     11  H   UNL     1       2.201   0.488  18.414  0.00  0.00    +0.000 HD
ATOM     12  H   UNL     1      -0.433   3.437  20.532  0.00  0.00    +0.000 HD
ATOM     13  H   UNL     1       0.092   4.872  19.810  0.00  0.00    +0.000 HD
ENDROOT
BRANCH   1  20
ATOM     14  C   UNL     1       6.480   3.901  12.372  0.00  0.00    +0.000 C 
ATOM     15  O   UNL     1       7.345   4.214  11.561  0.00  0.00    +0.000 OA
ATOM     16  N   UNL     1       6.416   4.364  13.689  0.00  0.00    +0.000 N 
ATOM     17  C   UNL     1       7.397   5.343  14.139  0.00  0.00    +0.000 C 
ATOM     18  C   UNL     1       7.862   5.048  15.563  0.00  0.00    +0.000 C 
ATOM     19  C   UNL     1       6.686   4.874  16.524  0.00  0.00    +0.000 C 
ATOM     20  C   UNL     1       5.684   3.832  15.996  0.00  0.00    +0.000 C 
ATOM     21  C   UNL     1       5.254   4.178  14.564  0.00  0.00    +0.000 C 
BRANCH  14  22
ATOM     22  C   UNL     1       5.398   2.900  11.934  0.00  0.00    +0.000 C 
ATOM     23  O   UNL     1       5.625   1.712  11.771  0.00  0.00    +0.000 OA
BRANCH  22  25
ATOM     24  C   UNL     1       3.453   3.152  10.688  0.00  0.00    +0.000 C 
ATOM     25  O   UNL     1       4.211   3.534  11.834  0.00  0.00    +0.000 OA
ENDBRANCH  22  25
ENDBRANCH  14  22
ENDBRANCH   1  20
BRANCH   9  26
ATOM     26  C   UNL     1       2.485   6.221  18.738  0.00  0.00    +0.000 A 
ATOM     27  C   UNL     1       2.158   6.477  20.081  0.00  0.00    +0.000 A 
ATOM     28  C   UNL     1       1.676   7.721  20.496  0.00  0.00    +0.000 A 
ATOM     29  C   UNL     1       1.602   8.773  19.592  0.00  0.00    +0.000 A 
ATOM     30  C   UNL     1       1.952   8.559  18.256  0.00  0.00    +0.000 A 
ATOM     31  C   UNL     1       2.406   7.303  17.843  0.00  0.00    +0.000 A 
BRANCH  29  32
ATOM     32  O   UNL     1       1.170   9.979  20.096  0.00  0.00    +0.000 OA
BRANCH  32  33
ATOM     33  C   UNL     1       0.203  10.664  19.396  0.00  0.00    +0.000 A 
ATOM     34  C   UNL     1       0.510  11.967  19.009  0.00  0.00    +0.000 A 
ATOM     35  C   UNL     1      -0.458  12.748  18.377  0.00  0.00    +0.000 A 
ATOM     36  C   UNL     1      -1.727  12.222  18.129  0.00  0.00    +0.000 A 
ATOM     37  C   UNL     1      -2.011  10.897  18.453  0.00  0.00    +0.000 A 
ATOM     38  C   UNL     1      -1.034  10.108  19.053  0.00  0.00    +0.000 A 
ENDBRANCH  32  33
ENDBRANCH  29  32
ENDBRANCH   9  26
TORSDOF 6
ENDMDL
MODEL 3
REMARK VINA RESULT:      -9.2      4.928      7.800
REMARK  Name = 
REMARK  7 active torsions:
REMARK  status: ('A' for Active; 'I' for Inactive)
REMARK    1  A    between atoms: C_1  and  O_2
REMARK    2  A    between atoms: O_2  and  C_3
REMARK    3  A    between atoms: C_3  and  C_5
REMARK    4  A    between atoms: C_11  and  C_12
REMARK    5  A    between atoms: C_20  and  C_21
REMARK    6  A    between atoms: C_24  and  O_25
REMARK    7  A    between atoms: O_25  and  C_26
REMARK                            x       y       z     vdW  Elec       q    Type
REMARK                         _______ _______ _______ _____ _____    ______ ____
ROOT
ATOM      1  C   UNL     1      -2.035  12.294  19.661  0.00  0.00    +0.000 A 
ATOM      2  C   UNL     1      -1.572  13.565  19.352  0.00  0.00    +0.000 A 
ATOM      3  C   UNL     1      -0.238  13.636  18.954  0.00  0.00    +0.000 A 
ATOM      4  N   UNL     1       0.530  14.713  18.592  0.00  0.00    +0.000 N 
ATOM      5  N   UNL     1       1.788  14.400  18.266  0.00  0.00    +0.000 NA
ATOM      6  C   UNL     1       1.840  13.079  18.408  0.00  0.00    +0.000 A 
ATOM      7  N   UNL     1       2.972  12.413  18.131  0.00  0.00    +0.000 N 
ATOM      8  C   UNL     1       0.601  12.524  18.865  0.00  0.00    +0.000 A 
ATOM      9  C   UNL     1       0.060  11.265  19.209  0.00  0.00    +0.000 A 
ATOM     10  N   UNL     1      -1.261  11.187  19.576  0.00  0.00    +0.000 NA
ATOM     11  H   UNL     1       0.252  15.681  18.546  0.00  0.00    +0.000 HD
ATOM     12  H   UNL     1       3.719  12.959  17.719  0.00  0.00    +0.000 HD
ATOM     13  H   UNL     1       2.941  11.461  17.788  0.00  0.00    +0.000 HD
ENDROOT
BRANCH   1  20
ATOM     14  C   UNL     1      -5.657  13.082  22.956  0.00  0.00    +0.000 C 
ATOM     15  O   UNL     1      -6.830  13.186  23.301  0.00  0.00    +0.000 OA
ATOM     16  N   UNL     1      -5.221  12.990  21.633  0.00  0.00    +0.000 N 
ATOM     17  C   UNL     1      -6.202  13.088  20.559  0.00  0.00    +0.000 C 
ATOM     18  C   UNL     1      -5.898  12.097  19.437  0.00  0.00    +0.000 C 
ATOM     19  C   UNL     1      -4.452  12.205  18.956  0.00  0.00    +0.000 C 
ATOM     20  C   UNL     1      -3.463  12.096  20.131  0.00  0.00    +0.000 C 
ATOM     21  C   UNL     1      -3.817  13.113  21.225  0.00  0.00    +0.000 C 
BRANCH  14  22
ATOM     22  C   UNL     1      -4.580  13.015  24.051  0.00  0.00    +0.000 C 
ATOM     23  O   UNL     1      -4.099  11.962  24.440  0.00  0.00    +0.000 OA
BRANCH  22  25
ATOM     24  C   UNL     1      -2.831  14.488  24.464  0.00  0.00    +0.000 C 
ATOM     25  O   UNL     1      -4.239  14.265  24.427  0.00  0.00    +0.000 OA
ENDBRANCH  22  25
ENDBRANCH  14  22
ENDBRANCH   1  20
BRANCH   9  26
ATOM     26  C   UNL     1       0.795   9.993  19.179  0.00  0.00    +0.000 A 
ATOM     27  C   UNL     1       0.985   9.199  20.323  0.00  0.00    +0.000 A 
ATOM     28  C   UNL     1       1.754   8.033  20.290  0.00  0.00    +0.000 A 
ATOM     29  C   UNL     1       2.273   7.579  19.084  0.00  0.00    +0.000 A 
ATOM     30  C   UNL     1       2.073   8.328  17.922  0.00  0.00    +0.000 A 
ATOM     31  C   UNL     1       1.327   9.510  17.970  0.00  0.00    +0.000 A 
BRANCH  29  32
ATOM     32  O   UNL     1       2.971   6.392  19.130  0.00  0.00    +0.000 OA
BRANCH  32  33
ATOM     33  C   UNL     1       2.252   5.220  19.188  0.00  0.00    +0.000 A 
ATOM     34  C   UNL     1       1.850   4.790  20.451  0.00  0.00    +0.000 A 
ATOM     35  C   UNL     1       1.198   3.565  20.592  0.00  0.00    +0.000 A 
ATOM     36  C   UNL     1       0.944   2.777  19.467  0.00  0.00    +0.000 A 
ATOM     37  C   UNL     1       1.283   3.239  18.197  0.00  0.00    +0.000 A 
ATOM     38  C   UNL     1       1.904   4.477  18.055  0.00  0.00    +0.000 A 
ENDBRANCH  32  33
ENDBRANCH  29  32
ENDBRANCH   9  26
TORSDOF 6
ENDMDL
MODEL 4
REMARK VINA RESULT:      -9.2      2.506      8.909
REMARK  Name = 
REMARK  7 active torsions:
REMARK  status: ('A' for Active; 'I' for Inactive)
REMARK    1  A    between atoms: C_1  and  O_2
REMARK    2  A    between atoms: O_2  and  C_3
REMARK    3  A    between atoms: C_3  and  C_5
REMARK    4  A    between atoms: C_11  and  C_12
REMARK    5  A    between atoms: C_20  and  C_21
REMARK    6  A    between atoms: C_24  and  O_25
REMARK    7  A    between atoms: O_25  and  C_26
REMARK                            x       y       z     vdW  Elec       q    Type
REMARK                         _______ _______ _______ _____ _____    ______ ____
ROOT
ATOM      1  C   UNL     1       4.423   3.793  16.945  0.00  0.00    +0.000 A 
ATOM      2  C   UNL     1       3.892   2.553  17.273  0.00  0.00    +0.000 A 
ATOM      3  C   UNL     1       2.793   2.581  18.129  0.00  0.00    +0.000 A 
ATOM      4  N   UNL     1       2.042   1.559  18.653  0.00  0.00    +0.000 N 
ATOM      5  N   UNL     1       1.048   1.965  19.448  0.00  0.00    +0.000 NA
ATOM      6  C   UNL     1       1.145   3.292  19.434  0.00  0.00    +0.000 A 
ATOM      7  N   UNL     1       0.266   4.040  20.120  0.00  0.00    +0.000 N 
ATOM      8  C   UNL     1       2.241   3.757  18.639  0.00  0.00    +0.000 A 
ATOM      9  C   UNL     1       2.846   4.980  18.270  0.00  0.00    +0.000 A 
ATOM     10  N   UNL     1       3.913   4.958  17.406  0.00  0.00    +0.000 NA
ATOM     11  H   UNL     1       2.159   0.569  18.502  0.00  0.00    +0.000 HD
ATOM     12  H   UNL     1      -0.508   3.541  20.543  0.00  0.00    +0.000 HD
ATOM     13  H   UNL     1       0.013   4.965  19.797  0.00  0.00    +0.000 HD
ENDROOT
BRANCH   1  20
ATOM     14  C   UNL     1       6.455   3.914  12.422  0.00  0.00    +0.000 C 
ATOM     15  O   UNL     1       7.325   4.218  11.613  0.00  0.00    +0.000 OA
ATOM     16  N   UNL     1       6.383   4.392  13.733  0.00  0.00    +0.000 N 
ATOM     17  C   UNL     1       7.361   5.377  14.177  0.00  0.00    +0.000 C 
ATOM     18  C   UNL     1       7.817   5.100  15.608  0.00  0.00    +0.000 C 
ATOM     19  C   UNL     1       6.635   4.936  16.563  0.00  0.00    +0.000 C 
ATOM     20  C   UNL     1       5.637   3.887  16.042  0.00  0.00    +0.000 C 
ATOM     21  C   UNL     1       5.216   4.216  14.603  0.00  0.00    +0.000 C 
BRANCH  14  22
ATOM     22  C   UNL     1       5.377   2.907  11.989  0.00  0.00    +0.000 C 
ATOM     23  O   UNL     1       4.300   3.252  11.527  0.00  0.00    +0.000 OA
BRANCH  22  25
ATOM     24  C   UNL     1       6.106   0.984  10.910  0.00  0.00    +0.000 C 
ATOM     25  O   UNL     1       5.844   1.651  12.142  0.00  0.00    +0.000 OA
ENDBRANCH  22  25
ENDBRANCH  14  22
ENDBRANCH   1  20
BRANCH   9  26
ATOM     26  C   UNL     1       2.404   6.308  18.714  0.00  0.00    +0.000 A 
ATOM     27  C   UNL     1       2.242   7.389  17.830  0.00  0.00    +0.000 A 
ATOM     28  C   UNL     1       1.898   8.665  18.284  0.00  0.00    +0.000 A 
ATOM     29  C   UNL     1       1.610   8.869  19.628  0.00  0.00    +0.000 A 
ATOM     30  C   UNL     1       1.730   7.807  20.527  0.00  0.00    +0.000 A 
ATOM     31  C   UNL     1       2.103   6.539  20.069  0.00  0.00    +0.000 A 
BRANCH  29  32
ATOM     32  O   UNL     1       1.224  10.143  19.982  0.00  0.00    +0.000 OA
BRANCH  32  33
ATOM     33  C   UNL     1       0.180  10.717  19.294  0.00  0.00    +0.000 A 
ATOM     34  C   UNL     1      -0.945   9.923  19.079  0.00  0.00    +0.000 A 
ATOM     35  C   UNL     1      -2.002  10.412  18.311  0.00  0.00    +0.000 A 
ATOM     36  C   UNL     1      -1.934  11.697  17.766  0.00  0.00    +0.000 A 
ATOM     37  C   UNL     1      -0.840  12.515  18.039  0.00  0.00    +0.000 A 
ATOM     38  C   UNL     1       0.199  12.039  18.834  0.00  0.00    +0.000 A 
ENDBRANCH  32  33
ENDBRANCH  29  32
ENDBRANCH   9  26
TORSDOF 6
ENDMDL
MODEL 5
REMARK VINA RESULT:      -9.1      2.366      9.133
REMARK  Name = 
REMARK  7 active torsions:
REMARK  status: ('A' for Active; 'I' for Inactive)
REMARK    1  A    between atoms: C_1  and  O_2
REMARK    2  A    between atoms: O_2  and  C_3
REMARK    3  A    between atoms: C_3  and  C_5
REMARK    4  A    between atoms: C_11  and  C_12
REMARK    5  A    between atoms: C_20  and  C_21
REMARK    6  A    between atoms: C_24  and  O_25
REMARK    7  A    between atoms: O_25  and  C_26
REMARK                            x       y       z     vdW  Elec       q    Type
REMARK                         _______ _______ _______ _____ _____    ______ ____
ROOT
ATOM      1  C   UNL     1       4.489   3.745  16.890  0.00  0.00    +0.000 A 
ATOM      2  C   UNL     1       3.978   2.505  17.248  0.00  0.00    +0.000 A 
ATOM      3  C   UNL     1       2.884   2.535  18.110  0.00  0.00    +0.000 A 
ATOM      4  N   UNL     1       2.152   1.514  18.661  0.00  0.00    +0.000 N 
ATOM      5  N   UNL     1       1.157   1.922  19.453  0.00  0.00    +0.000 NA
ATOM      6  C   UNL     1       1.233   3.249  19.410  0.00  0.00    +0.000 A 
ATOM      7  N   UNL     1       0.347   3.999  20.084  0.00  0.00    +0.000 N 
ATOM      8  C   UNL     1       2.317   3.714  18.597  0.00  0.00    +0.000 A 
ATOM      9  C   UNL     1       2.901   4.937  18.198  0.00  0.00    +0.000 A 
ATOM     10  N   UNL     1       3.963   4.913  17.328  0.00  0.00    +0.000 NA
ATOM     11  H   UNL     1       2.284   0.522  18.531  0.00  0.00    +0.000 HD
ATOM     12  H   UNL     1      -0.417   3.498  20.523  0.00  0.00    +0.000 HD
ATOM     13  H   UNL     1       0.077   4.913  19.742  0.00  0.00    +0.000 HD
ENDROOT
BRANCH   1  20
ATOM     14  C   UNL     1       6.483   3.889  12.351  0.00  0.00    +0.000 C 
ATOM     15  O   UNL     1       7.349   4.193  11.536  0.00  0.00    +0.000 OA
ATOM     16  N   UNL     1       6.426   4.357  13.666  0.00  0.00    +0.000 N 
ATOM     17  C   UNL     1       7.414   5.331  14.110  0.00  0.00    +0.000 C 
ATOM     18  C   UNL     1       7.881   5.038  15.534  0.00  0.00    +0.000 C 
ATOM     19  C   UNL     1       6.705   4.876  16.498  0.00  0.00    +0.000 C 
ATOM     20  C   UNL     1       5.696   3.838  15.977  0.00  0.00    +0.000 C 
ATOM     21  C   UNL     1       5.264   4.183  14.544  0.00  0.00    +0.000 C 
BRANCH  14  22
ATOM     22  C   UNL     1       5.394   2.894  11.918  0.00  0.00    +0.000 C 
ATOM     23  O   UNL     1       5.614   1.705  11.751  0.00  0.00    +0.000 OA
BRANCH  22  25
ATOM     24  C   UNL     1       3.446   3.166  10.681  0.00  0.00    +0.000 C 
ATOM     25  O   UNL     1       4.209   3.534  11.828  0.00  0.00    +0.000 OA
ENDBRANCH  22  25
ENDBRANCH  14  22
ENDBRANCH   1  20
BRANCH   9  26
ATOM     26  C   UNL     1       2.441   6.268  18.615  0.00  0.00    +0.000 A 
ATOM     27  C   UNL     1       2.168   7.299  17.699  0.00  0.00    +0.000 A 
ATOM     28  C   UNL     1       1.808   8.581  18.121  0.00  0.00    +0.000 A 
ATOM     29  C   UNL     1       1.617   8.839  19.473  0.00  0.00    +0.000 A 
ATOM     30  C   UNL     1       1.849   7.826  20.406  0.00  0.00    +0.000 A 
ATOM     31  C   UNL     1       2.237   6.553  19.978  0.00  0.00    +0.000 A 
BRANCH  29  32
ATOM     32  O   UNL     1       1.209  10.113  19.798  0.00  0.00    +0.000 OA
BRANCH  32  33
ATOM     33  C   UNL     1       0.386  10.270  20.890  0.00  0.00    +0.000 A 
ATOM     34  C   UNL     1      -0.305  11.476  20.990  0.00  0.00    +0.000 A 
ATOM     35  C   UNL     1      -1.084  11.738  22.117  0.00  0.00    +0.000 A 
ATOM     36  C   UNL     1      -1.175  10.789  23.138  0.00  0.00    +0.000 A 
ATOM     37  C   UNL     1      -0.540   9.556  23.006  0.00  0.00    +0.000 A 
ATOM     38  C   UNL     1       0.210   9.282  21.866  0.00  0.00    +0.000 A 
ENDBRANCH  32  33
ENDBRANCH  29  32
ENDBRANCH   9  26
TORSDOF 6
ENDMDL
MODEL 6
REMARK VINA RESULT:      -9.1      4.992      7.923
REMARK  Name = 
REMARK  7 active torsions:
REMARK  status: ('A' for Active; 'I' for Inactive)
REMARK    1  A    between atoms: C_1  and  O_2
REMARK    2  A    between atoms: O_2  and  C_3
REMARK    3  A    between atoms: C_3  and  C_5
REMARK    4  A    between atoms: C_11  and  C_12
REMARK    5  A    between atoms: C_20  and  C_21
REMARK    6  A    between atoms: C_24  and  O_25
REMARK    7  A    between atoms: O_25  and  C_26
REMARK                            x       y       z     vdW  Elec       q    Type
REMARK                         _______ _______ _______ _____ _____    ______ ____
ROOT
ATOM      1  C   UNL     1      -2.207  12.097  19.315  0.00  0.00    +0.000 A 
ATOM      2  C   UNL     1      -1.776  13.399  19.097  0.00  0.00    +0.000 A 
ATOM      3  C   UNL     1      -0.409  13.547  18.872  0.00  0.00    +0.000 A 
ATOM      4  N   UNL     1       0.341  14.671  18.636  0.00  0.00    +0.000 N 
ATOM      5  N   UNL     1       1.644  14.430  18.463  0.00  0.00    +0.000 NA
ATOM      6  C   UNL     1       1.747  13.109  18.579  0.00  0.00    +0.000 A 
ATOM      7  N   UNL     1       2.938  12.509  18.431  0.00  0.00    +0.000 N 
ATOM      8  C   UNL     1       0.492  12.481  18.863  0.00  0.00    +0.000 A 
ATOM      9  C   UNL     1      -0.021  11.186  19.105  0.00  0.00    +0.000 A 
ATOM     10  N   UNL     1      -1.371  11.033  19.301  0.00  0.00    +0.000 NA
ATOM     11  H   UNL     1       0.020  15.625  18.579  0.00  0.00    +0.000 HD
ATOM     12  H   UNL     1       3.702  13.103  18.130  0.00  0.00    +0.000 HD
ATOM     13  H   UNL     1       3.000  11.567  18.064  0.00  0.00    +0.000 HD
ENDROOT
BRANCH   1  20
ATOM     14  C   UNL     1      -6.411  13.069  21.760  0.00  0.00    +0.000 C 
ATOM     15  O   UNL     1      -7.631  13.087  21.891  0.00  0.00    +0.000 OA
ATOM     16  N   UNL     1      -5.741  12.762  20.573  0.00  0.00    +0.000 N 
ATOM     17  C   UNL     1      -6.523  12.506  19.370  0.00  0.00    +0.000 C 
ATOM     18  C   UNL     1      -5.934  11.352  18.560  0.00  0.00    +0.000 C 
ATOM     19  C   UNL     1      -4.442  11.547  18.291  0.00  0.00    +0.000 C 
ATOM     20  C   UNL     1      -3.670  11.816  19.595  0.00  0.00    +0.000 C 
ATOM     21  C   UNL     1      -4.306  12.982  20.365  0.00  0.00    +0.000 C 
BRANCH  14  22
ATOM     22  C   UNL     1      -5.541  13.372  22.991  0.00  0.00    +0.000 C 
ATOM     23  O   UNL     1      -5.342  14.507  23.395  0.00  0.00    +0.000 OA
BRANCH  22  25
ATOM     24  C   UNL     1      -4.469  12.385  24.800  0.00  0.00    +0.000 C 
ATOM     25  O   UNL     1      -5.122  12.215  23.544  0.00  0.00    +0.000 OA
ENDBRANCH  22  25
ENDBRANCH  14  22
ENDBRANCH   1  20
BRANCH   9  26
ATOM     26  C   UNL     1       0.778   9.954  19.138  0.00  0.00    +0.000 A 
ATOM     27  C   UNL     1       1.392   9.417  17.993  0.00  0.00    +0.000 A 
ATOM     28  C   UNL     1       2.081   8.202  18.030  0.00  0.00    +0.000 A 
ATOM     29  C   UNL     1       2.258   7.541  19.238  0.00  0.00    +0.000 A 
ATOM     30  C   UNL     1       1.688   8.066  20.400  0.00  0.00    +0.000 A 
ATOM     31  C   UNL     1       0.974   9.268  20.350  0.00  0.00    +0.000 A 
BRANCH  29  32
ATOM     32  O   UNL     1       2.997   6.380  19.195  0.00  0.00    +0.000 OA
BRANCH  32  33
ATOM     33  C   UNL     1       2.333   5.183  19.339  0.00  0.00    +0.000 A 
ATOM     34  C   UNL     1       2.223   4.675  20.631  0.00  0.00    +0.000 A 
ATOM     35  C   UNL     1       1.643   3.423  20.837  0.00  0.00    +0.000 A 
ATOM     36  C   UNL     1       1.167   2.687  19.750  0.00  0.00    +0.000 A 
ATOM     37  C   UNL     1       1.213   3.226  18.466  0.00  0.00    +0.000 A 
ATOM     38  C   UNL     1       1.762   4.489  18.265  0.00  0.00    +0.000 A 
ENDBRANCH  32  33
ENDBRANCH  29  32
ENDBRANCH   9  26
TORSDOF 6
ENDMDL
MODEL 7
REMARK VINA RESULT:      -9.0      1.547      2.059
REMARK  Name = 
REMARK  7 active torsions:
REMARK  status: ('A' for Active; 'I' for Inactive)
REMARK    1  A    between atoms: C_1  and  O_2
REMARK    2  A    between atoms: O_2  and  C_3
REMARK    3  A    between atoms: C_3  and  C_5
REMARK    4  A    between atoms: C_11  and  C_12
REMARK    5  A    between atoms: C_20  and  C_21
REMARK    6  A    between atoms: C_24  and  O_25
REMARK    7  A    between atoms: O_25  and  C_26
REMARK                            x       y       z     vdW  Elec       q    Type
REMARK                         _______ _______ _______ _____ _____    ______ ____
ROOT
ATOM      1  C   UNL     1       1.720   7.094  20.354  0.00  0.00    +0.000 A 
ATOM      2  C   UNL     1       1.028   6.026  20.909  0.00  0.00    +0.000 A 
ATOM      3  C   UNL     1       1.472   4.762  20.527  0.00  0.00    +0.000 A 
ATOM      4  N   UNL     1       1.019   3.514  20.871  0.00  0.00    +0.000 N 
ATOM      5  N   UNL     1       1.697   2.512  20.304  0.00  0.00    +0.000 NA
ATOM      6  C   UNL     1       2.628   3.123  19.577  0.00  0.00    +0.000 A 
ATOM      7  N   UNL     1       3.522   2.403  18.882  0.00  0.00    +0.000 N 
ATOM      8  C   UNL     1       2.535   4.550  19.648  0.00  0.00    +0.000 A 
ATOM      9  C   UNL     1       3.182   5.688  19.115  0.00  0.00    +0.000 A 
ATOM     10  N   UNL     1       2.765   6.935  19.509  0.00  0.00    +0.000 NA
ATOM     11  H   UNL     1       0.255   3.285  21.489  0.00  0.00    +0.000 HD
ATOM     12  H   UNL     1       3.501   1.401  19.033  0.00  0.00    +0.000 HD
ATOM     13  H   UNL     1       4.455   2.759  18.715  0.00  0.00    +0.000 HD
ENDROOT
BRANCH   1  20
ATOM     14  C   UNL     1      -1.326  10.963  19.761  0.00  0.00    +0.000 C 
ATOM     15  O   UNL     1      -1.875  11.998  20.122  0.00  0.00    +0.000 OA
ATOM     16  N   UNL     1      -0.568  10.132  20.589  0.00  0.00    +0.000 N 
ATOM     17  C   UNL     1      -0.460  10.458  22.006  0.00  0.00    +0.000 C 
ATOM     18  C   UNL     1       0.954  10.210  22.526  0.00  0.00    +0.000 C 
ATOM     19  C   UNL     1       1.451   8.806  22.182  0.00  0.00    +0.000 C 
ATOM     20  C   UNL     1       1.311   8.518  20.677  0.00  0.00    +0.000 C 
ATOM     21  C   UNL     1      -0.128   8.785  20.212  0.00  0.00    +0.000 C 
BRANCH  14  22
ATOM     22  C   UNL     1      -1.445  10.552  18.284  0.00  0.00    +0.000 C 
ATOM     23  O   UNL     1      -0.496  10.573  17.516  0.00  0.00    +0.000 OA
BRANCH  22  25
ATOM     24  C   UNL     1      -3.455  11.026  17.220  0.00  0.00    +0.000 C 
ATOM     25  O   UNL     1      -2.701  10.128  18.032  0.00  0.00    +0.000 OA
ENDBRANCH  22  25
ENDBRANCH  14  22
ENDBRANCH   1  20
BRANCH   9  26
ATOM     26  C   UNL     1       4.311   5.654  18.175  0.00  0.00    +0.000 A 
ATOM     27  C   UNL     1       4.278   6.296  16.925  0.00  0.00    +0.000 A 
ATOM     28  C   UNL     1       5.331   6.187  16.014  0.00  0.00    +0.000 A 
ATOM     29  C   UNL     1       6.490   5.510  16.372  0.00  0.00    +0.000 A 
ATOM     30  C   UNL     1       6.568   4.889  17.620  0.00  0.00    +0.000 A 
ATOM     31  C   UNL     1       5.497   4.979  18.516  0.00  0.00    +0.000 A 
BRANCH  29  32
ATOM     32  O   UNL     1       7.501   5.497  15.437  0.00  0.00    +0.000 OA
BRANCH  32  33
ATOM     33  C   UNL     1       7.229   4.968  14.196  0.00  0.00    +0.000 A 
ATOM     34  C   UNL     1       6.276   3.953  14.139  0.00  0.00    +0.000 A 
ATOM     35  C   UNL     1       6.019   3.311  12.928  0.00  0.00    +0.000 A 
ATOM     36  C   UNL     1       6.710   3.691  11.775  0.00  0.00    +0.000 A 
ATOM     37  C   UNL     1       7.612   4.752  11.818  0.00  0.00    +0.000 A 
ATOM     38  C   UNL     1       7.844   5.414  13.020  0.00  0.00    +0.000 A 
ENDBRANCH  32  33
ENDBRANCH  29  32
ENDBRANCH   9  26
TORSDOF 6
ENDMDL
MODEL 8
REMARK VINA RESULT:      -8.9      4.895      7.843
REMARK  Name = 
REMARK  7 active torsions:
REMARK  status: ('A' for Active; 'I' for Inactive)
REMARK    1  A    between atoms: C_1  and  O_2
REMARK    2  A    between atoms: O_2  and  C_3
REMARK    3  A    between atoms: C_3  and  C_5
REMARK    4  A    between atoms: C_11  and  C_12
REMARK    5  A    between atoms: C_20  and  C_21
REMARK    6  A    between atoms: C_24  and  O_25
REMARK    7  A    between atoms: O_25  and  C_26
REMARK                            x       y       z     vdW  Elec       q    Type
REMARK                         _______ _______ _______ _____ _____    ______ ____
ROOT
ATOM      1  C   UNL     1      -2.067  12.219  19.466  0.00  0.00    +0.000 A 
ATOM      2  C   UNL     1      -1.623  13.511  19.218  0.00  0.00    +0.000 A 
ATOM      3  C   UNL     1      -0.270  13.629  18.905  0.00  0.00    +0.000 A 
ATOM      4  N   UNL     1       0.487  14.736  18.618  0.00  0.00    +0.000 N 
ATOM      5  N   UNL     1       1.770  14.467  18.362  0.00  0.00    +0.000 NA
ATOM      6  C   UNL     1       1.852  13.144  18.473  0.00  0.00    +0.000 A 
ATOM      7  N   UNL     1       3.018  12.518  18.249  0.00  0.00    +0.000 N 
ATOM      8  C   UNL     1       0.604  12.543  18.839  0.00  0.00    +0.000 A 
ATOM      9  C   UNL     1       0.081  11.260  19.117  0.00  0.00    +0.000 A 
ATOM     10  N   UNL     1      -1.257  11.137  19.399  0.00  0.00    +0.000 NA
ATOM     11  H   UNL     1       0.183  15.697  18.580  0.00  0.00    +0.000 HD
ATOM     12  H   UNL     1       3.772  13.096  17.898  0.00  0.00    +0.000 HD
ATOM     13  H   UNL     1       3.035  11.575  17.880  0.00  0.00    +0.000 HD
ENDROOT
BRANCH   1  20
ATOM     14  C   UNL     1      -6.020  13.138  22.317  0.00  0.00    +0.000 C 
ATOM     15  O   UNL     1      -7.224  13.190  22.548  0.00  0.00    +0.000 OA
ATOM     16  N   UNL     1      -5.460  12.907  21.058  0.00  0.00    +0.000 N 
ATOM     17  C   UNL     1      -6.343  12.781  19.906  0.00  0.00    +0.000 C 
ATOM     18  C   UNL     1      -5.871  11.679  18.961  0.00  0.00    +0.000 C 
ATOM     19  C   UNL     1      -4.397  11.840  18.587  0.00  0.00    +0.000 C 
ATOM     20  C   UNL     1      -3.514  11.969  19.841  0.00  0.00    +0.000 C 
ATOM     21  C   UNL     1      -4.037  13.090  20.752  0.00  0.00    +0.000 C 
BRANCH  14  22
ATOM     22  C   UNL     1      -5.044  13.304  23.493  0.00  0.00    +0.000 C 
ATOM     23  O   UNL     1      -4.803  12.404  24.282  0.00  0.00    +0.000 OA
BRANCH  22  25
ATOM     24  C   UNL     1      -5.242  15.524  24.148  0.00  0.00    +0.000 C 
ATOM     25  O   UNL     1      -4.490  14.534  23.449  0.00  0.00    +0.000 OA
ENDBRANCH  22  25
ENDBRANCH  14  22
ENDBRANCH   1  20
BRANCH   9  26
ATOM     26  C   UNL     1       0.853  10.011  19.099  0.00  0.00    +0.000 A 
ATOM     27  C   UNL     1       1.435   9.494  17.928  0.00  0.00    +0.000 A 
ATOM     28  C   UNL     1       2.098   8.265  17.918  0.00  0.00    +0.000 A 
ATOM     29  C   UNL     1       2.281   7.565  19.104  0.00  0.00    +0.000 A 
ATOM     30  C   UNL     1       1.744   8.069  20.291  0.00  0.00    +0.000 A 
ATOM     31  C   UNL     1       1.056   9.286  20.288  0.00  0.00    +0.000 A 
BRANCH  29  32
ATOM     32  O   UNL     1       2.994   6.390  19.014  0.00  0.00    +0.000 OA
BRANCH  32  33
ATOM     33  C   UNL     1       2.321   5.207  19.215  0.00  0.00    +0.000 A 
ATOM     34  C   UNL     1       2.001   4.464  18.081  0.00  0.00    +0.000 A 
ATOM     35  C   UNL     1       1.241   3.301  18.206  0.00  0.00    +0.000 A 
ATOM     36  C   UNL     1       0.807   2.882  19.466  0.00  0.00    +0.000 A 
ATOM     37  C   UNL     1       1.186   3.588  20.606  0.00  0.00    +0.000 A 
ATOM     38  C   UNL     1       1.973   4.729  20.484  0.00  0.00    +0.000 A 
ENDBRANCH  32  33
ENDBRANCH  29  32
ENDBRANCH   9  26
TORSDOF 6
ENDMDL
MODEL 9
REMARK VINA RESULT:      -8.9      1.601      2.024
REMARK  Name = 
REMARK  7 active torsions:
REMARK  status: ('A' for Active; 'I' for Inactive)
REMARK    1  A    between atoms: C_1  and  O_2
REMARK    2  A    between atoms: O_2  and  C_3
REMARK    3  A    between atoms: C_3  and  C_5
REMARK    4  A    between atoms: C_11  and  C_12
REMARK    5  A    between atoms: C_20  and  C_21
REMARK    6  A    between atoms: C_24  and  O_25
REMARK    7  A    between atoms: O_25  and  C_26
REMARK                            x       y       z     vdW  Elec       q    Type
REMARK                         _______ _______ _______ _____ _____    ______ ____
ROOT
ATOM      1  C   UNL     1       1.818   7.152  20.425  0.00  0.00    +0.000 A 
ATOM      2  C   UNL     1       1.235   6.101  21.121  0.00  0.00    +0.000 A 
ATOM      3  C   UNL     1       1.736   4.836  20.823  0.00  0.00    +0.000 A 
ATOM      4  N   UNL     1       1.390   3.601  21.309  0.00  0.00    +0.000 N 
ATOM      5  N   UNL     1       2.096   2.592  20.788  0.00  0.00    +0.000 NA
ATOM      6  C   UNL     1       2.935   3.187  19.946  0.00  0.00    +0.000 A 
ATOM      7  N   UNL     1       3.828   2.459  19.256  0.00  0.00    +0.000 N 
ATOM      8  C   UNL     1       2.753   4.606  19.894  0.00  0.00    +0.000 A 
ATOM      9  C   UNL     1       3.287   5.725  19.216  0.00  0.00    +0.000 A 
ATOM     10  N   UNL     1       2.814   6.977  19.526  0.00  0.00    +0.000 NA
ATOM     11  H   UNL     1       0.684   3.385  21.997  0.00  0.00    +0.000 HD
ATOM     12  H   UNL     1       3.883   1.477  19.498  0.00  0.00    +0.000 HD
ATOM     13  H   UNL     1       4.723   2.854  18.993  0.00  0.00    +0.000 HD
ENDROOT
BRANCH   1  20
ATOM     14  C   UNL     1      -1.340  10.853  19.461  0.00  0.00    +0.000 C 
ATOM     15  O   UNL     1      -1.948  11.882  19.735  0.00  0.00    +0.000 OA
ATOM     16  N   UNL     1      -0.596  10.099  20.372  0.00  0.00    +0.000 N 
ATOM     17  C   UNL     1      -0.577  10.505  21.772  0.00  0.00    +0.000 C 
ATOM     18  C   UNL     1       0.816  10.345  22.377  0.00  0.00    +0.000 C 
ATOM     19  C   UNL     1       1.385   8.947  22.138  0.00  0.00    +0.000 C 
ATOM     20  C   UNL     1       1.337   8.572  20.646  0.00  0.00    +0.000 C 
ATOM     21  C   UNL     1      -0.084   8.754  20.093  0.00  0.00    +0.000 C 
BRANCH  14  22
ATOM     22  C   UNL     1      -1.363  10.359  18.005  0.00  0.00    +0.000 C 
ATOM     23  O   UNL     1      -0.364   9.958  17.429  0.00  0.00    +0.000 OA
BRANCH  22  25
ATOM     24  C   UNL     1      -2.745  10.969  16.240  0.00  0.00    +0.000 C 
ATOM     25  O   UNL     1      -2.629  10.389  17.538  0.00  0.00    +0.000 OA
ENDBRANCH  22  25
ENDBRANCH  14  22
ENDBRANCH   1  20
BRANCH   9  26
ATOM     26  C   UNL     1       4.353   5.671  18.207  0.00  0.00    +0.000 A 
ATOM     27  C   UNL     1       5.540   4.942  18.394  0.00  0.00    +0.000 A 
ATOM     28  C   UNL     1       6.574   4.968  17.455  0.00  0.00    +0.000 A 
ATOM     29  C   UNL     1       6.406   5.648  16.256  0.00  0.00    +0.000 A 
ATOM     30  C   UNL     1       5.223   6.356  16.025  0.00  0.00    +0.000 A 
ATOM     31  C   UNL     1       4.204   6.349  16.982  0.00  0.00    +0.000 A 
BRANCH  29  32
ATOM     32  O   UNL     1       7.451   5.576  15.363  0.00  0.00    +0.000 OA
BRANCH  32  33
ATOM     33  C   UNL     1       7.233   4.948  14.159  0.00  0.00    +0.000 A 
ATOM     34  C   UNL     1       7.948   5.422  13.061  0.00  0.00    +0.000 A 
ATOM     35  C   UNL     1       7.707   4.890  11.794  0.00  0.00    +0.000 A 
ATOM     36  C   UNL     1       6.756   3.881  11.629  0.00  0.00    +0.000 A 
ATOM     37  C   UNL     1       6.091   3.359  12.737  0.00  0.00    +0.000 A 
ATOM     38  C   UNL     1       6.356   3.867  14.006  0.00  0.00    +0.000 A 
ENDBRANCH  32  33
ENDBRANCH  29  32
ENDBRANCH   9  26
TORSDOF 6
ENDMDL
