MODEL 1
REMARK VINA RESULT:      -7.0      0.000      0.000
REMARK  Name = 
REMARK  10 active torsions:
REMARK  status: ('A' for Active; 'I' for Inactive)
REMARK    1  A    between atoms: C_1  and  O_2
REMARK    2  A    between atoms: O_2  and  C_3
REMARK    3  A    between atoms: C_5  and  C_6
REMARK    4  A    between atoms: N_8  and  N_9
REMARK    5  A    between atoms: C_10  and  C_11
REMARK    6  A    between atoms: C_10  and  C_12
REMARK    7  A    between atoms: C_19  and  O_20
REMARK    8  A    between atoms: O_20  and  C_21
REMARK    9  A    between atoms: C_22  and  O_23
REMARK   10  A    between atoms: O_23  and  C_24
REMARK                            x       y       z     vdW  Elec       q    Type
REMARK                         _______ _______ _______ _____ _____    ______ ____
ROOT
ATOM      1  C   UNL     1       2.440   6.403  19.725  0.00  0.00    +0.000 C 
ATOM      2  O   UNL     1       2.012   5.713  20.651  0.00  0.00    +0.000 OA
ATOM      3  N   UNL     1       2.189   7.756  19.535  0.00  0.00    +0.000 N 
ATOM      4  H   UNL     1       2.453   8.195  18.665  0.00  0.00    +0.000 HD
ENDROOT
BRANCH   1   7
ATOM      5  C   UNL     1       5.070   5.937  17.039  0.00  0.00    +0.000 A 
ATOM      6  C   UNL     1       4.182   6.528  17.955  0.00  0.00    +0.000 A 
ATOM      7  C   UNL     1       3.254   5.754  18.653  0.00  0.00    +0.000 A 
ATOM      8  C   UNL     1       3.139   4.400  18.351  0.00  0.00    +0.000 A 
ATOM      9  C   UNL     1       3.964   3.803  17.384  0.00  0.00    +0.000 A 
ATOM     10  C   UNL     1       4.946   4.567  16.711  0.00  0.00    +0.000 A 
BRANCH   5  12
ATOM     11  C   UNL     1       7.066   7.193  17.306  0.00  0.00    +0.000 C 
ATOM     12  O   UNL     1       6.046   6.693  16.440  0.00  0.00    +0.000 OA
ENDBRANCH   5  12
BRANCH   9  13
ATOM     13  O   UNL     1       3.677   2.465  17.255  0.00  0.00    +0.000 OA
ATOM     14  C   UNL     1       3.321   1.707  18.401  0.00  0.00    +0.000 C 
ENDBRANCH   9  13
BRANCH  10  15
ATOM     15  O   UNL     1       5.697   3.886  15.793  0.00  0.00    +0.000 OA
ATOM     16  C   UNL     1       5.578   4.122  14.402  0.00  0.00    +0.000 C 
ENDBRANCH  10  15
ENDBRANCH   1   7
BRANCH   3  17
ATOM     17  N   UNL     1       1.373   8.422  20.399  0.00  0.00    +0.000 NA
ATOM     18  C   UNL     1       0.892   9.595  20.086  0.00  0.00    +0.000 C 
ATOM     19  C   UNL     1       1.196  10.368  18.818  0.00  0.00    +0.000 C 
BRANCH  18  20
ATOM     20  C   UNL     1      -0.036  10.277  21.049  0.00  0.00    +0.000 A 
ATOM     21  C   UNL     1      -0.180   9.813  22.351  0.00  0.00    +0.000 A 
ATOM     22  C   UNL     1      -1.051  10.487  23.203  0.00  0.00    +0.000 A 
ATOM     23  C   UNL     1      -1.751  11.594  22.733  0.00  0.00    +0.000 A 
ATOM     24  C   UNL     1      -1.548  11.986  21.421  0.00  0.00    +0.000 A 
ATOM     25  N   UNL     1      -0.712  11.356  20.567  0.00  0.00    +0.000 NA
ENDBRANCH  18  20
ENDBRANCH   3  17
TORSDOF 6
ENDMDL
MODEL 2
REMARK VINA RESULT:      -6.9      0.603      1.008
REMARK  Name = 
REMARK  10 active torsions:
REMARK  status: ('A' for Active; 'I' for Inactive)
REMARK    1  A    between atoms: C_1  and  O_2
REMARK    2  A    between atoms: O_2  and  C_3
REMARK    3  A    between atoms: C_5  and  C_6
REMARK    4  A    between atoms: N_8  and  N_9
REMARK    5  A    between atoms: C_10  and  C_11
REMARK    6  A    between atoms: C_10  and  C_12
REMARK    7  A    between atoms: C_19  and  O_20
REMARK    8  A    between atoms: O_20  and  C_21
REMARK    9  A    between atoms: C_22  and  O_23
REMARK   10  A    between atoms: O_23  and  C_24
REMARK                            x       y       z     vdW  Elec       q    Type
REMARK                         _______ _______ _______ _____ _____    ______ ____
ROOT
ATOM      1  C   UNL     1       2.306   6.553  19.690  0.00  0.00    +0.000 C 
ATOM      2  O   UNL     1       1.760   5.858  20.547  0.00  0.00    +0.000 OA
ATOM      3  N   UNL     1       2.212   7.935  19.582  0.00  0.00    +0.000 N 
ATOM      4  H   UNL     1       2.564   8.396  18.756  0.00  0.00    +0.000 HD
ENDROOT
BRANCH   1   7
ATOM      5  C   UNL     1       4.929   6.017  17.010  0.00  0.00    +0.000 A 
ATOM      6  C   UNL     1       4.062   6.631  17.932  0.00  0.00    +0.000 A 
ATOM      7  C   UNL     1       3.097   5.887  18.611  0.00  0.00    +0.000 A 
ATOM      8  C   UNL     1       2.926   4.545  18.287  0.00  0.00    +0.000 A 
ATOM      9  C   UNL     1       3.730   3.928  17.315  0.00  0.00    +0.000 A 
ATOM     10  C   UNL     1       4.748   4.660  16.660  0.00  0.00    +0.000 A 
BRANCH   5  12
ATOM     11  C   UNL     1       7.131   6.882  17.206  0.00  0.00    +0.000 C 
ATOM     12  O   UNL     1       5.941   6.740  16.429  0.00  0.00    +0.000 OA
ENDBRANCH   5  12
BRANCH   9  13
ATOM     13  O   UNL     1       3.386   2.606  17.161  0.00  0.00    +0.000 OA
ATOM     14  C   UNL     1       3.238   1.779  18.306  0.00  0.00    +0.000 C 
ENDBRANCH   9  13
BRANCH  10  15
ATOM     15  O   UNL     1       5.474   3.962  15.734  0.00  0.00    +0.000 OA
ATOM     16  C   UNL     1       5.500   4.330  14.367  0.00  0.00    +0.000 C 
ENDBRANCH  10  15
ENDBRANCH   1   7
BRANCH   3  17
ATOM     17  N   UNL     1       1.430   8.632  20.454  0.00  0.00    +0.000 NA
ATOM     18  C   UNL     1       0.696   9.627  20.037  0.00  0.00    +0.000 C 
ATOM     19  C   UNL     1       0.650  10.161  18.618  0.00  0.00    +0.000 C 
BRANCH  18  20
ATOM     20  C   UNL     1      -0.181  10.342  21.023  0.00  0.00    +0.000 A 
ATOM     21  C   UNL     1      -0.906  11.467  20.648  0.00  0.00    +0.000 A 
ATOM     22  C   UNL     1      -1.707  12.089  21.603  0.00  0.00    +0.000 A 
ATOM     23  C   UNL     1      -1.757  11.576  22.896  0.00  0.00    +0.000 A 
ATOM     24  C   UNL     1      -1.000  10.453  23.183  0.00  0.00    +0.000 A 
ATOM     25  N   UNL     1      -0.213   9.826  22.282  0.00  0.00    +0.000 NA
ENDBRANCH  18  20
ENDBRANCH   3  17
TORSDOF 6
ENDMDL
MODEL 3
REMARK VINA RESULT:      -6.9      2.075      2.782
REMARK  Name = 
REMARK  10 active torsions:
REMARK  status: ('A' for Active; 'I' for Inactive)
REMARK    1  A    between atoms: C_1  and  O_2
REMARK    2  A    between atoms: O_2  and  C_3
REMARK    3  A    between atoms: C_5  and  C_6
REMARK    4  A    between atoms: N_8  and  N_9
REMARK    5  A    between atoms: C_10  and  C_11
REMARK    6  A    between atoms: C_10  and  C_12
REMARK    7  A    between atoms: C_19  and  O_20
REMARK    8  A    between atoms: O_20  and  C_21
REMARK    9  A    between atoms: C_22  and  O_23
REMARK   10  A    between atoms: O_23  and  C_24
REMARK                            x       y       z     vdW  Elec       q    Type
REMARK                         _______ _______ _______ _____ _____    ______ ____
ROOT
ATOM      1  C   UNL     1       2.156   7.583  19.614  0.00  0.00    +0.000 C 
ATOM      2  O   UNL     1       2.169   8.291  18.606  0.00  0.00    +0.000 OA
ATOM      3  N   UNL     1       1.776   7.988  20.887  0.00  0.00    +0.000 N 
ATOM      4  H   UNL     1       1.949   7.381  21.676  0.00  0.00    +0.000 HD
ENDROOT
BRANCH   1   7
ATOM      5  C   UNL     1       4.474   4.651  18.999  0.00  0.00    +0.000 A 
ATOM      6  C   UNL     1       3.911   5.940  18.982  0.00  0.00    +0.000 A 
ATOM      7  C   UNL     1       2.644   6.174  19.517  0.00  0.00    +0.000 A 
ATOM      8  C   UNL     1       1.892   5.095  19.972  0.00  0.00    +0.000 A 
ATOM      9  C   UNL     1       2.404   3.788  19.929  0.00  0.00    +0.000 A 
ATOM     10  C   UNL     1       3.710   3.547  19.440  0.00  0.00    +0.000 A 
BRANCH   5  12
ATOM     11  C   UNL     1       6.754   5.294  19.162  0.00  0.00    +0.000 C 
ATOM     12  O   UNL     1       5.762   4.456  18.566  0.00  0.00    +0.000 OA
ENDBRANCH   5  12
BRANCH   9  13
ATOM     13  O   UNL     1       1.493   2.888  20.429  0.00  0.00    +0.000 OA
ATOM     14  C   UNL     1       1.471   2.607  21.821  0.00  0.00    +0.000 C 
ENDBRANCH   9  13
BRANCH  10  15
ATOM     15  O   UNL     1       4.110   2.239  19.446  0.00  0.00    +0.000 OA
ATOM     16  C   UNL     1       3.792   1.351  18.390  0.00  0.00    +0.000 C 
ENDBRANCH  10  15
ENDBRANCH   1   7
BRANCH   3  17
ATOM     17  N   UNL     1       1.412   9.282  21.107  0.00  0.00    +0.000 NA
ATOM     18  C   UNL     1       0.294   9.561  21.720  0.00  0.00    +0.000 C 
ATOM     19  C   UNL     1      -0.731   8.551  22.198  0.00  0.00    +0.000 C 
BRANCH  18  20
ATOM     20  C   UNL     1      -0.051  10.998  21.978  0.00  0.00    +0.000 A 
ATOM     21  C   UNL     1      -1.059  11.341  22.872  0.00  0.00    +0.000 A 
ATOM     22  C   UNL     1      -1.334  12.691  23.076  0.00  0.00    +0.000 A 
ATOM     23  C   UNL     1      -0.603  13.653  22.384  0.00  0.00    +0.000 A 
ATOM     24  C   UNL     1       0.382  13.222  21.512  0.00  0.00    +0.000 A 
ATOM     25  N   UNL     1       0.674  11.922  21.289  0.00  0.00    +0.000 NA
ENDBRANCH  18  20
ENDBRANCH   3  17
TORSDOF 6
ENDMDL
MODEL 4
REMARK VINA RESULT:      -6.9      1.485      3.060
REMARK  Name = 
REMARK  10 active torsions:
REMARK  status: ('A' for Active; 'I' for Inactive)
REMARK    1  A    between atoms: C_1  and  O_2
REMARK    2  A    between atoms: O_2  and  C_3
REMARK    3  A    between atoms: C_5  and  C_6
REMARK    4  A    between atoms: N_8  and  N_9
REMARK    5  A    between atoms: C_10  and  C_11
REMARK    6  A    between atoms: C_10  and  C_12
REMARK    7  A    between atoms: C_19  and  O_20
REMARK    8  A    between atoms: O_20  and  C_21
REMARK    9  A    between atoms: C_22  and  O_23
REMARK   10  A    between atoms: O_23  and  C_24
REMARK                            x       y       z     vdW  Elec       q    Type
REMARK                         _______ _______ _______ _____ _____    ______ ____
ROOT
ATOM      1  C   UNL     1       2.170   8.403  18.153  0.00  0.00    +0.000 C 
ATOM      2  O   UNL     1       1.977   9.257  17.287  0.00  0.00    +0.000 OA
ATOM      3  N   UNL     1       1.611   8.392  19.424  0.00  0.00    +0.000 N 
ATOM      4  H   UNL     1       1.953   7.738  20.113  0.00  0.00    +0.000 HD
ENDROOT
BRANCH   1   7
ATOM      5  C   UNL     1       3.545   4.900  17.718  0.00  0.00    +0.000 A 
ATOM      6  C   UNL     1       2.728   5.981  18.095  0.00  0.00    +0.000 A 
ATOM      7  C   UNL     1       3.137   7.297  17.877  0.00  0.00    +0.000 A 
ATOM      8  C   UNL     1       4.415   7.534  17.380  0.00  0.00    +0.000 A 
ATOM      9  C   UNL     1       5.277   6.471  17.067  0.00  0.00    +0.000 A 
ATOM     10  C   UNL     1       4.852   5.132  17.232  0.00  0.00    +0.000 A 
BRANCH   5  12
ATOM     11  C   UNL     1       3.202   3.031  19.141  0.00  0.00    +0.000 C 
ATOM     12  O   UNL     1       3.085   3.613  17.842  0.00  0.00    +0.000 OA
ENDBRANCH   5  12
BRANCH   9  13
ATOM     13  O   UNL     1       6.480   6.940  16.593  0.00  0.00    +0.000 OA
ATOM     14  C   UNL     1       7.492   7.334  17.508  0.00  0.00    +0.000 C 
ENDBRANCH   9  13
BRANCH  10  15
ATOM     15  O   UNL     1       5.769   4.176  16.894  0.00  0.00    +0.000 OA
ATOM     16  C   UNL     1       5.951   3.749  15.557  0.00  0.00    +0.000 C 
ENDBRANCH  10  15
ENDBRANCH   1   7
BRANCH   3  17
ATOM     17  N   UNL     1       0.795   9.411  19.815  0.00  0.00    +0.000 NA
ATOM     18  C   UNL     1       0.660   9.704  21.080  0.00  0.00    +0.000 C 
ATOM     19  C   UNL     1       1.305   8.963  22.236  0.00  0.00    +0.000 C 
BRANCH  18  20
ATOM     20  C   UNL     1      -0.216  10.859  21.466  0.00  0.00    +0.000 A 
ATOM     21  C   UNL     1      -0.776  10.937  22.735  0.00  0.00    +0.000 A 
ATOM     22  C   UNL     1      -1.579  12.034  23.040  0.00  0.00    +0.000 A 
ATOM     23  C   UNL     1      -1.800  13.013  22.075  0.00  0.00    +0.000 A 
ATOM     24  C   UNL     1      -1.204  12.853  20.835  0.00  0.00    +0.000 A 
ATOM     25  N   UNL     1      -0.422  11.803  20.506  0.00  0.00    +0.000 NA
ENDBRANCH  18  20
ENDBRANCH   3  17
TORSDOF 6
ENDMDL
MODEL 5
REMARK VINA RESULT:      -6.8      1.556      1.874
REMARK  Name = 
REMARK  10 active torsions:
REMARK  status: ('A' for Active; 'I' for Inactive)
REMARK    1  A    between atoms: C_1  and  O_2
REMARK    2  A    between atoms: O_2  and  C_3
REMARK    3  A    between atoms: C_5  and  C_6
REMARK    4  A    between atoms: N_8  and  N_9
REMARK    5  A    between atoms: C_10  and  C_11
REMARK    6  A    between atoms: C_10  and  C_12
REMARK    7  A    between atoms: C_19  and  O_20
REMARK    8  A    between atoms: O_20  and  C_21
REMARK    9  A    between atoms: C_22  and  O_23
REMARK   10  A    between atoms: O_23  and  C_24
REMARK                            x       y       z     vdW  Elec       q    Type
REMARK                         _______ _______ _______ _____ _____    ______ ____
ROOT
ATOM      1  C   UNL     1       2.026   8.538  18.231  0.00  0.00    +0.000 C 
ATOM      2  O   UNL     1       1.720   9.323  17.332  0.00  0.00    +0.000 OA
ATOM      3  N   UNL     1       1.658   8.647  19.565  0.00  0.00    +0.000 N 
ATOM      4  H   UNL     1       2.087   8.043  20.252  0.00  0.00    +0.000 HD
ENDROOT
BRANCH   1   7
ATOM      5  C   UNL     1       5.076   6.616  17.069  0.00  0.00    +0.000 A 
ATOM      6  C   UNL     1       4.133   7.641  17.263  0.00  0.00    +0.000 A 
ATOM      7  C   UNL     1       2.925   7.387  17.913  0.00  0.00    +0.000 A 
ATOM      8  C   UNL     1       2.612   6.080  18.274  0.00  0.00    +0.000 A 
ATOM      9  C   UNL     1       3.508   5.027  18.022  0.00  0.00    +0.000 A 
ATOM     10  C   UNL     1       4.759   5.282  17.413  0.00  0.00    +0.000 A 
BRANCH   5  12
ATOM     11  C   UNL     1       7.326   7.272  17.448  0.00  0.00    +0.000 C 
ATOM     12  O   UNL     1       6.302   6.903  16.523  0.00  0.00    +0.000 OA
ENDBRANCH   5  12
BRANCH   9  13
ATOM     13  O   UNL     1       2.993   3.831  18.463  0.00  0.00    +0.000 OA
ATOM     14  C   UNL     1       2.350   2.960  17.544  0.00  0.00    +0.000 C 
ENDBRANCH   9  13
BRANCH  10  15
ATOM     15  O   UNL     1       5.554   4.187  17.218  0.00  0.00    +0.000 OA
ATOM     16  C   UNL     1       5.821   3.673  15.926  0.00  0.00    +0.000 C 
ENDBRANCH  10  15
ENDBRANCH   1   7
BRANCH   3  17
ATOM     17  N   UNL     1       0.924   9.716  19.982  0.00  0.00    +0.000 NA
ATOM     18  C   UNL     1       0.044   9.584  20.937  0.00  0.00    +0.000 C 
ATOM     19  C   UNL     1      -0.313   8.290  21.642  0.00  0.00    +0.000 C 
BRANCH  18  20
ATOM     20  C   UNL     1      -0.715  10.796  21.393  0.00  0.00    +0.000 A 
ATOM     21  C   UNL     1      -0.836  11.095  22.745  0.00  0.00    +0.000 A 
ATOM     22  C   UNL     1      -1.548  12.234  23.112  0.00  0.00    +0.000 A 
ATOM     23  C   UNL     1      -2.118  13.034  22.126  0.00  0.00    +0.000 A 
ATOM     24  C   UNL     1      -1.951  12.660  20.803  0.00  0.00    +0.000 A 
ATOM     25  N   UNL     1      -1.267  11.562  20.412  0.00  0.00    +0.000 NA
ENDBRANCH  18  20
ENDBRANCH   3  17
TORSDOF 6
ENDMDL
MODEL 6
REMARK VINA RESULT:      -6.8      1.784      2.449
REMARK  Name = 
REMARK  10 active torsions:
REMARK  status: ('A' for Active; 'I' for Inactive)
REMARK    1  A    between atoms: C_1  and  O_2
REMARK    2  A    between atoms: O_2  and  C_3
REMARK    3  A    between atoms: C_5  and  C_6
REMARK    4  A    between atoms: N_8  and  N_9
REMARK    5  A    between atoms: C_10  and  C_11
REMARK    6  A    between atoms: C_10  and  C_12
REMARK    7  A    between atoms: C_19  and  O_20
REMARK    8  A    between atoms: O_20  and  C_21
REMARK    9  A    between atoms: C_22  and  O_23
REMARK   10  A    between atoms: O_23  and  C_24
REMARK                            x       y       z     vdW  Elec       q    Type
REMARK                         _______ _______ _______ _____ _____    ______ ____
ROOT
ATOM      1  C   UNL     1       2.313   7.902  18.359  0.00  0.00    +0.000 C 
ATOM      2  O   UNL     1       2.534   8.760  17.504  0.00  0.00    +0.000 OA
ATOM      3  N   UNL     1       1.751   8.125  19.609  0.00  0.00    +0.000 N 
ATOM      4  H   UNL     1       1.756   7.385  20.297  0.00  0.00    +0.000 HD
ENDROOT
BRANCH   1   7
ATOM      5  C   UNL     1       4.543   4.884  17.839  0.00  0.00    +0.000 A 
ATOM      6  C   UNL     1       4.088   6.210  17.947  0.00  0.00    +0.000 A 
ATOM      7  C   UNL     1       2.729   6.491  18.094  0.00  0.00    +0.000 A 
ATOM      8  C   UNL     1       1.811   5.447  18.023  0.00  0.00    +0.000 A 
ATOM      9  C   UNL     1       2.238   4.122  17.841  0.00  0.00    +0.000 A 
ATOM     10  C   UNL     1       3.616   3.820  17.746  0.00  0.00    +0.000 A 
BRANCH   5  12
ATOM     11  C   UNL     1       6.497   4.666  16.510  0.00  0.00    +0.000 C 
ATOM     12  O   UNL     1       5.888   4.618  17.801  0.00  0.00    +0.000 OA
ENDBRANCH   5  12
BRANCH   9  13
ATOM     13  O   UNL     1       1.164   3.263  17.803  0.00  0.00    +0.000 OA
ATOM     14  C   UNL     1       0.611   2.774  19.015  0.00  0.00    +0.000 C 
ENDBRANCH   9  13
BRANCH  10  15
ATOM     15  O   UNL     1       3.921   2.498  17.572  0.00  0.00    +0.000 OA
ATOM     16  C   UNL     1       3.901   1.575  18.646  0.00  0.00    +0.000 C 
ENDBRANCH  10  15
ENDBRANCH   1   7
BRANCH   3  17
ATOM     17  N   UNL     1       1.430   9.392  19.992  0.00  0.00    +0.000 NA
ATOM     18  C   UNL     1       0.576   9.596  20.958  0.00  0.00    +0.000 C 
ATOM     19  C   UNL     1      -0.184   8.522  21.712  0.00  0.00    +0.000 C 
BRANCH  18  20
ATOM     20  C   UNL     1       0.280  11.007  21.376  0.00  0.00    +0.000 A 
ATOM     21  C   UNL     1      -0.767  11.289  22.245  0.00  0.00    +0.000 A 
ATOM     22  C   UNL     1      -0.994  12.616  22.602  0.00  0.00    +0.000 A 
ATOM     23  C   UNL     1      -0.177  13.616  22.083  0.00  0.00    +0.000 A 
ATOM     24  C   UNL     1       0.842  13.245  21.222  0.00  0.00    +0.000 A 
ATOM     25  N   UNL     1       1.089  11.969  20.854  0.00  0.00    +0.000 NA
ENDBRANCH  18  20
ENDBRANCH   3  17
TORSDOF 6
ENDMDL
MODEL 7
REMARK VINA RESULT:      -6.8      1.786      2.752
REMARK  Name = 
REMARK  10 active torsions:
REMARK  status: ('A' for Active; 'I' for Inactive)
REMARK    1  A    between atoms: C_1  and  O_2
REMARK    2  A    between atoms: O_2  and  C_3
REMARK    3  A    between atoms: C_5  and  C_6
REMARK    4  A    between atoms: N_8  and  N_9
REMARK    5  A    between atoms: C_10  and  C_11
REMARK    6  A    between atoms: C_10  and  C_12
REMARK    7  A    between atoms: C_19  and  O_20
REMARK    8  A    between atoms: O_20  and  C_21
REMARK    9  A    between atoms: C_22  and  O_23
REMARK   10  A    between atoms: O_23  and  C_24
REMARK                            x       y       z     vdW  Elec       q    Type
REMARK                         _______ _______ _______ _____ _____    ______ ____
ROOT
ATOM      1  C   UNL     1       1.895   8.475  19.175  0.00  0.00    +0.000 C 
ATOM      2  O   UNL     1       2.118   9.314  18.302  0.00  0.00    +0.000 OA
ATOM      3  N   UNL     1       1.219   8.702  20.367  0.00  0.00    +0.000 N 
ATOM      4  H   UNL     1       1.225   7.993  21.086  0.00  0.00    +0.000 HD
ENDROOT
BRANCH   1   7
ATOM      5  C   UNL     1       3.840   5.564  17.730  0.00  0.00    +0.000 A 
ATOM      6  C   UNL     1       3.187   6.802  17.868  0.00  0.00    +0.000 A 
ATOM      7  C   UNL     1       2.439   7.094  19.009  0.00  0.00    +0.000 A 
ATOM      8  C   UNL     1       2.253   6.102  19.967  0.00  0.00    +0.000 A 
ATOM      9  C   UNL     1       2.833   4.832  19.815  0.00  0.00    +0.000 A 
ATOM     10  C   UNL     1       3.639   4.544  18.688  0.00  0.00    +0.000 A 
BRANCH   5  12
ATOM     11  C   UNL     1       5.724   6.263  16.466  0.00  0.00    +0.000 C 
ATOM     12  O   UNL     1       4.657   5.331  16.652  0.00  0.00    +0.000 OA
ENDBRANCH   5  12
BRANCH   9  13
ATOM     13  O   UNL     1       2.517   4.019  20.877  0.00  0.00    +0.000 OA
ATOM     14  C   UNL     1       1.246   3.388  20.928  0.00  0.00    +0.000 C 
ENDBRANCH   9  13
BRANCH  10  15
ATOM     15  O   UNL     1       4.156   3.279  18.641  0.00  0.00    +0.000 OA
ATOM     16  C   UNL     1       3.483   2.215  17.993  0.00  0.00    +0.000 C 
ENDBRANCH  10  15
ENDBRANCH   1   7
BRANCH   3  17
ATOM     17  N   UNL     1       0.771   9.953  20.666  0.00  0.00    +0.000 NA
ATOM     18  C   UNL     1       0.194  10.194  21.811  0.00  0.00    +0.000 C 
ATOM     19  C   UNL     1      -0.098   9.170  22.891  0.00  0.00    +0.000 C 
BRANCH  18  20
ATOM     20  C   UNL     1      -0.249  11.595  22.117  0.00  0.00    +0.000 A 
ATOM     21  C   UNL     1      -1.370  11.834  22.904  0.00  0.00    +0.000 A 
ATOM     22  C   UNL     1      -1.733  13.154  23.159  0.00  0.00    +0.000 A 
ATOM     23  C   UNL     1      -0.975  14.190  22.622  0.00  0.00    +0.000 A 
ATOM     24  C   UNL     1       0.124  13.862  21.848  0.00  0.00    +0.000 A 
ATOM     25  N   UNL     1       0.505  12.594  21.580  0.00  0.00    +0.000 NA
ENDBRANCH  18  20
ENDBRANCH   3  17
TORSDOF 6
ENDMDL
MODEL 8
REMARK VINA RESULT:      -6.7      1.742      3.478
REMARK  Name = 
REMARK  10 active torsions:
REMARK  status: ('A' for Active; 'I' for Inactive)
REMARK    1  A    between atoms: C_1  and  O_2
REMARK    2  A    between atoms: O_2  and  C_3
REMARK    3  A    between atoms: C_5  and  C_6
REMARK    4  A    between atoms: N_8  and  N_9
REMARK    5  A    between atoms: C_10  and  C_11
REMARK    6  A    between atoms: C_10  and  C_12
REMARK    7  A    between atoms: C_19  and  O_20
REMARK    8  A    between atoms: O_20  and  C_21
REMARK    9  A    between atoms: C_22  and  O_23
REMARK   10  A    between atoms: O_23  and  C_24
REMARK                            x       y       z     vdW  Elec       q    Type
REMARK                         _______ _______ _______ _____ _____    ______ ____
ROOT
ATOM      1  C   UNL     1       2.217   7.909  18.714  0.00  0.00    +0.000 C 
ATOM      2  O   UNL     1       2.401   8.571  17.692  0.00  0.00    +0.000 OA
ATOM      3  N   UNL     1       1.540   8.337  19.849  0.00  0.00    +0.000 N 
ATOM      4  H   UNL     1       1.578   7.781  20.691  0.00  0.00    +0.000 HD
ENDROOT
BRANCH   1   7
ATOM      5  C   UNL     1       2.954   4.428  20.014  0.00  0.00    +0.000 A 
ATOM      6  C   UNL     1       2.537   5.770  19.939  0.00  0.00    +0.000 A 
ATOM      7  C   UNL     1       2.812   6.542  18.810  0.00  0.00    +0.000 A 
ATOM      8  C   UNL     1       3.602   6.003  17.799  0.00  0.00    +0.000 A 
ATOM      9  C   UNL     1       4.093   4.691  17.887  0.00  0.00    +0.000 A 
ATOM     10  C   UNL     1       3.774   3.880  19.001  0.00  0.00    +0.000 A 
BRANCH   5  12
ATOM     11  C   UNL     1       1.278   3.077  21.016  0.00  0.00    +0.000 C 
ATOM     12  O   UNL     1       2.585   3.651  21.084  0.00  0.00    +0.000 OA
ENDBRANCH   5  12
BRANCH   9  13
ATOM     13  O   UNL     1       4.844   4.373  16.780  0.00  0.00    +0.000 OA
ATOM     14  C   UNL     1       6.251   4.563  16.805  0.00  0.00    +0.000 C 
ENDBRANCH   9  13
BRANCH  10  15
ATOM     15  O   UNL     1       4.300   2.619  18.984  0.00  0.00    +0.000 OA
ATOM     16  C   UNL     1       3.583   1.512  18.468  0.00  0.00    +0.000 C 
ENDBRANCH  10  15
ENDBRANCH   1   7
BRANCH   3  17
ATOM     17  N   UNL     1       1.046   9.605  19.906  0.00  0.00    +0.000 NA
ATOM     18  C   UNL     1       0.231   9.956  20.863  0.00  0.00    +0.000 C 
ATOM     19  C   UNL     1      -0.302   9.046  21.953  0.00  0.00    +0.000 C 
BRANCH  18  20
ATOM     20  C   UNL     1      -0.259  11.374  20.913  0.00  0.00    +0.000 A 
ATOM     21  C   UNL     1      -1.326  11.789  20.125  0.00  0.00    +0.000 A 
ATOM     22  C   UNL     1      -1.740  13.115  20.214  0.00  0.00    +0.000 A 
ATOM     23  C   UNL     1      -1.080  13.985  21.078  0.00  0.00    +0.000 A 
ATOM     24  C   UNL     1      -0.025  13.487  21.824  0.00  0.00    +0.000 A 
ATOM     25  N   UNL     1       0.403  12.208  21.762  0.00  0.00    +0.000 NA
ENDBRANCH  18  20
ENDBRANCH   3  17
TORSDOF 6
ENDMDL
MODEL 9
REMARK VINA RESULT:      -6.7      1.654      2.162
REMARK  Name = 
REMARK  10 active torsions:
REMARK  status: ('A' for Active; 'I' for Inactive)
REMARK    1  A    between atoms: C_1  and  O_2
REMARK    2  A    between atoms: O_2  and  C_3
REMARK    3  A    between atoms: C_5  and  C_6
REMARK    4  A    between atoms: N_8  and  N_9
REMARK    5  A    between atoms: C_10  and  C_11
REMARK    6  A    between atoms: C_10  and  C_12
REMARK    7  A    between atoms: C_19  and  O_20
REMARK    8  A    between atoms: O_20  and  C_21
REMARK    9  A    between atoms: C_22  and  O_23
REMARK   10  A    between atoms: O_23  and  C_24
REMARK                            x       y       z     vdW  Elec       q    Type
REMARK                         _______ _______ _______ _____ _____    ______ ____
ROOT
ATOM      1  C   UNL     1       2.045   8.625  18.129  0.00  0.00    +0.000 C 
ATOM      2  O   UNL     1       1.981   9.552  17.320  0.00  0.00    +0.000 OA
ATOM      3  N   UNL     1       1.383   8.563  19.348  0.00  0.00    +0.000 N 
ATOM      4  H   UNL     1       1.622   7.838  20.009  0.00  0.00    +0.000 HD
ENDROOT
BRANCH   1   7
ATOM      5  C   UNL     1       5.135   6.705  17.074  0.00  0.00    +0.000 A 
ATOM      6  C   UNL     1       4.185   7.729  17.235  0.00  0.00    +0.000 A 
ATOM      7  C   UNL     1       2.955   7.475  17.843  0.00  0.00    +0.000 A 
ATOM      8  C   UNL     1       2.631   6.167  18.192  0.00  0.00    +0.000 A 
ATOM      9  C   UNL     1       3.535   5.115  17.972  0.00  0.00    +0.000 A 
ATOM     10  C   UNL     1       4.806   5.371  17.407  0.00  0.00    +0.000 A 
BRANCH   5  12
ATOM     11  C   UNL     1       7.399   7.248  17.538  0.00  0.00    +0.000 C 
ATOM     12  O   UNL     1       6.379   6.992  16.571  0.00  0.00    +0.000 OA
ENDBRANCH   5  12
BRANCH   9  13
ATOM     13  O   UNL     1       3.005   3.918  18.393  0.00  0.00    +0.000 OA
ATOM     14  C   UNL     1       1.612   3.679  18.260  0.00  0.00    +0.000 C 
ENDBRANCH   9  13
BRANCH  10  15
ATOM     15  O   UNL     1       5.608   4.276  17.239  0.00  0.00    +0.000 OA
ATOM     16  C   UNL     1       5.831   3.696  15.966  0.00  0.00    +0.000 C 
ENDBRANCH  10  15
ENDBRANCH   1   7
BRANCH   3  17
ATOM     17  N   UNL     1       0.608   9.607  19.753  0.00  0.00    +0.000 NA
ATOM     18  C   UNL     1       0.450   9.862  21.024  0.00  0.00    +0.000 C 
ATOM     19  C   UNL     1       1.023   9.049  22.169  0.00  0.00    +0.000 C 
BRANCH  18  20
ATOM     20  C   UNL     1      -0.379  11.046  21.427  0.00  0.00    +0.000 A 
ATOM     21  C   UNL     1      -1.025  11.823  20.473  0.00  0.00    +0.000 A 
ATOM     22  C   UNL     1      -1.784  12.908  20.904  0.00  0.00    +0.000 A 
ATOM     23  C   UNL     1      -1.874  13.186  22.265  0.00  0.00    +0.000 A 
ATOM     24  C   UNL     1      -1.196  12.361  23.145  0.00  0.00    +0.000 A 
ATOM     25  N   UNL     1      -0.450  11.302  22.763  0.00  0.00    +0.000 NA
ENDBRANCH  18  20
ENDBRANCH   3  17
TORSDOF 6
ENDMDL
