MODEL 1
REMARK VINA RESULT:      -7.7      0.000      0.000
REMARK  Name = 
REMARK  5 active torsions:
REMARK  status: ('A' for Active; 'I' for Inactive)
REMARK    1  A    between atoms: N_2  and  C_4
REMARK    2  A    between atoms: C_6  and  C_7
REMARK    3  A    between atoms: C_7  and  S_8
REMARK    4  A    between atoms: S_8  and  C_9
REMARK    5  A    between atoms: C_17  and  N_18
REMARK                            x       y       z     vdW  Elec       q    Type
REMARK                         _______ _______ _______ _____ _____    ______ ____
ROOT
ATOM      1  C   UNL     1       6.405   4.545  15.887  0.00  0.00    +0.000 A 
ATOM      2  C   UNL     1       5.265   3.829  16.287  0.00  0.00    +0.000 A 
ATOM      3  C   UNL     1       4.915   3.716  17.645  0.00  0.00    +0.000 A 
ATOM      4  C   UNL     1       5.709   4.396  18.588  0.00  0.00    +0.000 A 
ATOM      5  C   UNL     1       6.838   5.134  18.177  0.00  0.00    +0.000 A 
ATOM      6  C   UNL     1       7.201   5.204  16.827  0.00  0.00    +0.000 A 
ENDROOT
BRANCH   1   8
ATOM      7  O   UNL     1       6.143   3.856  13.684  0.00  0.00    +0.000 OA
ATOM      8  N   UNL     1       6.757   4.603  14.460  0.00  0.00    +0.000 N 
ATOM      9  O   UNL     1       7.643   5.394  14.121  0.00  0.00    +0.000 OA
ENDBRANCH   1   8
BRANCH   5  10
ATOM     10  N   UNL     1       7.647   5.849  19.176  0.00  0.00    +0.000 N 
ATOM     11  O   UNL     1       7.686   5.387  20.323  0.00  0.00    +0.000 OA
ATOM     12  O   UNL     1       8.232   6.878  18.811  0.00  0.00    +0.000 OA
ENDBRANCH   5  10
BRANCH   3  13
ATOM     13  C   UNL     1       3.676   2.952  18.112  0.00  0.00    +0.000 C 
BRANCH  13  14
ATOM     14  S   UNL     1       2.106   3.786  17.672  0.00  0.00    +0.000 S 
BRANCH  14  15
ATOM     15  C   UNL     1       2.168   5.264  18.682  0.00  0.00    +0.000 A 
ATOM     16  C   UNL     1       2.492   6.478  18.049  0.00  0.00    +0.000 A 
ATOM     17  C   UNL     1       2.397   7.686  18.735  0.00  0.00    +0.000 A 
ATOM     18  C   UNL     1       1.965   7.698  20.053  0.00  0.00    +0.000 A 
ATOM     19  C   UNL     1       1.661   6.492  20.680  0.00  0.00    +0.000 A 
ATOM     20  N   UNL     1       1.762   5.270  20.023  0.00  0.00    +0.000 N 
ATOM     21  O   UNL     1       1.477   4.201  20.657  0.00  0.00    +0.000 OA
ENDBRANCH  14  15
ENDBRANCH  13  14
ENDBRANCH   3  13
TORSDOF 5
ENDMDL
MODEL 2
REMARK VINA RESULT:      -7.6      0.144      3.304
REMARK  Name = 
REMARK  5 active torsions:
REMARK  status: ('A' for Active; 'I' for Inactive)
REMARK    1  A    between atoms: N_2  and  C_4
REMARK    2  A    between atoms: C_6  and  C_7
REMARK    3  A    between atoms: C_7  and  S_8
REMARK    4  A    between atoms: S_8  and  C_9
REMARK    5  A    between atoms: C_17  and  N_18
REMARK                            x       y       z     vdW  Elec       q    Type
REMARK                         _______ _______ _______ _____ _____    ______ ____
ROOT
ATOM      1  C   UNL     1       6.931   5.166  18.089  0.00  0.00    +0.000 A 
ATOM      2  C   UNL     1       5.808   4.430  18.498  0.00  0.00    +0.000 A 
ATOM      3  C   UNL     1       4.987   3.774  17.561  0.00  0.00    +0.000 A 
ATOM      4  C   UNL     1       5.363   3.826  16.206  0.00  0.00    +0.000 A 
ATOM      5  C   UNL     1       6.507   4.548  15.805  0.00  0.00    +0.000 A 
ATOM      6  C   UNL     1       7.292   5.232  16.741  0.00  0.00    +0.000 A 
ENDROOT
BRANCH   1   8
ATOM      7  O   UNL     1       8.172   6.995  18.804  0.00  0.00    +0.000 OA
ATOM      8  N   UNL     1       7.738   5.871  19.097  0.00  0.00    +0.000 N 
ATOM      9  O   UNL     1       7.933   5.301  20.175  0.00  0.00    +0.000 OA
ENDBRANCH   1   8
BRANCH   5  10
ATOM     10  N   UNL     1       6.891   4.579  14.385  0.00  0.00    +0.000 N 
ATOM     11  O   UNL     1       7.739   5.411  14.037  0.00  0.00    +0.000 OA
ATOM     12  O   UNL     1       6.334   3.779  13.623  0.00  0.00    +0.000 OA
ENDBRANCH   5  10
BRANCH   3  13
ATOM     13  C   UNL     1       3.764   2.957  17.975  0.00  0.00    +0.000 C 
BRANCH  13  14
ATOM     14  S   UNL     1       2.176   3.780  17.576  0.00  0.00    +0.000 S 
BRANCH  14  15
ATOM     15  C   UNL     1       2.221   5.221  18.640  0.00  0.00    +0.000 A 
ATOM     16  C   UNL     1       2.523   6.462  18.049  0.00  0.00    +0.000 A 
ATOM     17  C   UNL     1       2.413   7.643  18.779  0.00  0.00    +0.000 A 
ATOM     18  C   UNL     1       1.989   7.600  20.099  0.00  0.00    +0.000 A 
ATOM     19  C   UNL     1       1.708   6.368  20.684  0.00  0.00    +0.000 A 
ATOM     20  N   UNL     1       1.824   5.172  19.982  0.00  0.00    +0.000 N 
ATOM     21  O   UNL     1       1.560   4.076  20.578  0.00  0.00    +0.000 OA
ENDBRANCH  14  15
ENDBRANCH  13  14
ENDBRANCH   3  13
TORSDOF 5
ENDMDL
MODEL 3
REMARK VINA RESULT:      -7.6      2.222      2.608
REMARK  Name = 
REMARK  5 active torsions:
REMARK  status: ('A' for Active; 'I' for Inactive)
REMARK    1  A    between atoms: N_2  and  C_4
REMARK    2  A    between atoms: C_6  and  C_7
REMARK    3  A    between atoms: C_7  and  S_8
REMARK    4  A    between atoms: S_8  and  C_9
REMARK    5  A    between atoms: C_17  and  N_18
REMARK                            x       y       z     vdW  Elec       q    Type
REMARK                         _______ _______ _______ _____ _____    ______ ____
ROOT
ATOM      1  C   UNL     1       6.605   4.866  15.369  0.00  0.00    +0.000 A 
ATOM      2  C   UNL     1       5.326   4.304  15.503  0.00  0.00    +0.000 A 
ATOM      3  C   UNL     1       4.709   4.188  16.762  0.00  0.00    +0.000 A 
ATOM      4  C   UNL     1       5.389   4.711  17.878  0.00  0.00    +0.000 A 
ATOM      5  C   UNL     1       6.664   5.298  17.733  0.00  0.00    +0.000 A 
ATOM      6  C   UNL     1       7.286   5.369  16.481  0.00  0.00    +0.000 A 
ENDROOT
BRANCH   1   8
ATOM      7  O   UNL     1       6.748   4.225  13.141  0.00  0.00    +0.000 OA
ATOM      8  N   UNL     1       7.231   4.930  14.039  0.00  0.00    +0.000 N 
ATOM      9  O   UNL     1       8.199   5.685  13.897  0.00  0.00    +0.000 OA
ENDBRANCH   1   8
BRANCH   5  10
ATOM     10  N   UNL     1       7.352   5.851  18.909  0.00  0.00    +0.000 N 
ATOM     11  O   UNL     1       8.127   6.800  18.729  0.00  0.00    +0.000 OA
ATOM     12  O   UNL     1       7.123   5.327  20.007  0.00  0.00    +0.000 OA
ENDBRANCH   5  10
BRANCH   3  13
ATOM     13  C   UNL     1       3.314   3.590  16.940  0.00  0.00    +0.000 C 
BRANCH  13  14
ATOM     14  S   UNL     1       3.332   1.935  17.726  0.00  0.00    +0.000 S 
BRANCH  14  15
ATOM     15  C   UNL     1       2.528   2.255  19.294  0.00  0.00    +0.000 A 
ATOM     16  C   UNL     1       3.346   2.430  20.426  0.00  0.00    +0.000 A 
ATOM     17  C   UNL     1       2.801   2.844  21.640  0.00  0.00    +0.000 A 
ATOM     18  C   UNL     1       1.441   3.100  21.734  0.00  0.00    +0.000 A 
ATOM     19  C   UNL     1       0.634   2.909  20.615  0.00  0.00    +0.000 A 
ATOM     20  N   UNL     1       1.149   2.481  19.395  0.00  0.00    +0.000 N 
ATOM     21  O   UNL     1       0.355   2.318  18.411  0.00  0.00    +0.000 OA
ENDBRANCH  14  15
ENDBRANCH  13  14
ENDBRANCH   3  13
TORSDOF 5
ENDMDL
MODEL 4
REMARK VINA RESULT:      -7.5      1.626      3.880
REMARK  Name = 
REMARK  5 active torsions:
REMARK  status: ('A' for Active; 'I' for Inactive)
REMARK    1  A    between atoms: N_2  and  C_4
REMARK    2  A    between atoms: C_6  and  C_7
REMARK    3  A    between atoms: C_7  and  S_8
REMARK    4  A    between atoms: S_8  and  C_9
REMARK    5  A    between atoms: C_17  and  N_18
REMARK                            x       y       z     vdW  Elec       q    Type
REMARK                         _______ _______ _______ _____ _____    ______ ____
ROOT
ATOM      1  C   UNL     1       6.640   5.208  17.726  0.00  0.00    +0.000 A 
ATOM      2  C   UNL     1       5.425   4.529  17.916  0.00  0.00    +0.000 A 
ATOM      3  C   UNL     1       4.713   3.992  16.828  0.00  0.00    +0.000 A 
ATOM      4  C   UNL     1       5.288   4.100  15.548  0.00  0.00    +0.000 A 
ATOM      5  C   UNL     1       6.520   4.762  15.367  0.00  0.00    +0.000 A 
ATOM      6  C   UNL     1       7.198   5.331  16.451  0.00  0.00    +0.000 A 
ENDROOT
BRANCH   1   8
ATOM      7  O   UNL     1       7.144   5.264  19.993  0.00  0.00    +0.000 OA
ATOM      8  N   UNL     1       7.331   5.791  18.887  0.00  0.00    +0.000 N 
ATOM      9  O   UNL     1       8.057   6.770  18.688  0.00  0.00    +0.000 OA
ENDBRANCH   1   8
BRANCH   5  10
ATOM     10  N   UNL     1       7.111   4.854  14.023  0.00  0.00    +0.000 N 
ATOM     11  O   UNL     1       8.041   5.654  13.856  0.00  0.00    +0.000 OA
ATOM     12  O   UNL     1       6.634   4.133  13.136  0.00  0.00    +0.000 OA
ENDBRANCH   5  10
BRANCH   3  13
ATOM     13  C   UNL     1       3.395   3.239  17.003  0.00  0.00    +0.000 C 
BRANCH  13  14
ATOM     14  S   UNL     1       1.999   4.327  17.477  0.00  0.00    +0.000 S 
BRANCH  14  15
ATOM     15  C   UNL     1       1.849   4.003  19.232  0.00  0.00    +0.000 A 
ATOM     16  C   UNL     1       1.275   2.780  19.626  0.00  0.00    +0.000 A 
ATOM     17  C   UNL     1       1.278   2.391  20.964  0.00  0.00    +0.000 A 
ATOM     18  C   UNL     1       1.865   3.208  21.919  0.00  0.00    +0.000 A 
ATOM     19  C   UNL     1       2.417   4.425  21.525  0.00  0.00    +0.000 A 
ATOM     20  N   UNL     1       2.413   4.846  20.199  0.00  0.00    +0.000 N 
ATOM     21  O   UNL     1       2.928   5.975  19.906  0.00  0.00    +0.000 OA
ENDBRANCH  14  15
ENDBRANCH  13  14
ENDBRANCH   3  13
TORSDOF 5
ENDMDL
MODEL 5
REMARK VINA RESULT:      -7.4      1.629      2.241
REMARK  Name = 
REMARK  5 active torsions:
REMARK  status: ('A' for Active; 'I' for Inactive)
REMARK    1  A    between atoms: N_2  and  C_4
REMARK    2  A    between atoms: C_6  and  C_7
REMARK    3  A    between atoms: C_7  and  S_8
REMARK    4  A    between atoms: S_8  and  C_9
REMARK    5  A    between atoms: C_17  and  N_18
REMARK                            x       y       z     vdW  Elec       q    Type
REMARK                         _______ _______ _______ _____ _____    ______ ____
ROOT
ATOM      1  C   UNL     1       6.578   4.754  15.344  0.00  0.00    +0.000 A 
ATOM      2  C   UNL     1       5.366   4.066  15.516  0.00  0.00    +0.000 A 
ATOM      3  C   UNL     1       4.804   3.891  16.794  0.00  0.00    +0.000 A 
ATOM      4  C   UNL     1       5.462   4.481  17.889  0.00  0.00    +0.000 A 
ATOM      5  C   UNL     1       6.667   5.191  17.706  0.00  0.00    +0.000 A 
ATOM      6  C   UNL     1       7.239   5.323  16.435  0.00  0.00    +0.000 A 
ENDROOT
BRANCH   1   8
ATOM      7  O   UNL     1       8.094   5.669  13.841  0.00  0.00    +0.000 OA
ATOM      8  N   UNL     1       7.152   4.878  13.995  0.00  0.00    +0.000 N 
ATOM      9  O   UNL     1       6.661   4.185  13.098  0.00  0.00    +0.000 OA
ENDBRANCH   1   8
BRANCH   5  10
ATOM     10  N   UNL     1       7.333   5.812  18.861  0.00  0.00    +0.000 N 
ATOM     11  O   UNL     1       7.100   5.340  19.982  0.00  0.00    +0.000 OA
ATOM     12  O   UNL     1       8.078   6.778  18.644  0.00  0.00    +0.000 OA
ENDBRANCH   5  10
BRANCH   3  13
ATOM     13  C   UNL     1       3.482   3.157  17.014  0.00  0.00    +0.000 C 
BRANCH  13  14
ATOM     14  S   UNL     1       2.097   4.275  17.448  0.00  0.00    +0.000 S 
BRANCH  14  15
ATOM     15  C   UNL     1       1.909   3.978  19.204  0.00  0.00    +0.000 A 
ATOM     16  C   UNL     1       1.316   2.766  19.604  0.00  0.00    +0.000 A 
ATOM     17  C   UNL     1       1.289   2.396  20.947  0.00  0.00    +0.000 A 
ATOM     18  C   UNL     1       1.863   3.222  21.901  0.00  0.00    +0.000 A 
ATOM     19  C   UNL     1       2.434   4.428  21.502  0.00  0.00    +0.000 A 
ATOM     20  N   UNL     1       2.461   4.829  20.170  0.00  0.00    +0.000 N 
ATOM     21  O   UNL     1       2.992   5.949  19.872  0.00  0.00    +0.000 OA
ENDBRANCH  14  15
ENDBRANCH  13  14
ENDBRANCH   3  13
TORSDOF 5
ENDMDL
MODEL 6
REMARK VINA RESULT:      -7.4      2.237      4.135
REMARK  Name = 
REMARK  5 active torsions:
REMARK  status: ('A' for Active; 'I' for Inactive)
REMARK    1  A    between atoms: N_2  and  C_4
REMARK    2  A    between atoms: C_6  and  C_7
REMARK    3  A    between atoms: C_7  and  S_8
REMARK    4  A    between atoms: S_8  and  C_9
REMARK    5  A    between atoms: C_17  and  N_18
REMARK                            x       y       z     vdW  Elec       q    Type
REMARK                         _______ _______ _______ _____ _____    ______ ____
ROOT
ATOM      1  C   UNL     1       6.916   5.393  17.602  0.00  0.00    +0.000 A 
ATOM      2  C   UNL     1       5.643   4.852  17.841  0.00  0.00    +0.000 A 
ATOM      3  C   UNL     1       4.846   4.369  16.786  0.00  0.00    +0.000 A 
ATOM      4  C   UNL     1       5.392   4.387  15.489  0.00  0.00    +0.000 A 
ATOM      5  C   UNL     1       6.682   4.910  15.259  0.00  0.00    +0.000 A 
ATOM      6  C   UNL     1       7.448   5.427  16.310  0.00  0.00    +0.000 A 
ENDROOT
BRANCH   1   8
ATOM      7  O   UNL     1       8.164   7.069  18.617  0.00  0.00    +0.000 OA
ATOM      8  N   UNL     1       7.698   5.925  18.729  0.00  0.00    +0.000 N 
ATOM      9  O   UNL     1       7.841   5.200  19.719  0.00  0.00    +0.000 OA
ENDBRANCH   1   8
BRANCH   5  10
ATOM     10  N   UNL     1       7.240   4.908  13.897  0.00  0.00    +0.000 N 
ATOM     11  O   UNL     1       6.742   4.130  13.073  0.00  0.00    +0.000 OA
ATOM     12  O   UNL     1       8.182   5.676  13.662  0.00  0.00    +0.000 OA
ENDBRANCH   5  10
BRANCH   3  13
ATOM     13  C   UNL     1       3.462   3.765  17.014  0.00  0.00    +0.000 C 
BRANCH  13  14
ATOM     14  S   UNL     1       3.517   2.089  17.751  0.00  0.00    +0.000 S 
BRANCH  14  15
ATOM     15  C   UNL     1       2.615   2.319  19.281  0.00  0.00    +0.000 A 
ATOM     16  C   UNL     1       3.361   2.434  20.469  0.00  0.00    +0.000 A 
ATOM     17  C   UNL     1       2.740   2.780  21.668  0.00  0.00    +0.000 A 
ATOM     18  C   UNL     1       1.376   3.027  21.692  0.00  0.00    +0.000 A 
ATOM     19  C   UNL     1       0.640   2.896  20.516  0.00  0.00    +0.000 A 
ATOM     20  N   UNL     1       1.232   2.537  19.308  0.00  0.00    +0.000 N 
ATOM     21  O   UNL     1       0.501   2.426  18.270  0.00  0.00    +0.000 OA
ENDBRANCH  14  15
ENDBRANCH  13  14
ENDBRANCH   3  13
TORSDOF 5
ENDMDL
MODEL 7
REMARK VINA RESULT:      -7.3      1.924      2.653
REMARK  Name = 
REMARK  5 active torsions:
REMARK  status: ('A' for Active; 'I' for Inactive)
REMARK    1  A    between atoms: N_2  and  C_4
REMARK    2  A    between atoms: C_6  and  C_7
REMARK    3  A    between atoms: C_7  and  S_8
REMARK    4  A    between atoms: S_8  and  C_9
REMARK    5  A    between atoms: C_17  and  N_18
REMARK                            x       y       z     vdW  Elec       q    Type
REMARK                         _______ _______ _______ _____ _____    ______ ____
ROOT
ATOM      1  C   UNL     1       6.302   5.143  15.883  0.00  0.00    +0.000 A 
ATOM      2  C   UNL     1       4.924   5.286  16.110  0.00  0.00    +0.000 A 
ATOM      3  C   UNL     1       4.426   5.623  17.383  0.00  0.00    +0.000 A 
ATOM      4  C   UNL     1       5.357   5.874  18.408  0.00  0.00    +0.000 A 
ATOM      5  C   UNL     1       6.742   5.753  18.166  0.00  0.00    +0.000 A 
ATOM      6  C   UNL     1       7.223   5.375  16.908  0.00  0.00    +0.000 A 
ENDROOT
BRANCH   1   8
ATOM      7  O   UNL     1       6.195   3.811  13.983  0.00  0.00    +0.000 OA
ATOM      8  N   UNL     1       6.777   4.749  14.548  0.00  0.00    +0.000 N 
ATOM      9  O   UNL     1       7.726   5.378  14.070  0.00  0.00    +0.000 OA
ENDBRANCH   1   8
BRANCH   5  10
ATOM     10  N   UNL     1       7.699   6.033  19.248  0.00  0.00    +0.000 N 
ATOM     11  O   UNL     1       8.461   6.998  19.106  0.00  0.00    +0.000 OA
ATOM     12  O   UNL     1       7.693   5.278  20.229  0.00  0.00    +0.000 OA
ENDBRANCH   5  10
BRANCH   3  13
ATOM     13  C   UNL     1       2.933   5.796  17.659  0.00  0.00    +0.000 C 
BRANCH  13  14
ATOM     14  S   UNL     1       2.008   4.215  17.647  0.00  0.00    +0.000 S 
BRANCH  14  15
ATOM     15  C   UNL     1       2.251   3.623  19.320  0.00  0.00    +0.000 A 
ATOM     16  C   UNL     1       1.190   3.779  20.231  0.00  0.00    +0.000 A 
ATOM     17  C   UNL     1       1.246   3.196  21.495  0.00  0.00    +0.000 A 
ATOM     18  C   UNL     1       2.352   2.442  21.858  0.00  0.00    +0.000 A 
ATOM     19  C   UNL     1       3.407   2.305  20.958  0.00  0.00    +0.000 A 
ATOM     20  N   UNL     1       3.383   2.889  19.695  0.00  0.00    +0.000 N 
ATOM     21  O   UNL     1       4.385   2.732  18.923  0.00  0.00    +0.000 OA
ENDBRANCH  14  15
ENDBRANCH  13  14
ENDBRANCH   3  13
TORSDOF 5
ENDMDL
MODEL 8
REMARK VINA RESULT:      -7.3      1.192      1.803
REMARK  Name = 
REMARK  5 active torsions:
REMARK  status: ('A' for Active; 'I' for Inactive)
REMARK    1  A    between atoms: N_2  and  C_4
REMARK    2  A    between atoms: C_6  and  C_7
REMARK    3  A    between atoms: C_7  and  S_8
REMARK    4  A    between atoms: S_8  and  C_9
REMARK    5  A    between atoms: C_17  and  N_18
REMARK                            x       y       z     vdW  Elec       q    Type
REMARK                         _______ _______ _______ _____ _____    ______ ____
ROOT
ATOM      1  C   UNL     1       6.606   4.652  15.685  0.00  0.00    +0.000 A 
ATOM      2  C   UNL     1       5.515   3.832  16.015  0.00  0.00    +0.000 A 
ATOM      3  C   UNL     1       5.126   3.641  17.354  0.00  0.00    +0.000 A 
ATOM      4  C   UNL     1       5.826   4.348  18.349  0.00  0.00    +0.000 A 
ATOM      5  C   UNL     1       6.905   5.191  18.008  0.00  0.00    +0.000 A 
ATOM      6  C   UNL     1       7.310   5.339  16.677  0.00  0.00    +0.000 A 
ENDROOT
BRANCH   1   8
ATOM      7  O   UNL     1       7.904   5.601  14.008  0.00  0.00    +0.000 OA
ATOM      8  N   UNL     1       7.004   4.791  14.276  0.00  0.00    +0.000 N 
ATOM      9  O   UNL     1       6.419   4.089  13.444  0.00  0.00    +0.000 OA
ENDBRANCH   1   8
BRANCH   5  10
ATOM     10  N   UNL     1       7.615   5.932  19.062  0.00  0.00    +0.000 N 
ATOM     11  O   UNL     1       8.196   6.976  18.739  0.00  0.00    +0.000 OA
ATOM     12  O   UNL     1       7.598   5.460  20.206  0.00  0.00    +0.000 OA
ENDBRANCH   5  10
BRANCH   3  13
ATOM     13  C   UNL     1       3.938   2.763  17.746  0.00  0.00    +0.000 C 
BRANCH  13  14
ATOM     14  S   UNL     1       2.322   3.474  17.256  0.00  0.00    +0.000 S 
BRANCH  14  15
ATOM     15  C   UNL     1       2.042   4.691  18.540  0.00  0.00    +0.000 A 
ATOM     16  C   UNL     1       1.426   4.260  19.729  0.00  0.00    +0.000 A 
ATOM     17  C   UNL     1       1.329   5.110  20.829  0.00  0.00    +0.000 A 
ATOM     18  C   UNL     1       1.855   6.391  20.759  0.00  0.00    +0.000 A 
ATOM     19  C   UNL     1       2.448   6.819  19.573  0.00  0.00    +0.000 A 
ATOM     20  N   UNL     1       2.546   5.996  18.455  0.00  0.00    +0.000 N 
ATOM     21  O   UNL     1       3.093   6.451  17.398  0.00  0.00    +0.000 OA
ENDBRANCH  14  15
ENDBRANCH  13  14
ENDBRANCH   3  13
TORSDOF 5
ENDMDL
MODEL 9
REMARK VINA RESULT:      -7.3      1.788      2.311
REMARK  Name = 
REMARK  5 active torsions:
REMARK  status: ('A' for Active; 'I' for Inactive)
REMARK    1  A    between atoms: N_2  and  C_4
REMARK    2  A    between atoms: C_6  and  C_7
REMARK    3  A    between atoms: C_7  and  S_8
REMARK    4  A    between atoms: S_8  and  C_9
REMARK    5  A    between atoms: C_17  and  N_18
REMARK                            x       y       z     vdW  Elec       q    Type
REMARK                         _______ _______ _______ _____ _____    ______ ____
ROOT
ATOM      1  C   UNL     1       6.526   4.834  15.253  0.00  0.00    +0.000 A 
ATOM      2  C   UNL     1       5.232   4.306  15.386  0.00  0.00    +0.000 A 
ATOM      3  C   UNL     1       4.610   4.209  16.645  0.00  0.00    +0.000 A 
ATOM      4  C   UNL     1       5.302   4.716  17.761  0.00  0.00    +0.000 A 
ATOM      5  C   UNL     1       6.592   5.268  17.616  0.00  0.00    +0.000 A 
ATOM      6  C   UNL     1       7.217   5.320  16.366  0.00  0.00    +0.000 A 
ENDROOT
BRANCH   1   8
ATOM      7  O   UNL     1       8.087   5.678  13.754  0.00  0.00    +0.000 OA
ATOM      8  N   UNL     1       7.155   4.879  13.924  0.00  0.00    +0.000 N 
ATOM      9  O   UNL     1       6.716   4.115  13.057  0.00  0.00    +0.000 OA
ENDBRANCH   1   8
BRANCH   5  10
ATOM     10  N   UNL     1       7.293   5.806  18.793  0.00  0.00    +0.000 N 
ATOM     11  O   UNL     1       7.090   5.257  19.884  0.00  0.00    +0.000 OA
ATOM     12  O   UNL     1       8.035   6.782  18.622  0.00  0.00    +0.000 OA
ENDBRANCH   5  10
BRANCH   3  13
ATOM     13  C   UNL     1       3.200   3.648  16.821  0.00  0.00    +0.000 C 
BRANCH  13  14
ATOM     14  S   UNL     1       2.093   4.761  17.767  0.00  0.00    +0.000 S 
BRANCH  14  15
ATOM     15  C   UNL     1       2.021   3.952  19.364  0.00  0.00    +0.000 A 
ATOM     16  C   UNL     1       2.651   4.589  20.449  0.00  0.00    +0.000 A 
ATOM     17  C   UNL     1       2.495   4.104  21.746  0.00  0.00    +0.000 A 
ATOM     18  C   UNL     1       1.699   2.992  21.975  0.00  0.00    +0.000 A 
ATOM     19  C   UNL     1       1.091   2.356  20.895  0.00  0.00    +0.000 A 
ATOM     20  N   UNL     1       1.243   2.809  19.588  0.00  0.00    +0.000 N 
ATOM     21  O   UNL     1       0.667   2.177  18.643  0.00  0.00    +0.000 OA
ENDBRANCH  14  15
ENDBRANCH  13  14
ENDBRANCH   3  13
TORSDOF 5
ENDMDL
