MODEL 1
REMARK VINA RESULT:      -5.6      0.000      0.000
REMARK  Name = 
REMARK  7 active torsions:
REMARK  status: ('A' for Active; 'I' for Inactive)
REMARK    1  A    between atoms: C_1  and  O_2
REMARK    2  A    between atoms: O_2  and  C_3
REMARK    3  A    between atoms: C_5  and  C_6
REMARK    4  A    between atoms: C_7  and  S_8
REMARK    5  A    between atoms: S_8  and  C_9
REMARK    6  A    between atoms: C_12  and  O_13
REMARK    7  A    between atoms: O_13  and  C_14
REMARK                            x       y       z     vdW  Elec       q    Type
REMARK                         _______ _______ _______ _____ _____    ______ ____
ROOT
ATOM      1  C   UNL     1       1.961   4.076  18.307  0.00  0.00    +0.000 A 
ATOM      2  C   UNL     1       2.079   5.470  18.302  0.00  0.00    +0.000 A 
ATOM      3  C   UNL     1       3.190   6.135  17.762  0.00  0.00    +0.000 A 
ATOM      4  C   UNL     1       3.207   7.634  17.850  0.00  0.00    +0.000 C 
ATOM      5  C   UNL     1       4.240   5.355  17.222  0.00  0.00    +0.000 A 
ATOM      6  C   UNL     1       4.095   3.967  17.193  0.00  0.00    +0.000 A 
ATOM      7  C   UNL     1       2.980   3.304  17.728  0.00  0.00    +0.000 A 
ENDROOT
BRANCH   5   8
ATOM      8  S   UNL     1       5.803   6.093  16.627  0.00  0.00    +0.000 S 
ATOM      9  C   UNL     1       6.843   4.606  16.765  0.00  0.00    +0.000 C 
ATOM     10  O   UNL     1       5.648   6.366  15.085  0.00  0.00    +0.000 OA
ENDBRANCH   5   8
BRANCH   1  12
ATOM     11  C   UNL     1       1.005   3.372  20.349  0.00  0.00    +0.000 C 
ATOM     12  O   UNL     1       0.906   3.458  18.930  0.00  0.00    +0.000 OA
ENDBRANCH   1  12
BRANCH   7  13
ATOM     13  O   UNL     1       3.073   1.945  17.634  0.00  0.00    +0.000 OA
ATOM     14  C   UNL     1       3.737   1.231  18.666  0.00  0.00    +0.000 C 
ENDBRANCH   7  13
TORSDOF 3
ENDMDL
MODEL 2
REMARK VINA RESULT:      -5.5      2.394      3.177
REMARK  Name = 
REMARK  7 active torsions:
REMARK  status: ('A' for Active; 'I' for Inactive)
REMARK    1  A    between atoms: C_1  and  O_2
REMARK    2  A    between atoms: O_2  and  C_3
REMARK    3  A    between atoms: C_5  and  C_6
REMARK    4  A    between atoms: C_7  and  S_8
REMARK    5  A    between atoms: S_8  and  C_9
REMARK    6  A    between atoms: C_12  and  O_13
REMARK    7  A    between atoms: O_13  and  C_14
REMARK                            x       y       z     vdW  Elec       q    Type
REMARK                         _______ _______ _______ _____ _____    ______ ____
ROOT
ATOM      1  C   UNL     1       2.835   3.876  18.036  0.00  0.00    +0.000 A 
ATOM      2  C   UNL     1       3.699   3.735  16.945  0.00  0.00    +0.000 A 
ATOM      3  C   UNL     1       5.060   4.072  17.006  0.00  0.00    +0.000 A 
ATOM      4  C   UNL     1       5.870   3.905  15.753  0.00  0.00    +0.000 C 
ATOM      5  C   UNL     1       5.566   4.595  18.221  0.00  0.00    +0.000 A 
ATOM      6  C   UNL     1       4.707   4.691  19.317  0.00  0.00    +0.000 A 
ATOM      7  C   UNL     1       3.348   4.349  19.254  0.00  0.00    +0.000 A 
ENDROOT
BRANCH   5   8
ATOM      8  S   UNL     1       7.279   5.210  18.383  0.00  0.00    +0.000 S 
ATOM      9  C   UNL     1       7.028   6.839  17.611  0.00  0.00    +0.000 C 
ATOM     10  O   UNL     1       7.544   5.495  19.908  0.00  0.00    +0.000 OA
ENDBRANCH   5   8
BRANCH   1  12
ATOM     11  C   UNL     1       1.028   2.455  18.574  0.00  0.00    +0.000 C 
ATOM     12  O   UNL     1       1.492   3.628  17.911  0.00  0.00    +0.000 OA
ENDBRANCH   1  12
BRANCH   7  13
ATOM     13  O   UNL     1       2.689   4.568  20.429  0.00  0.00    +0.000 OA
ATOM     14  C   UNL     1       1.885   5.732  20.555  0.00  0.00    +0.000 C 
ENDBRANCH   7  13
TORSDOF 3
ENDMDL
MODEL 3
REMARK VINA RESULT:      -5.5      2.156      3.049
REMARK  Name = 
REMARK  7 active torsions:
REMARK  status: ('A' for Active; 'I' for Inactive)
REMARK    1  A    between atoms: C_1  and  O_2
REMARK    2  A    between atoms: O_2  and  C_3
REMARK    3  A    between atoms: C_5  and  C_6
REMARK    4  A    between atoms: C_7  and  S_8
REMARK    5  A    between atoms: S_8  and  C_9
REMARK    6  A    between atoms: C_12  and  O_13
REMARK    7  A    between atoms: O_13  and  C_14
REMARK                            x       y       z     vdW  Elec       q    Type
REMARK                         _______ _______ _______ _____ _____    ______ ____
ROOT
ATOM      1  C   UNL     1       2.841   3.952  18.095  0.00  0.00    +0.000 A 
ATOM      2  C   UNL     1       3.555   3.763  16.906  0.00  0.00    +0.000 A 
ATOM      3  C   UNL     1       4.901   4.132  16.763  0.00  0.00    +0.000 A 
ATOM      4  C   UNL     1       5.539   3.906  15.422  0.00  0.00    +0.000 C 
ATOM      5  C   UNL     1       5.550   4.739  17.865  0.00  0.00    +0.000 A 
ATOM      6  C   UNL     1       4.844   4.883  19.060  0.00  0.00    +0.000 A 
ATOM      7  C   UNL     1       3.500   4.509  19.202  0.00  0.00    +0.000 A 
ENDROOT
BRANCH   5   8
ATOM      8  S   UNL     1       7.251   5.399  17.757  0.00  0.00    +0.000 S 
ATOM      9  C   UNL     1       7.502   5.716  19.531  0.00  0.00    +0.000 C 
ATOM     10  O   UNL     1       8.208   4.203  17.395  0.00  0.00    +0.000 OA
ENDBRANCH   5   8
BRANCH   1  12
ATOM     11  C   UNL     1       1.182   2.373  18.669  0.00  0.00    +0.000 C 
ATOM     12  O   UNL     1       1.502   3.668  18.168  0.00  0.00    +0.000 OA
ENDBRANCH   1  12
BRANCH   7  13
ATOM     13  O   UNL     1       2.999   4.786  20.442  0.00  0.00    +0.000 OA
ATOM     14  C   UNL     1       1.981   5.769  20.564  0.00  0.00    +0.000 C 
ENDBRANCH   7  13
TORSDOF 3
ENDMDL
MODEL 4
REMARK VINA RESULT:      -5.5      1.957      2.531
REMARK  Name = 
REMARK  7 active torsions:
REMARK  status: ('A' for Active; 'I' for Inactive)
REMARK    1  A    between atoms: C_1  and  O_2
REMARK    2  A    between atoms: O_2  and  C_3
REMARK    3  A    between atoms: C_5  and  C_6
REMARK    4  A    between atoms: C_7  and  S_8
REMARK    5  A    between atoms: S_8  and  C_9
REMARK    6  A    between atoms: C_12  and  O_13
REMARK    7  A    between atoms: O_13  and  C_14
REMARK                            x       y       z     vdW  Elec       q    Type
REMARK                         _______ _______ _______ _____ _____    ______ ____
ROOT
ATOM      1  C   UNL     1       3.920   4.589  19.187  0.00  0.00    +0.000 A 
ATOM      2  C   UNL     1       5.197   5.125  19.383  0.00  0.00    +0.000 A 
ATOM      3  C   UNL     1       6.166   5.167  18.369  0.00  0.00    +0.000 A 
ATOM      4  C   UNL     1       7.509   5.739  18.720  0.00  0.00    +0.000 C 
ATOM      5  C   UNL     1       5.836   4.622  17.104  0.00  0.00    +0.000 A 
ATOM      6  C   UNL     1       4.545   4.129  16.905  0.00  0.00    +0.000 A 
ATOM      7  C   UNL     1       3.577   4.093  17.920  0.00  0.00    +0.000 A 
ENDROOT
BRANCH   5   8
ATOM      8  S   UNL     1       7.055   4.480  15.751  0.00  0.00    +0.000 S 
ATOM      9  C   UNL     1       5.885   4.112  14.406  0.00  0.00    +0.000 C 
ATOM     10  O   UNL     1       7.612   5.922  15.453  0.00  0.00    +0.000 OA
ENDBRANCH   5   8
BRANCH   1  12
ATOM     11  C   UNL     1       2.109   5.556  20.355  0.00  0.00    +0.000 C 
ATOM     12  O   UNL     1       3.033   4.478  20.227  0.00  0.00    +0.000 OA
ENDBRANCH   1  12
BRANCH   7  13
ATOM     13  O   UNL     1       2.403   3.525  17.515  0.00  0.00    +0.000 OA
ATOM     14  C   UNL     1       2.058   2.241  18.013  0.00  0.00    +0.000 C 
ENDBRANCH   7  13
TORSDOF 3
ENDMDL
MODEL 5
REMARK VINA RESULT:      -5.4      2.127      4.681
REMARK  Name = 
REMARK  7 active torsions:
REMARK  status: ('A' for Active; 'I' for Inactive)
REMARK    1  A    between atoms: C_1  and  O_2
REMARK    2  A    between atoms: O_2  and  C_3
REMARK    3  A    between atoms: C_5  and  C_6
REMARK    4  A    between atoms: C_7  and  S_8
REMARK    5  A    between atoms: S_8  and  C_9
REMARK    6  A    between atoms: C_12  and  O_13
REMARK    7  A    between atoms: O_13  and  C_14
REMARK                            x       y       z     vdW  Elec       q    Type
REMARK                         _______ _______ _______ _____ _____    ______ ____
ROOT
ATOM      1  C   UNL     1       5.754   6.213  16.853  0.00  0.00    +0.000 A 
ATOM      2  C   UNL     1       4.752   6.911  17.536  0.00  0.00    +0.000 A 
ATOM      3  C   UNL     1       3.551   6.310  17.942  0.00  0.00    +0.000 A 
ATOM      4  C   UNL     1       2.544   7.181  18.637  0.00  0.00    +0.000 C 
ATOM      5  C   UNL     1       3.344   4.946  17.625  0.00  0.00    +0.000 A 
ATOM      6  C   UNL     1       4.366   4.246  16.983  0.00  0.00    +0.000 A 
ATOM      7  C   UNL     1       5.569   4.848  16.582  0.00  0.00    +0.000 A 
ENDROOT
BRANCH   5   8
ATOM      8  S   UNL     1       1.765   4.091  17.965  0.00  0.00    +0.000 S 
ATOM      9  C   UNL     1       2.334   2.392  17.643  0.00  0.00    +0.000 C 
ATOM     10  O   UNL     1       1.501   4.168  19.515  0.00  0.00    +0.000 OA
ENDBRANCH   5   8
BRANCH   1  12
ATOM     11  C   UNL     1       7.547   7.669  17.343  0.00  0.00    +0.000 C 
ATOM     12  O   UNL     1       6.872   6.856  16.387  0.00  0.00    +0.000 OA
ENDBRANCH   1  12
BRANCH   7  13
ATOM     13  O   UNL     1       6.403   3.987  15.928  0.00  0.00    +0.000 OA
ATOM     14  C   UNL     1       6.311   3.887  14.515  0.00  0.00    +0.000 C 
ENDBRANCH   7  13
TORSDOF 3
ENDMDL
MODEL 6
REMARK VINA RESULT:      -5.4      1.112      1.112
REMARK  Name = 
REMARK  7 active torsions:
REMARK  status: ('A' for Active; 'I' for Inactive)
REMARK    1  A    between atoms: C_1  and  O_2
REMARK    2  A    between atoms: O_2  and  C_3
REMARK    3  A    between atoms: C_5  and  C_6
REMARK    4  A    between atoms: C_7  and  S_8
REMARK    5  A    between atoms: S_8  and  C_9
REMARK    6  A    between atoms: C_12  and  O_13
REMARK    7  A    between atoms: O_13  and  C_14
REMARK                            x       y       z     vdW  Elec       q    Type
REMARK                         _______ _______ _______ _____ _____    ______ ____
ROOT
ATOM      1  C   UNL     1       2.645   4.520  19.518  0.00  0.00    +0.000 A 
ATOM      2  C   UNL     1       2.434   5.832  19.082  0.00  0.00    +0.000 A 
ATOM      3  C   UNL     1       3.307   6.489  18.203  0.00  0.00    +0.000 A 
ATOM      4  C   UNL     1       2.982   7.910  17.840  0.00  0.00    +0.000 C 
ATOM      5  C   UNL     1       4.459   5.796  17.760  0.00  0.00    +0.000 A 
ATOM      6  C   UNL     1       4.640   4.472  18.165  0.00  0.00    +0.000 A 
ATOM      7  C   UNL     1       3.762   3.816  19.040  0.00  0.00    +0.000 A 
ENDROOT
BRANCH   5   8
ATOM      8  S   UNL     1       5.748   6.591  16.736  0.00  0.00    +0.000 S 
ATOM      9  C   UNL     1       6.909   5.191  16.676  0.00  0.00    +0.000 C 
ATOM     10  O   UNL     1       5.178   6.738  15.276  0.00  0.00    +0.000 OA
ENDBRANCH   5   8
BRANCH   1  12
ATOM     11  C   UNL     1       0.748   3.173  19.922  0.00  0.00    +0.000 C 
ATOM     12  O   UNL     1       1.823   3.944  20.452  0.00  0.00    +0.000 OA
ENDBRANCH   1  12
BRANCH   7  13
ATOM     13  O   UNL     1       4.160   2.544  19.338  0.00  0.00    +0.000 OA
ATOM     14  C   UNL     1       3.684   1.473  18.536  0.00  0.00    +0.000 C 
ENDBRANCH   7  13
TORSDOF 3
ENDMDL
MODEL 7
REMARK VINA RESULT:      -5.3      2.612      5.312
REMARK  Name = 
REMARK  7 active torsions:
REMARK  status: ('A' for Active; 'I' for Inactive)
REMARK    1  A    between atoms: C_1  and  O_2
REMARK    2  A    between atoms: O_2  and  C_3
REMARK    3  A    between atoms: C_5  and  C_6
REMARK    4  A    between atoms: C_7  and  S_8
REMARK    5  A    between atoms: S_8  and  C_9
REMARK    6  A    between atoms: C_12  and  O_13
REMARK    7  A    between atoms: O_13  and  C_14
REMARK                            x       y       z     vdW  Elec       q    Type
REMARK                         _______ _______ _______ _____ _____    ______ ____
ROOT
ATOM      1  C   UNL     1       6.086   5.061  16.164  0.00  0.00    +0.000 A 
ATOM      2  C   UNL     1       5.097   4.085  16.326  0.00  0.00    +0.000 A 
ATOM      3  C   UNL     1       3.926   4.307  17.066  0.00  0.00    +0.000 A 
ATOM      4  C   UNL     1       2.960   3.164  17.190  0.00  0.00    +0.000 C 
ATOM      5  C   UNL     1       3.756   5.567  17.689  0.00  0.00    +0.000 A 
ATOM      6  C   UNL     1       4.727   6.550  17.487  0.00  0.00    +0.000 A 
ATOM      7  C   UNL     1       5.894   6.326  16.742  0.00  0.00    +0.000 A 
ENDROOT
BRANCH   5   8
ATOM      8  S   UNL     1       2.351   5.929  18.800  0.00  0.00    +0.000 S 
ATOM      9  C   UNL     1       2.943   5.004  20.251  0.00  0.00    +0.000 C 
ATOM     10  O   UNL     1       2.433   7.450  19.198  0.00  0.00    +0.000 OA
ENDBRANCH   5   8
BRANCH   1  12
ATOM     11  C   UNL     1       7.197   4.831  14.093  0.00  0.00    +0.000 C 
ATOM     12  O   UNL     1       7.260   4.777  15.516  0.00  0.00    +0.000 OA
ENDBRANCH   1  12
BRANCH   7  13
ATOM     13  O   UNL     1       6.725   7.410  16.717  0.00  0.00    +0.000 OA
ATOM     14  C   UNL     1       7.717   7.535  17.725  0.00  0.00    +0.000 C 
ENDBRANCH   7  13
TORSDOF 3
ENDMDL
MODEL 8
REMARK VINA RESULT:      -5.3      2.068      4.770
REMARK  Name = 
REMARK  7 active torsions:
REMARK  status: ('A' for Active; 'I' for Inactive)
REMARK    1  A    between atoms: C_1  and  O_2
REMARK    2  A    between atoms: O_2  and  C_3
REMARK    3  A    between atoms: C_5  and  C_6
REMARK    4  A    between atoms: C_7  and  S_8
REMARK    5  A    between atoms: S_8  and  C_9
REMARK    6  A    between atoms: C_12  and  O_13
REMARK    7  A    between atoms: O_13  and  C_14
REMARK                            x       y       z     vdW  Elec       q    Type
REMARK                         _______ _______ _______ _____ _____    ______ ____
ROOT
ATOM      1  C   UNL     1       5.727   6.202  16.867  0.00  0.00    +0.000 A 
ATOM      2  C   UNL     1       4.605   6.465  17.660  0.00  0.00    +0.000 A 
ATOM      3  C   UNL     1       3.633   5.494  17.944  0.00  0.00    +0.000 A 
ATOM      4  C   UNL     1       2.460   5.916  18.782  0.00  0.00    +0.000 C 
ATOM      5  C   UNL     1       3.791   4.203  17.383  0.00  0.00    +0.000 A 
ATOM      6  C   UNL     1       4.935   3.938  16.629  0.00  0.00    +0.000 A 
ATOM      7  C   UNL     1       5.908   4.909  16.351  0.00  0.00    +0.000 A 
ENDROOT
BRANCH   5   8
ATOM      8  S   UNL     1       2.522   2.900  17.554  0.00  0.00    +0.000 S 
ATOM      9  C   UNL     1       2.905   2.408  19.264  0.00  0.00    +0.000 C 
ATOM     10  O   UNL     1       1.116   3.604  17.615  0.00  0.00    +0.000 OA
ENDBRANCH   5   8
BRANCH   1  12
ATOM     11  C   UNL     1       7.584   7.505  17.521  0.00  0.00    +0.000 C 
ATOM     12  O   UNL     1       6.605   7.200  16.532  0.00  0.00    +0.000 OA
ENDBRANCH   1  12
BRANCH   7  13
ATOM     13  O   UNL     1       6.914   4.442  15.555  0.00  0.00    +0.000 OA
ATOM     14  C   UNL     1       6.767   4.525  14.145  0.00  0.00    +0.000 C 
ENDBRANCH   7  13
TORSDOF 3
ENDMDL
MODEL 9
REMARK VINA RESULT:      -5.3      1.988      2.747
REMARK  Name = 
REMARK  7 active torsions:
REMARK  status: ('A' for Active; 'I' for Inactive)
REMARK    1  A    between atoms: C_1  and  O_2
REMARK    2  A    between atoms: O_2  and  C_3
REMARK    3  A    between atoms: C_5  and  C_6
REMARK    4  A    between atoms: C_7  and  S_8
REMARK    5  A    between atoms: S_8  and  C_9
REMARK    6  A    between atoms: C_12  and  O_13
REMARK    7  A    between atoms: O_13  and  C_14
REMARK                            x       y       z     vdW  Elec       q    Type
REMARK                         _______ _______ _______ _____ _____    ______ ____
ROOT
ATOM      1  C   UNL     1       4.025   4.305  19.168  0.00  0.00    +0.000 A 
ATOM      2  C   UNL     1       5.317   4.802  19.365  0.00  0.00    +0.000 A 
ATOM      3  C   UNL     1       6.255   4.912  18.327  0.00  0.00    +0.000 A 
ATOM      4  C   UNL     1       7.619   5.431  18.680  0.00  0.00    +0.000 C 
ATOM      5  C   UNL     1       5.875   4.481  17.033  0.00  0.00    +0.000 A 
ATOM      6  C   UNL     1       4.570   4.027  16.836  0.00  0.00    +0.000 A 
ATOM      7  C   UNL     1       3.633   3.923  17.875  0.00  0.00    +0.000 A 
ENDROOT
BRANCH   5   8
ATOM      8  S   UNL     1       7.048   4.432  15.633  0.00  0.00    +0.000 S 
ATOM      9  C   UNL     1       5.838   4.116  14.311  0.00  0.00    +0.000 C 
ATOM     10  O   UNL     1       7.571   5.897  15.394  0.00  0.00    +0.000 OA
ENDBRANCH   5   8
BRANCH   1  12
ATOM     11  C   UNL     1       3.156   2.807  20.772  0.00  0.00    +0.000 C 
ATOM     12  O   UNL     1       3.169   4.122  20.223  0.00  0.00    +0.000 OA
ENDBRANCH   1  12
BRANCH   7  13
ATOM     13  O   UNL     1       2.436   3.410  17.464  0.00  0.00    +0.000 OA
ATOM     14  C   UNL     1       1.271   4.213  17.581  0.00  0.00    +0.000 C 
ENDBRANCH   7  13
TORSDOF 3
ENDMDL
