MODEL 1
REMARK VINA RESULT:      -7.0      0.000      0.000
REMARK  Name = 
REMARK  7 active torsions:
REMARK  status: ('A' for Active; 'I' for Inactive)
REMARK    1  A    between atoms: C_1  and  C_2
REMARK    2  A    between atoms: C_5  and  C_6
REMARK    3  A    between atoms: N_8  and  C_9
REMARK    4  A    between atoms: N_8  and  C_10
REMARK    5  A    between atoms: C_14  and  O_15
REMARK    6  A    between atoms: O_15  and  C_16
REMARK    7  A    between atoms: C_22  and  O_23
REMARK                            x       y       z     vdW  Elec       q    Type
REMARK                         _______ _______ _______ _____ _____    ______ ____
ROOT
ATOM      1  C   UNL     1       3.491   4.227  18.352  0.00  0.00    +0.000 C 
ATOM      2  C   UNL     1       3.764   3.243  19.508  0.00  0.00    +0.000 C 
ATOM      3  C   UNL     1       3.338   3.759  20.874  0.00  0.00    +0.000 C 
ATOM      4  C   UNL     1       1.944   4.382  20.891  0.00  0.00    +0.000 C 
ATOM      5  C   UNL     1       1.688   5.381  19.747  0.00  0.00    +0.000 C 
ATOM      6  C   UNL     1       2.013   4.723  18.381  0.00  0.00    +0.000 C 
ENDROOT
BRANCH   1   9
ATOM      7  C   UNL     1       5.236   3.845  16.526  0.00  0.00    +0.000 C 
ATOM      8  O   UNL     1       5.755   3.050  15.746  0.00  0.00    +0.000 OA
ATOM      9  N   UNL     1       3.935   3.667  17.036  0.00  0.00    +0.000 N 
ATOM     10  C   UNL     1       3.156   2.599  16.413  0.00  0.00    +0.000 C 
BRANCH   7  15
ATOM     11  C   UNL     1       8.142   8.463  18.089  0.00  0.00    +0.000 C 
ATOM     12  C   UNL     1       7.376   7.244  17.676  0.00  0.00    +0.000 A 
ATOM     13  C   UNL     1       7.595   6.015  18.290  0.00  0.00    +0.000 A 
ATOM     14  N   UNL     1       6.947   4.882  17.931  0.00  0.00    +0.000 NA
ATOM     15  C   UNL     1       6.045   5.026  16.927  0.00  0.00    +0.000 A 
ATOM     16  C   UNL     1       5.797   6.253  16.330  0.00  0.00    +0.000 A 
ATOM     17  N   UNL     1       6.470   7.382  16.679  0.00  0.00    +0.000 NA
ENDBRANCH   7  15
ENDBRANCH   1   9
BRANCH   6  18
ATOM     18  O   UNL     1       1.054   3.680  18.142  0.00  0.00    +0.000 OA
ATOM     19  H   UNL     1       0.618   3.454  18.978  0.00  0.00    +0.000 HD
ENDBRANCH   6  18
BRANCH   5  20
ATOM     20  O   UNL     1       2.499   6.543  19.986  0.00  0.00    +0.000 OA
BRANCH  20  21
ATOM     21  C   UNL     1       2.077   7.753  19.498  0.00  0.00    +0.000 A 
ATOM     22  C   UNL     1       2.345   8.273  18.231  0.00  0.00    +0.000 A 
ATOM     23  C   UNL     1       1.863   9.537  17.866  0.00  0.00    +0.000 A 
ATOM     24  C   UNL     1       1.113  10.292  18.764  0.00  0.00    +0.000 A 
ATOM     25  C   UNL     1       0.840   9.782  20.030  0.00  0.00    +0.000 A 
ATOM     26  C   UNL     1       1.321   8.519  20.393  0.00  0.00    +0.000 A 
ENDBRANCH  20  21
ENDBRANCH   5  20
TORSDOF 5
ENDMDL
MODEL 2
REMARK VINA RESULT:      -6.8      0.695      1.046
REMARK  Name = 
REMARK  7 active torsions:
REMARK  status: ('A' for Active; 'I' for Inactive)
REMARK    1  A    between atoms: C_1  and  C_2
REMARK    2  A    between atoms: C_5  and  C_6
REMARK    3  A    between atoms: N_8  and  C_9
REMARK    4  A    between atoms: N_8  and  C_10
REMARK    5  A    between atoms: C_14  and  O_15
REMARK    6  A    between atoms: O_15  and  C_16
REMARK    7  A    between atoms: C_22  and  O_23
REMARK                            x       y       z     vdW  Elec       q    Type
REMARK                         _______ _______ _______ _____ _____    ______ ____
ROOT
ATOM      1  C   UNL     1       3.353   3.877  18.637  0.00  0.00    +0.000 C 
ATOM      2  C   UNL     1       3.655   2.860  19.757  0.00  0.00    +0.000 C 
ATOM      3  C   UNL     1       3.272   3.341  21.149  0.00  0.00    +0.000 C 
ATOM      4  C   UNL     1       1.882   3.968  21.225  0.00  0.00    +0.000 C 
ATOM      5  C   UNL     1       1.597   4.999  20.117  0.00  0.00    +0.000 C 
ATOM      6  C   UNL     1       1.878   4.378  18.724  0.00  0.00    +0.000 C 
ENDROOT
BRANCH   1   9
ATOM      7  C   UNL     1       5.001   3.636  16.701  0.00  0.00    +0.000 C 
ATOM      8  O   UNL     1       5.532   2.884  15.887  0.00  0.00    +0.000 OA
ATOM      9  N   UNL     1       3.755   3.352  17.294  0.00  0.00    +0.000 N 
ATOM     10  C   UNL     1       3.028   2.222  16.719  0.00  0.00    +0.000 C 
BRANCH   7  15
ATOM     11  C   UNL     1       7.978   8.300  17.962  0.00  0.00    +0.000 C 
ATOM     12  C   UNL     1       7.191   7.070  17.630  0.00  0.00    +0.000 A 
ATOM     13  C   UNL     1       6.021   7.144  16.883  0.00  0.00    +0.000 A 
ATOM     14  N   UNL     1       5.263   6.063  16.583  0.00  0.00    +0.000 NA
ATOM     15  C   UNL     1       5.734   4.880  17.052  0.00  0.00    +0.000 A 
ATOM     16  C   UNL     1       6.916   4.792  17.772  0.00  0.00    +0.000 A 
ATOM     17  N   UNL     1       7.659   5.885  18.092  0.00  0.00    +0.000 NA
ENDBRANCH   7  15
ENDBRANCH   1   9
BRANCH   6  18
ATOM     18  O   UNL     1       0.907   3.346  18.485  0.00  0.00    +0.000 OA
ATOM     19  H   UNL     1       0.145   3.488  19.066  0.00  0.00    +0.000 HD
ENDBRANCH   6  18
BRANCH   5  20
ATOM     20  O   UNL     1       2.419   6.151  20.364  0.00  0.00    +0.000 OA
BRANCH  20  21
ATOM     21  C   UNL     1       2.100   7.334  19.749  0.00  0.00    +0.000 A 
ATOM     22  C   UNL     1       2.454   7.717  18.454  0.00  0.00    +0.000 A 
ATOM     23  C   UNL     1       2.071   8.968  17.954  0.00  0.00    +0.000 A 
ATOM     24  C   UNL     1       1.336   9.849  18.744  0.00  0.00    +0.000 A 
ATOM     25  C   UNL     1       0.978   9.477  20.037  0.00  0.00    +0.000 A 
ATOM     26  C   UNL     1       1.359   8.226  20.534  0.00  0.00    +0.000 A 
ENDBRANCH  20  21
ENDBRANCH   5  20
TORSDOF 5
ENDMDL
MODEL 3
REMARK VINA RESULT:      -6.7      0.619      1.417
REMARK  Name = 
REMARK  7 active torsions:
REMARK  status: ('A' for Active; 'I' for Inactive)
REMARK    1  A    between atoms: C_1  and  C_2
REMARK    2  A    between atoms: C_5  and  C_6
REMARK    3  A    between atoms: N_8  and  C_9
REMARK    4  A    between atoms: N_8  and  C_10
REMARK    5  A    between atoms: C_14  and  O_15
REMARK    6  A    between atoms: O_15  and  C_16
REMARK    7  A    between atoms: C_22  and  O_23
REMARK                            x       y       z     vdW  Elec       q    Type
REMARK                         _______ _______ _______ _____ _____    ______ ____
ROOT
ATOM      1  C   UNL     1       3.652   4.477  18.292  0.00  0.00    +0.000 C 
ATOM      2  C   UNL     1       3.839   3.451  19.430  0.00  0.00    +0.000 C 
ATOM      3  C   UNL     1       3.276   3.902  20.769  0.00  0.00    +0.000 C 
ATOM      4  C   UNL     1       1.873   4.497  20.681  0.00  0.00    +0.000 C 
ATOM      5  C   UNL     1       1.702   5.538  19.558  0.00  0.00    +0.000 C 
ATOM      6  C   UNL     1       2.166   4.944  18.204  0.00  0.00    +0.000 C 
ENDROOT
BRANCH   1   9
ATOM      7  C   UNL     1       5.560   4.223  16.614  0.00  0.00    +0.000 C 
ATOM      8  O   UNL     1       6.174   3.476  15.856  0.00  0.00    +0.000 OA
ATOM      9  N   UNL     1       4.228   3.981  17.003  0.00  0.00    +0.000 N 
ATOM     10  C   UNL     1       3.546   2.909  16.279  0.00  0.00    +0.000 C 
BRANCH   7  15
ATOM     11  C   UNL     1       8.514   8.676  18.526  0.00  0.00    +0.000 C 
ATOM     12  C   UNL     1       7.733   7.502  18.021  0.00  0.00    +0.000 A 
ATOM     13  C   UNL     1       6.802   7.643  16.999  0.00  0.00    +0.000 A 
ATOM     14  N   UNL     1       6.054   6.615  16.531  0.00  0.00    +0.000 NA
ATOM     15  C   UNL     1       6.285   5.417  17.123  0.00  0.00    +0.000 A 
ATOM     16  C   UNL     1       7.233   5.260  18.122  0.00  0.00    +0.000 A 
ATOM     17  N   UNL     1       7.963   6.301  18.605  0.00  0.00    +0.000 NA
ENDBRANCH   7  15
ENDBRANCH   1   9
BRANCH   6  18
ATOM     18  O   UNL     1       1.257   3.894  17.835  0.00  0.00    +0.000 OA
ATOM     19  H   UNL     1       0.834   3.547  18.635  0.00  0.00    +0.000 HD
ENDBRANCH   6  18
BRANCH   5  20
ATOM     20  O   UNL     1       2.460   6.704  19.918  0.00  0.00    +0.000 OA
BRANCH  20  21
ATOM     21  C   UNL     1       1.936   7.941  19.645  0.00  0.00    +0.000 A 
ATOM     22  C   UNL     1       1.176   8.728  20.512  0.00  0.00    +0.000 A 
ATOM     23  C   UNL     1       0.687   9.974  20.096  0.00  0.00    +0.000 A 
ATOM     24  C   UNL     1       0.950  10.441  18.811  0.00  0.00    +0.000 A 
ATOM     25  C   UNL     1       1.706   9.664  17.938  0.00  0.00    +0.000 A 
ATOM     26  C   UNL     1       2.195   8.421  18.356  0.00  0.00    +0.000 A 
ENDBRANCH  20  21
ENDBRANCH   5  20
TORSDOF 5
ENDMDL
MODEL 4
REMARK VINA RESULT:      -6.6      8.704     12.126
REMARK  Name = 
REMARK  7 active torsions:
REMARK  status: ('A' for Active; 'I' for Inactive)
REMARK    1  A    between atoms: C_1  and  C_2
REMARK    2  A    between atoms: C_5  and  C_6
REMARK    3  A    between atoms: N_8  and  C_9
REMARK    4  A    between atoms: N_8  and  C_10
REMARK    5  A    between atoms: C_14  and  O_15
REMARK    6  A    between atoms: O_15  and  C_16
REMARK    7  A    between atoms: C_22  and  O_23
REMARK                            x       y       z     vdW  Elec       q    Type
REMARK                         _______ _______ _______ _____ _____    ______ ____
ROOT
ATOM      1  C   UNL     1      -6.497  13.382  20.775  0.00  0.00    +0.000 C 
ATOM      2  C   UNL     1      -7.739  13.743  19.933  0.00  0.00    +0.000 C 
ATOM      3  C   UNL     1      -7.662  13.280  18.486  0.00  0.00    +0.000 C 
ATOM      4  C   UNL     1      -7.188  11.838  18.324  0.00  0.00    +0.000 C 
ATOM      5  C   UNL     1      -5.935  11.492  19.149  0.00  0.00    +0.000 C 
ATOM      6  C   UNL     1      -6.154  11.866  20.637  0.00  0.00    +0.000 C 
ENDROOT
BRANCH   1   9
ATOM      7  C   UNL     1      -5.519  14.199  22.988  0.00  0.00    +0.000 C 
ATOM      8  O   UNL     1      -5.589  15.008  23.910  0.00  0.00    +0.000 OA
ATOM      9  N   UNL     1      -6.628  13.867  22.185  0.00  0.00    +0.000 N 
ATOM     10  C   UNL     1      -7.916  14.373  22.652  0.00  0.00    +0.000 C 
BRANCH   7  15
ATOM     11  C   UNL     1      -0.372  11.984  22.087  0.00  0.00    +0.000 C 
ATOM     12  C   UNL     1      -1.731  12.567  22.324  0.00  0.00    +0.000 A 
ATOM     13  C   UNL     1      -2.644  11.943  23.166  0.00  0.00    +0.000 A 
ATOM     14  N   UNL     1      -3.892  12.419  23.388  0.00  0.00    +0.000 NA
ATOM     15  C   UNL     1      -4.195  13.570  22.738  0.00  0.00    +0.000 A 
ATOM     16  C   UNL     1      -3.280  14.217  21.921  0.00  0.00    +0.000 A 
ATOM     17  N   UNL     1      -2.037  13.720  21.682  0.00  0.00    +0.000 NA
ENDBRANCH   7  15
ENDBRANCH   1   9
BRANCH   6  18
ATOM     18  O   UNL     1      -7.165  10.999  21.177  0.00  0.00    +0.000 OA
ATOM     19  H   UNL     1      -7.109  11.011  22.144  0.00  0.00    +0.000 HD
ENDBRANCH   6  18
BRANCH   5  20
ATOM     20  O   UNL     1      -4.822  12.200  18.579  0.00  0.00    +0.000 OA
BRANCH  20  21
ATOM     21  C   UNL     1      -3.699  11.495  18.232  0.00  0.00    +0.000 A 
ATOM     22  C   UNL     1      -2.441  11.593  18.829  0.00  0.00    +0.000 A 
ATOM     23  C   UNL     1      -1.370  10.820  18.361  0.00  0.00    +0.000 A 
ATOM     24  C   UNL     1      -1.546   9.946  17.292  0.00  0.00    +0.000 A 
ATOM     25  C   UNL     1      -2.796   9.840  16.689  0.00  0.00    +0.000 A 
ATOM     26  C   UNL     1      -3.865  10.612  17.158  0.00  0.00    +0.000 A 
ENDBRANCH  20  21
ENDBRANCH   5  20
TORSDOF 5
ENDMDL
MODEL 5
REMARK VINA RESULT:      -6.5      7.682     10.971
REMARK  Name = 
REMARK  7 active torsions:
REMARK  status: ('A' for Active; 'I' for Inactive)
REMARK    1  A    between atoms: C_1  and  C_2
REMARK    2  A    between atoms: C_5  and  C_6
REMARK    3  A    between atoms: N_8  and  C_9
REMARK    4  A    between atoms: N_8  and  C_10
REMARK    5  A    between atoms: C_14  and  O_15
REMARK    6  A    between atoms: O_15  and  C_16
REMARK    7  A    between atoms: C_22  and  O_23
REMARK                            x       y       z     vdW  Elec       q    Type
REMARK                         _______ _______ _______ _____ _____    ______ ____
ROOT
ATOM      1  C   UNL     1      -1.248  11.735  19.804  0.00  0.00    +0.000 C 
ATOM      2  C   UNL     1      -0.446  10.511  19.313  0.00  0.00    +0.000 C 
ATOM      3  C   UNL     1      -1.209   9.618  18.346  0.00  0.00    +0.000 C 
ATOM      4  C   UNL     1      -1.933  10.383  17.240  0.00  0.00    +0.000 C 
ATOM      5  C   UNL     1      -2.749  11.589  17.741  0.00  0.00    +0.000 C 
ATOM      6  C   UNL     1      -1.856  12.520  18.600  0.00  0.00    +0.000 C 
ENDROOT
BRANCH   1   9
ATOM      7  C   UNL     1      -0.913  12.935  22.033  0.00  0.00    +0.000 C 
ATOM      8  O   UNL     1      -0.153  13.183  22.966  0.00  0.00    +0.000 OA
ATOM      9  N   UNL     1      -0.449  12.571  20.754  0.00  0.00    +0.000 N 
ATOM     10  C   UNL     1       0.989  12.722  20.541  0.00  0.00    +0.000 C 
BRANCH   7  15
ATOM     11  C   UNL     1      -6.439  13.297  23.277  0.00  0.00    +0.000 C 
ATOM     12  C   UNL     1      -4.981  13.202  22.948  0.00  0.00    +0.000 A 
ATOM     13  C   UNL     1      -4.389  14.076  22.044  0.00  0.00    +0.000 A 
ATOM     14  N   UNL     1      -3.082  14.009  21.695  0.00  0.00    +0.000 NA
ATOM     15  C   UNL     1      -2.372  13.028  22.304  0.00  0.00    +0.000 A 
ATOM     16  C   UNL     1      -2.946  12.170  23.231  0.00  0.00    +0.000 A 
ATOM     17  N   UNL     1      -4.265  12.226  23.557  0.00  0.00    +0.000 NA
ENDBRANCH   7  15
ENDBRANCH   1   9
BRANCH   6  18
ATOM     18  O   UNL     1      -0.866  13.112  17.744  0.00  0.00    +0.000 OA
ATOM     19  H   UNL     1      -0.368  13.773  18.247  0.00  0.00    +0.000 HD
ENDBRANCH   6  18
BRANCH   5  20
ATOM     20  O   UNL     1      -3.869  11.084  18.488  0.00  0.00    +0.000 OA
BRANCH  20  21
ATOM     21  C   UNL     1      -5.084  11.703  18.353  0.00  0.00    +0.000 A 
ATOM     22  C   UNL     1      -5.613  12.242  17.180  0.00  0.00    +0.000 A 
ATOM     23  C   UNL     1      -6.869  12.865  17.187  0.00  0.00    +0.000 A 
ATOM     24  C   UNL     1      -7.604  12.956  18.366  0.00  0.00    +0.000 A 
ATOM     25  C   UNL     1      -7.085  12.421  19.542  0.00  0.00    +0.000 A 
ATOM     26  C   UNL     1      -5.832  11.799  19.533  0.00  0.00    +0.000 A 
ENDBRANCH  20  21
ENDBRANCH   5  20
TORSDOF 5
ENDMDL
MODEL 6
REMARK VINA RESULT:      -6.5      8.229     11.433
REMARK  Name = 
REMARK  7 active torsions:
REMARK  status: ('A' for Active; 'I' for Inactive)
REMARK    1  A    between atoms: C_1  and  C_2
REMARK    2  A    between atoms: C_5  and  C_6
REMARK    3  A    between atoms: N_8  and  C_9
REMARK    4  A    between atoms: N_8  and  C_10
REMARK    5  A    between atoms: C_14  and  O_15
REMARK    6  A    between atoms: O_15  and  C_16
REMARK    7  A    between atoms: C_22  and  O_23
REMARK                            x       y       z     vdW  Elec       q    Type
REMARK                         _______ _______ _______ _____ _____    ______ ____
ROOT
ATOM      1  C   UNL     1      -1.967  12.501  21.861  0.00  0.00    +0.000 C 
ATOM      2  C   UNL     1      -0.883  11.676  22.585  0.00  0.00    +0.000 C 
ATOM      3  C   UNL     1      -0.304  10.545  21.747  0.00  0.00    +0.000 C 
ATOM      4  C   UNL     1       0.062  10.957  20.323  0.00  0.00    +0.000 C 
ATOM      5  C   UNL     1      -1.035  11.761  19.600  0.00  0.00    +0.000 C 
ATOM      6  C   UNL     1      -1.464  12.975  20.462  0.00  0.00    +0.000 C 
ENDROOT
BRANCH   1   9
ATOM      7  C   UNL     1      -3.878  13.850  22.887  0.00  0.00    +0.000 C 
ATOM      8  O   UNL     1      -4.346  14.372  23.896  0.00  0.00    +0.000 OA
ATOM      9  N   UNL     1      -2.501  13.593  22.735  0.00  0.00    +0.000 N 
ATOM     10  C   UNL     1      -1.635  14.186  23.752  0.00  0.00    +0.000 C 
BRANCH   7  15
ATOM     11  C   UNL     1      -7.370  12.481  18.628  0.00  0.00    +0.000 C 
ATOM     12  C   UNL     1      -6.450  12.842  19.753  0.00  0.00    +0.000 A 
ATOM     13  C   UNL     1      -6.287  12.000  20.847  0.00  0.00    +0.000 A 
ATOM     14  N   UNL     1      -5.488  12.298  21.899  0.00  0.00    +0.000 NA
ATOM     15  C   UNL     1      -4.834  13.484  21.809  0.00  0.00    +0.000 A 
ATOM     16  C   UNL     1      -4.966  14.316  20.708  0.00  0.00    +0.000 A 
ATOM     17  N   UNL     1      -5.790  14.022  19.666  0.00  0.00    +0.000 NA
ENDBRANCH   7  15
ENDBRANCH   1   9
BRANCH   6  18
ATOM     18  O   UNL     1      -0.361  13.893  20.532  0.00  0.00    +0.000 OA
ATOM     19  H   UNL     1       0.468  13.397  20.459  0.00  0.00    +0.000 HD
ENDBRANCH   6  18
BRANCH   5  20
ATOM     20  O   UNL     1      -2.135  10.873  19.343  0.00  0.00    +0.000 OA
BRANCH  20  21
ATOM     21  C   UNL     1      -2.589  10.741  18.056  0.00  0.00    +0.000 A 
ATOM     22  C   UNL     1      -2.001   9.981  17.044  0.00  0.00    +0.000 A 
ATOM     23  C   UNL     1      -2.565   9.948  15.762  0.00  0.00    +0.000 A 
ATOM     24  C   UNL     1      -3.718  10.676  15.479  0.00  0.00    +0.000 A 
ATOM     25  C   UNL     1      -4.312  11.438  16.481  0.00  0.00    +0.000 A 
ATOM     26  C   UNL     1      -3.749  11.469  17.762  0.00  0.00    +0.000 A 
ENDBRANCH  20  21
ENDBRANCH   5  20
TORSDOF 5
ENDMDL
MODEL 7
REMARK VINA RESULT:      -6.4      6.940     10.037
REMARK  Name = 
REMARK  7 active torsions:
REMARK  status: ('A' for Active; 'I' for Inactive)
REMARK    1  A    between atoms: C_1  and  C_2
REMARK    2  A    between atoms: C_5  and  C_6
REMARK    3  A    between atoms: N_8  and  C_9
REMARK    4  A    between atoms: N_8  and  C_10
REMARK    5  A    between atoms: C_14  and  O_15
REMARK    6  A    between atoms: O_15  and  C_16
REMARK    7  A    between atoms: C_22  and  O_23
REMARK                            x       y       z     vdW  Elec       q    Type
REMARK                         _______ _______ _______ _____ _____    ______ ____
ROOT
ATOM      1  C   UNL     1      -1.065  10.998  18.819  0.00  0.00    +0.000 C 
ATOM      2  C   UNL     1      -0.862   9.910  17.744  0.00  0.00    +0.000 C 
ATOM      3  C   UNL     1      -2.139   9.508  17.021  0.00  0.00    +0.000 C 
ATOM      4  C   UNL     1      -2.990  10.692  16.568  0.00  0.00    +0.000 C 
ATOM      5  C   UNL     1      -3.207  11.762  17.654  0.00  0.00    +0.000 C 
ATOM      6  C   UNL     1      -1.844  12.217  18.236  0.00  0.00    +0.000 C 
ENDROOT
BRANCH   1   9
ATOM      7  C   UNL     1       0.326  11.557  20.887  0.00  0.00    +0.000 C 
ATOM      8  O   UNL     1       1.370  11.373  21.508  0.00  0.00    +0.000 OA
ATOM      9  N   UNL     1       0.223  11.347  19.498  0.00  0.00    +0.000 N 
ATOM     10  C   UNL     1       1.486  11.112  18.802  0.00  0.00    +0.000 C 
BRANCH   7  15
ATOM     11  C   UNL     1      -4.074  13.254  24.045  0.00  0.00    +0.000 C 
ATOM     12  C   UNL     1      -2.914  12.806  23.211  0.00  0.00    +0.000 A 
ATOM     13  C   UNL     1      -2.366  13.634  22.238  0.00  0.00    +0.000 A 
ATOM     14  N   UNL     1      -1.336  13.262  21.442  0.00  0.00    +0.000 NA
ATOM     15  C   UNL     1      -0.855  12.014  21.667  0.00  0.00    +0.000 A 
ATOM     16  C   UNL     1      -1.374  11.191  22.656  0.00  0.00    +0.000 A 
ATOM     17  N   UNL     1      -2.426  11.562  23.435  0.00  0.00    +0.000 NA
ENDBRANCH   7  15
ENDBRANCH   1   9
BRANCH   6  18
ATOM     18  O   UNL     1      -1.125  12.918  17.208  0.00  0.00    +0.000 OA
ATOM     19  H   UNL     1      -1.461  13.825  17.150  0.00  0.00    +0.000 HD
ENDBRANCH   6  18
BRANCH   5  20
ATOM     20  O   UNL     1      -4.058  11.198  18.666  0.00  0.00    +0.000 OA
BRANCH  20  21
ATOM     21  C   UNL     1      -5.236  11.831  18.964  0.00  0.00    +0.000 A 
ATOM     22  C   UNL     1      -6.351  11.943  18.131  0.00  0.00    +0.000 A 
ATOM     23  C   UNL     1      -7.491  12.636  18.560  0.00  0.00    +0.000 A 
ATOM     24  C   UNL     1      -7.526  13.225  19.821  0.00  0.00    +0.000 A 
ATOM     25  C   UNL     1      -6.420  13.120  20.659  0.00  0.00    +0.000 A 
ATOM     26  C   UNL     1      -5.282  12.427  20.231  0.00  0.00    +0.000 A 
ENDBRANCH  20  21
ENDBRANCH   5  20
TORSDOF 5
ENDMDL
MODEL 8
REMARK VINA RESULT:      -6.4      8.562     10.872
REMARK  Name = 
REMARK  7 active torsions:
REMARK  status: ('A' for Active; 'I' for Inactive)
REMARK    1  A    between atoms: C_1  and  C_2
REMARK    2  A    between atoms: C_5  and  C_6
REMARK    3  A    between atoms: N_8  and  C_9
REMARK    4  A    between atoms: N_8  and  C_10
REMARK    5  A    between atoms: C_14  and  O_15
REMARK    6  A    between atoms: O_15  and  C_16
REMARK    7  A    between atoms: C_22  and  O_23
REMARK                            x       y       z     vdW  Elec       q    Type
REMARK                         _______ _______ _______ _____ _____    ______ ____
ROOT
ATOM      1  C   UNL     1       7.023  14.034  22.064  0.00  0.00    +0.000 C 
ATOM      2  C   UNL     1       6.179  13.296  23.124  0.00  0.00    +0.000 C 
ATOM      3  C   UNL     1       6.614  11.859  23.371  0.00  0.00    +0.000 C 
ATOM      4  C   UNL     1       8.122  11.690  23.536  0.00  0.00    +0.000 C 
ATOM      5  C   UNL     1       8.956  12.411  22.460  0.00  0.00    +0.000 C 
ATOM      6  C   UNL     1       8.546  13.903  22.376  0.00  0.00    +0.000 C 
ENDROOT
BRANCH   1   9
ATOM      7  C   UNL     1       6.765  16.160  20.671  0.00  0.00    +0.000 C 
ATOM      8  O   UNL     1       6.022  17.065  20.301  0.00  0.00    +0.000 OA
ATOM      9  N   UNL     1       6.546  15.439  21.862  0.00  0.00    +0.000 N 
ATOM     10  C   UNL     1       5.512  15.978  22.742  0.00  0.00    +0.000 C 
BRANCH   7  15
ATOM     11  C   UNL     1      11.076  14.974  17.176  0.00  0.00    +0.000 C 
ATOM     12  C   UNL     1       9.939  15.287  18.099  0.00  0.00    +0.000 A 
ATOM     13  C   UNL     1      10.092  16.183  19.151  0.00  0.00    +0.000 A 
ATOM     14  N   UNL     1       9.102  16.474  20.027  0.00  0.00    +0.000 NA
ATOM     15  C   UNL     1       7.926  15.836  19.800  0.00  0.00    +0.000 A 
ATOM     16  C   UNL     1       7.754  14.965  18.736  0.00  0.00    +0.000 A 
ATOM     17  N   UNL     1       8.761  14.657  17.875  0.00  0.00    +0.000 NA
ENDBRANCH   7  15
ENDBRANCH   1   9
BRANCH   6  18
ATOM     18  O   UNL     1       8.938  14.549  23.599  0.00  0.00    +0.000 OA
ATOM     19  H   UNL     1       9.905  14.576  23.646  0.00  0.00    +0.000 HD
ENDBRANCH   6  18
BRANCH   5  20
ATOM     20  O   UNL     1       8.750  11.729  21.212  0.00  0.00    +0.000 OA
BRANCH  20  21
ATOM     21  C   UNL     1       9.771  11.705  20.297  0.00  0.00    +0.000 A 
ATOM     22  C   UNL     1      11.112  12.002  20.545  0.00  0.00    +0.000 A 
ATOM     23  C   UNL     1      12.054  11.953  19.509  0.00  0.00    +0.000 A 
ATOM     24  C   UNL     1      11.663  11.610  18.217  0.00  0.00    +0.000 A 
ATOM     25  C   UNL     1      10.328  11.312  17.959  0.00  0.00    +0.000 A 
ATOM     26  C   UNL     1       9.389  11.360  18.995  0.00  0.00    +0.000 A 
ENDBRANCH  20  21
ENDBRANCH   5  20
TORSDOF 5
ENDMDL
MODEL 9
REMARK VINA RESULT:      -6.4      5.303      9.234
REMARK  Name = 
REMARK  7 active torsions:
REMARK  status: ('A' for Active; 'I' for Inactive)
REMARK    1  A    between atoms: C_1  and  C_2
REMARK    2  A    between atoms: C_5  and  C_6
REMARK    3  A    between atoms: N_8  and  C_9
REMARK    4  A    between atoms: N_8  and  C_10
REMARK    5  A    between atoms: C_14  and  O_15
REMARK    6  A    between atoms: O_15  and  C_16
REMARK    7  A    between atoms: C_22  and  O_23
REMARK                            x       y       z     vdW  Elec       q    Type
REMARK                         _______ _______ _______ _____ _____    ______ ____
ROOT
ATOM      1  C   UNL     1      -1.202  11.583  21.456  0.00  0.00    +0.000 C 
ATOM      2  C   UNL     1      -1.269  10.986  22.878  0.00  0.00    +0.000 C 
ATOM      3  C   UNL     1      -0.416   9.741  23.067  0.00  0.00    +0.000 C 
ATOM      4  C   UNL     1       0.997   9.869  22.503  0.00  0.00    +0.000 C 
ATOM      5  C   UNL     1       1.053  10.444  21.075  0.00  0.00    +0.000 C 
ATOM      6  C   UNL     1       0.278  11.785  21.008  0.00  0.00    +0.000 C 
ENDROOT
BRANCH   1   9
ATOM      7  C   UNL     1      -3.113  12.904  20.395  0.00  0.00    +0.000 C 
ATOM      8  O   UNL     1      -4.088  13.630  20.574  0.00  0.00    +0.000 OA
ATOM      9  N   UNL     1      -2.064  12.800  21.330  0.00  0.00    +0.000 N 
ATOM     10  C   UNL     1      -2.095  13.773  22.420  0.00  0.00    +0.000 C 
BRANCH   7  15
ATOM     11  C   UNL     1      -2.795   9.802  15.654  0.00  0.00    +0.000 C 
ATOM     12  C   UNL     1      -2.880  10.621  16.904  0.00  0.00    +0.000 A 
ATOM     13  C   UNL     1      -4.036  10.637  17.677  0.00  0.00    +0.000 A 
ATOM     14  N   UNL     1      -4.168  11.383  18.799  0.00  0.00    +0.000 NA
ATOM     15  C   UNL     1      -3.077  12.116  19.135  0.00  0.00    +0.000 A 
ATOM     16  C   UNL     1      -1.909  12.084  18.388  0.00  0.00    +0.000 A 
ATOM     17  N   UNL     1      -1.792  11.352  17.249  0.00  0.00    +0.000 NA
ENDBRANCH   7  15
ENDBRANCH   1   9
BRANCH   6  18
ATOM     18  O   UNL     1       0.987  12.757  21.793  0.00  0.00    +0.000 OA
ATOM     19  H   UNL     1       0.348  13.284  22.296  0.00  0.00    +0.000 HD
ENDBRANCH   6  18
BRANCH   5  20
ATOM     20  O   UNL     1       0.502   9.463  20.182  0.00  0.00    +0.000 OA
BRANCH  20  21
ATOM     21  C   UNL     1       1.345   8.552  19.601  0.00  0.00    +0.000 A 
ATOM     22  C   UNL     1       1.794   7.359  20.170  0.00  0.00    +0.000 A 
ATOM     23  C   UNL     1       2.672   6.523  19.468  0.00  0.00    +0.000 A 
ATOM     24  C   UNL     1       3.111   6.873  18.193  0.00  0.00    +0.000 A 
ATOM     25  C   UNL     1       2.669   8.060  17.617  0.00  0.00    +0.000 A 
ATOM     26  C   UNL     1       1.791   8.893  18.319  0.00  0.00    +0.000 A 
ENDBRANCH  20  21
ENDBRANCH   5  20
TORSDOF 5
ENDMDL
