MODEL 1
REMARK VINA RESULT:      -8.0      0.000      0.000
REMARK  Name = 
REMARK  6 active torsions:
REMARK  status: ('A' for Active; 'I' for Inactive)
REMARK    1  A    between atoms: C_1  and  O_2
REMARK    2  A    between atoms: O_2  and  C_3
REMARK    3  A    between atoms: C_6  and  C_7
REMARK    4  A    between atoms: C_15  and  C_16
REMARK    5  A    between atoms: C_19  and  O_20
REMARK    6  A    between atoms: O_20  and  C_21
REMARK                            x       y       z     vdW  Elec       q    Type
REMARK                         _______ _______ _______ _____ _____    ______ ____
ROOT
ATOM      1  C   UNL     1       2.517   6.021  19.876  0.00  0.00    +0.000 A 
ATOM      2  N   UNL     1       1.881   5.458  20.955  0.00  0.00    +0.000 NA
ATOM      3  C   UNL     1       2.395   4.256  21.096  0.00  0.00    +0.000 A 
ATOM      4  N   UNL     1       2.085   3.267  21.994  0.00  0.00    +0.000 NA
ATOM      5  N   UNL     1       2.685   2.153  21.968  0.00  0.00    +0.000 NA
ATOM      6  C   UNL     1       3.696   1.915  21.065  0.00  0.00    +0.000 A 
ATOM      7  C   UNL     1       4.085   2.833  20.167  0.00  0.00    +0.000 A 
ATOM      8  N   UNL     1       3.398   4.038  20.164  0.00  0.00    +0.000 N 
ATOM      9  C   UNL     1       3.498   5.169  19.356  0.00  0.00    +0.000 A 
ENDROOT
BRANCH   1  13
ATOM     10  C   UNL     1       1.566   9.978  18.555  0.00  0.00    +0.000 A 
ATOM     11  C   UNL     1       1.207   9.550  19.833  0.00  0.00    +0.000 A 
ATOM     12  C   UNL     1       1.506   8.248  20.258  0.00  0.00    +0.000 A 
ATOM     13  C   UNL     1       2.149   7.350  19.399  0.00  0.00    +0.000 A 
ATOM     14  C   UNL     1       2.422   7.763  18.089  0.00  0.00    +0.000 A 
ATOM     15  C   UNL     1       2.159   9.074  17.678  0.00  0.00    +0.000 A 
BRANCH  10  17
ATOM     16  C   UNL     1       0.674  12.033  19.309  0.00  0.00    +0.000 C 
ATOM     17  O   UNL     1       1.261  11.278  18.254  0.00  0.00    +0.000 OA
ENDBRANCH  10  17
ENDBRANCH   1  13
BRANCH   9  18
ATOM     18  C   UNL     1       4.460   5.328  18.250  0.00  0.00    +0.000 A 
ATOM     19  C   UNL     1       5.675   6.002  18.428  0.00  0.00    +0.000 A 
ATOM     20  C   UNL     1       6.578   6.152  17.371  0.00  0.00    +0.000 A 
ATOM     21  C   UNL     1       6.326   5.561  16.135  0.00  0.00    +0.000 A 
ATOM     22  C   UNL     1       5.138   4.861  15.945  0.00  0.00    +0.000 A 
ATOM     23  C   UNL     1       4.202   4.775  16.985  0.00  0.00    +0.000 A 
BRANCH  21  24
ATOM     24  O   UNL     1       7.285   5.770  15.184  0.00  0.00    +0.000 OA
ATOM     25  C   UNL     1       7.186   4.954  14.022  0.00  0.00    +0.000 C 
ENDBRANCH  21  24
ENDBRANCH   9  18
TORSDOF 4
ENDMDL
MODEL 2
REMARK VINA RESULT:      -7.8      0.351      1.024
REMARK  Name = 
REMARK  6 active torsions:
REMARK  status: ('A' for Active; 'I' for Inactive)
REMARK    1  A    between atoms: C_1  and  O_2
REMARK    2  A    between atoms: O_2  and  C_3
REMARK    3  A    between atoms: C_6  and  C_7
REMARK    4  A    between atoms: C_15  and  C_16
REMARK    5  A    between atoms: C_19  and  O_20
REMARK    6  A    between atoms: O_20  and  C_21
REMARK                            x       y       z     vdW  Elec       q    Type
REMARK                         _______ _______ _______ _____ _____    ______ ____
ROOT
ATOM      1  C   UNL     1       2.502   6.034  19.985  0.00  0.00    +0.000 A 
ATOM      2  N   UNL     1       1.843   5.456  21.042  0.00  0.00    +0.000 NA
ATOM      3  C   UNL     1       2.321   4.235  21.147  0.00  0.00    +0.000 A 
ATOM      4  N   UNL     1       1.977   3.228  22.010  0.00  0.00    +0.000 NA
ATOM      5  N   UNL     1       2.544   2.099  21.951  0.00  0.00    +0.000 NA
ATOM      6  C   UNL     1       3.553   1.860  21.046  0.00  0.00    +0.000 A 
ATOM      7  C   UNL     1       3.974   2.794  20.180  0.00  0.00    +0.000 A 
ATOM      8  N   UNL     1       3.322   4.018  20.212  0.00  0.00    +0.000 N 
ATOM      9  C   UNL     1       3.461   5.171  19.442  0.00  0.00    +0.000 A 
ENDROOT
BRANCH   1  13
ATOM     10  C   UNL     1       1.418   9.945  18.627  0.00  0.00    +0.000 A 
ATOM     11  C   UNL     1       2.110   9.069  17.791  0.00  0.00    +0.000 A 
ATOM     12  C   UNL     1       2.477   7.794  18.244  0.00  0.00    +0.000 A 
ATOM     13  C   UNL     1       2.176   7.389  19.549  0.00  0.00    +0.000 A 
ATOM     14  C   UNL     1       1.563   8.311  20.406  0.00  0.00    +0.000 A 
ATOM     15  C   UNL     1       1.161   9.568  19.943  0.00  0.00    +0.000 A 
BRANCH  10  17
ATOM     16  C   UNL     1       1.963  12.228  18.351  0.00  0.00    +0.000 C 
ATOM     17  O   UNL     1       1.074  11.149  18.076  0.00  0.00    +0.000 OA
ENDBRANCH  10  17
ENDBRANCH   1  13
BRANCH   9  18
ATOM     18  C   UNL     1       4.433   5.337  18.347  0.00  0.00    +0.000 A 
ATOM     19  C   UNL     1       5.670   5.960  18.554  0.00  0.00    +0.000 A 
ATOM     20  C   UNL     1       6.583   6.117  17.507  0.00  0.00    +0.000 A 
ATOM     21  C   UNL     1       6.316   5.582  16.249  0.00  0.00    +0.000 A 
ATOM     22  C   UNL     1       5.106   4.933  16.028  0.00  0.00    +0.000 A 
ATOM     23  C   UNL     1       4.161   4.841  17.060  0.00  0.00    +0.000 A 
BRANCH  21  24
ATOM     24  O   UNL     1       7.287   5.793  15.309  0.00  0.00    +0.000 OA
ATOM     25  C   UNL     1       7.182   5.002  14.131  0.00  0.00    +0.000 C 
ENDBRANCH  21  24
ENDBRANCH   9  18
TORSDOF 4
ENDMDL
MODEL 3
REMARK VINA RESULT:      -7.7      2.089      5.604
REMARK  Name = 
REMARK  6 active torsions:
REMARK  status: ('A' for Active; 'I' for Inactive)
REMARK    1  A    between atoms: C_1  and  O_2
REMARK    2  A    between atoms: O_2  and  C_3
REMARK    3  A    between atoms: C_6  and  C_7
REMARK    4  A    between atoms: C_15  and  C_16
REMARK    5  A    between atoms: C_19  and  O_20
REMARK    6  A    between atoms: O_20  and  C_21
REMARK                            x       y       z     vdW  Elec       q    Type
REMARK                         _______ _______ _______ _____ _____    ______ ____
ROOT
ATOM      1  C   UNL     1       4.458   4.905  18.342  0.00  0.00    +0.000 A 
ATOM      2  N   UNL     1       4.548   3.551  18.129  0.00  0.00    +0.000 NA
ATOM      3  C   UNL     1       3.361   3.057  18.406  0.00  0.00    +0.000 A 
ATOM      4  N   UNL     1       2.925   1.758  18.394  0.00  0.00    +0.000 NA
ATOM      5  N   UNL     1       1.735   1.468  18.710  0.00  0.00    +0.000 NA
ATOM      6  C   UNL     1       0.829   2.453  19.033  0.00  0.00    +0.000 A 
ATOM      7  C   UNL     1       1.159   3.753  19.045  0.00  0.00    +0.000 A 
ATOM      8  N   UNL     1       2.476   4.069  18.745  0.00  0.00    +0.000 N 
ATOM      9  C   UNL     1       3.161   5.281  18.713  0.00  0.00    +0.000 A 
ENDROOT
BRANCH   1  13
ATOM     10  C   UNL     1       7.797   7.552  17.951  0.00  0.00    +0.000 A 
ATOM     11  C   UNL     1       6.689   7.677  17.113  0.00  0.00    +0.000 A 
ATOM     12  C   UNL     1       5.603   6.798  17.233  0.00  0.00    +0.000 A 
ATOM     13  C   UNL     1       5.623   5.769  18.180  0.00  0.00    +0.000 A 
ATOM     14  C   UNL     1       6.779   5.598  18.952  0.00  0.00    +0.000 A 
ATOM     15  C   UNL     1       7.846   6.499  18.860  0.00  0.00    +0.000 A 
BRANCH  10  17
ATOM     16  C   UNL     1       8.536   9.761  18.352  0.00  0.00    +0.000 C 
ATOM     17  O   UNL     1       8.785   8.482  17.776  0.00  0.00    +0.000 OA
ENDBRANCH  10  17
ENDBRANCH   1  13
BRANCH   9  18
ATOM     18  C   UNL     1       2.560   6.595  19.005  0.00  0.00    +0.000 A 
ATOM     19  C   UNL     1       2.346   7.542  17.996  0.00  0.00    +0.000 A 
ATOM     20  C   UNL     1       1.779   8.787  18.285  0.00  0.00    +0.000 A 
ATOM     21  C   UNL     1       1.336   9.083  19.572  0.00  0.00    +0.000 A 
ATOM     22  C   UNL     1       1.512   8.144  20.584  0.00  0.00    +0.000 A 
ATOM     23  C   UNL     1       2.147   6.925  20.307  0.00  0.00    +0.000 A 
BRANCH  21  24
ATOM     24  O   UNL     1       0.792  10.327  19.729  0.00  0.00    +0.000 OA
ATOM     25  C   UNL     1      -0.577  10.449  19.361  0.00  0.00    +0.000 C 
ENDBRANCH  21  24
ENDBRANCH   9  18
TORSDOF 4
ENDMDL
MODEL 4
REMARK VINA RESULT:      -7.5      1.001      5.703
REMARK  Name = 
REMARK  6 active torsions:
REMARK  status: ('A' for Active; 'I' for Inactive)
REMARK    1  A    between atoms: C_1  and  O_2
REMARK    2  A    between atoms: O_2  and  C_3
REMARK    3  A    between atoms: C_6  and  C_7
REMARK    4  A    between atoms: C_15  and  C_16
REMARK    5  A    between atoms: C_19  and  O_20
REMARK    6  A    between atoms: O_20  and  C_21
REMARK                            x       y       z     vdW  Elec       q    Type
REMARK                         _______ _______ _______ _____ _____    ______ ____
ROOT
ATOM      1  C   UNL     1       4.442   4.240  18.522  0.00  0.00    +0.000 A 
ATOM      2  N   UNL     1       4.562   2.995  19.090  0.00  0.00    +0.000 NA
ATOM      3  C   UNL     1       3.736   2.980  20.113  0.00  0.00    +0.000 A 
ATOM      4  N   UNL     1       3.500   1.994  21.037  0.00  0.00    +0.000 NA
ATOM      5  N   UNL     1       2.668   2.167  21.974  0.00  0.00    +0.000 NA
ATOM      6  C   UNL     1       1.944   3.334  22.071  0.00  0.00    +0.000 A 
ATOM      7  C   UNL     1       2.089   4.341  21.198  0.00  0.00    +0.000 A 
ATOM      8  N   UNL     1       3.034   4.172  20.196  0.00  0.00    +0.000 N 
ATOM      9  C   UNL     1       3.473   5.012  19.175  0.00  0.00    +0.000 A 
ENDROOT
BRANCH   1  13
ATOM     10  C   UNL     1       6.964   5.257  15.218  0.00  0.00    +0.000 A 
ATOM     11  C   UNL     1       7.236   5.744  16.496  0.00  0.00    +0.000 A 
ATOM     12  C   UNL     1       6.400   5.422  17.574  0.00  0.00    +0.000 A 
ATOM     13  C   UNL     1       5.266   4.626  17.380  0.00  0.00    +0.000 A 
ATOM     14  C   UNL     1       4.953   4.220  16.077  0.00  0.00    +0.000 A 
ATOM     15  C   UNL     1       5.809   4.508  15.009  0.00  0.00    +0.000 A 
BRANCH  10  17
ATOM     16  C   UNL     1       7.619   5.044  12.957  0.00  0.00    +0.000 C 
ATOM     17  O   UNL     1       7.863   5.600  14.245  0.00  0.00    +0.000 OA
ENDBRANCH  10  17
ENDBRANCH   1  13
BRANCH   9  18
ATOM     18  C   UNL     1       2.958   6.369  18.923  0.00  0.00    +0.000 A 
ATOM     19  C   UNL     1       3.123   6.997  17.682  0.00  0.00    +0.000 A 
ATOM     20  C   UNL     1       2.635   8.287  17.456  0.00  0.00    +0.000 A 
ATOM     21  C   UNL     1       1.897   8.947  18.436  0.00  0.00    +0.000 A 
ATOM     22  C   UNL     1       1.695   8.330  19.666  0.00  0.00    +0.000 A 
ATOM     23  C   UNL     1       2.249   7.067  19.916  0.00  0.00    +0.000 A 
BRANCH  21  24
ATOM     24  O   UNL     1       1.466  10.199  18.096  0.00  0.00    +0.000 OA
ATOM     25  C   UNL     1       1.066  11.027  19.182  0.00  0.00    +0.000 C 
ENDBRANCH  21  24
ENDBRANCH   9  18
TORSDOF 4
ENDMDL
MODEL 5
REMARK VINA RESULT:      -7.4      1.061      5.681
REMARK  Name = 
REMARK  6 active torsions:
REMARK  status: ('A' for Active; 'I' for Inactive)
REMARK    1  A    between atoms: C_1  and  O_2
REMARK    2  A    between atoms: O_2  and  C_3
REMARK    3  A    between atoms: C_6  and  C_7
REMARK    4  A    between atoms: C_15  and  C_16
REMARK    5  A    between atoms: C_19  and  O_20
REMARK    6  A    between atoms: O_20  and  C_21
REMARK                            x       y       z     vdW  Elec       q    Type
REMARK                         _______ _______ _______ _____ _____    ______ ____
ROOT
ATOM      1  C   UNL     1       4.612   4.129  18.641  0.00  0.00    +0.000 A 
ATOM      2  N   UNL     1       4.726   2.914  19.271  0.00  0.00    +0.000 NA
ATOM      3  C   UNL     1       3.847   2.925  20.249  0.00  0.00    +0.000 A 
ATOM      4  N   UNL     1       3.581   1.977  21.202  0.00  0.00    +0.000 NA
ATOM      5  N   UNL     1       2.697   2.172  22.085  0.00  0.00    +0.000 NA
ATOM      6  C   UNL     1       1.945   3.326  22.091  0.00  0.00    +0.000 A 
ATOM      7  C   UNL     1       2.117   4.297  21.182  0.00  0.00    +0.000 A 
ATOM      8  N   UNL     1       3.118   4.105  20.241  0.00  0.00    +0.000 N 
ATOM      9  C   UNL     1       3.595   4.908  19.207  0.00  0.00    +0.000 A 
ENDROOT
BRANCH   1  13
ATOM     10  C   UNL     1       7.066   5.269  15.326  0.00  0.00    +0.000 A 
ATOM     11  C   UNL     1       6.032   4.347  15.161  0.00  0.00    +0.000 A 
ATOM     12  C   UNL     1       5.240   3.964  16.252  0.00  0.00    +0.000 A 
ATOM     13  C   UNL     1       5.488   4.483  17.528  0.00  0.00    +0.000 A 
ATOM     14  C   UNL     1       6.585   5.335  17.697  0.00  0.00    +0.000 A 
ATOM     15  C   UNL     1       7.352   5.748  16.602  0.00  0.00    +0.000 A 
BRANCH  10  17
ATOM     16  C   UNL     1       7.436   4.840  13.031  0.00  0.00    +0.000 C 
ATOM     17  O   UNL     1       7.755   5.602  14.192  0.00  0.00    +0.000 OA
ENDBRANCH  10  17
ENDBRANCH   1  13
BRANCH   9  18
ATOM     18  C   UNL     1       3.067   6.241  18.867  0.00  0.00    +0.000 A 
ATOM     19  C   UNL     1       2.301   6.980  19.779  0.00  0.00    +0.000 A 
ATOM     20  C   UNL     1       1.801   8.242  19.444  0.00  0.00    +0.000 A 
ATOM     21  C   UNL     1       2.123   8.831  18.224  0.00  0.00    +0.000 A 
ATOM     22  C   UNL     1       2.908   8.128  17.315  0.00  0.00    +0.000 A 
ATOM     23  C   UNL     1       3.347   6.832  17.624  0.00  0.00    +0.000 A 
BRANCH  21  24
ATOM     24  O   UNL     1       1.583  10.069  18.014  0.00  0.00    +0.000 OA
ATOM     25  C   UNL     1       0.984  10.678  19.152  0.00  0.00    +0.000 C 
ENDBRANCH  21  24
ENDBRANCH   9  18
TORSDOF 4
ENDMDL
MODEL 6
REMARK VINA RESULT:      -7.0      4.386      8.403
REMARK  Name = 
REMARK  6 active torsions:
REMARK  status: ('A' for Active; 'I' for Inactive)
REMARK    1  A    between atoms: C_1  and  O_2
REMARK    2  A    between atoms: O_2  and  C_3
REMARK    3  A    between atoms: C_6  and  C_7
REMARK    4  A    between atoms: C_15  and  C_16
REMARK    5  A    between atoms: C_19  and  O_20
REMARK    6  A    between atoms: O_20  and  C_21
REMARK                            x       y       z     vdW  Elec       q    Type
REMARK                         _______ _______ _______ _____ _____    ______ ____
ROOT
ATOM      1  C   UNL     1       0.204  10.420  20.443  0.00  0.00    +0.000 A 
ATOM      2  N   UNL     1       0.516  10.883  21.698  0.00  0.00    +0.000 NA
ATOM      3  C   UNL     1      -0.375  11.810  21.977  0.00  0.00    +0.000 A 
ATOM      4  N   UNL     1      -0.492  12.612  23.083  0.00  0.00    +0.000 NA
ATOM      5  N   UNL     1      -1.417  13.469  23.169  0.00  0.00    +0.000 NA
ATOM      6  C   UNL     1      -2.360  13.596  22.175  0.00  0.00    +0.000 A 
ATOM      7  C   UNL     1      -2.340  12.837  21.069  0.00  0.00    +0.000 A 
ATOM      8  N   UNL     1      -1.299  11.927  20.951  0.00  0.00    +0.000 N 
ATOM      9  C   UNL     1      -0.948  11.036  19.939  0.00  0.00    +0.000 A 
ENDROOT
BRANCH   1  13
ATOM     10  C   UNL     1       2.494   7.364  18.512  0.00  0.00    +0.000 A 
ATOM     11  C   UNL     1       2.167   7.260  19.864  0.00  0.00    +0.000 A 
ATOM     12  C   UNL     1       1.430   8.270  20.498  0.00  0.00    +0.000 A 
ATOM     13  C   UNL     1       1.030   9.409  19.790  0.00  0.00    +0.000 A 
ATOM     14  C   UNL     1       1.444   9.544  18.460  0.00  0.00    +0.000 A 
ATOM     15  C   UNL     1       2.145   8.518  17.816  0.00  0.00    +0.000 A 
BRANCH  10  17
ATOM     16  C   UNL     1       2.496   5.059  17.988  0.00  0.00    +0.000 C 
ATOM     17  O   UNL     1       3.183   6.307  17.982  0.00  0.00    +0.000 OA
ENDBRANCH  10  17
ENDBRANCH   1  13
BRANCH   9  18
ATOM     18  C   UNL     1      -1.694  10.856  18.681  0.00  0.00    +0.000 A 
ATOM     19  C   UNL     1      -2.540   9.757  18.483  0.00  0.00    +0.000 A 
ATOM     20  C   UNL     1      -3.239   9.593  17.283  0.00  0.00    +0.000 A 
ATOM     21  C   UNL     1      -3.176  10.566  16.288  0.00  0.00    +0.000 A 
ATOM     22  C   UNL     1      -2.366  11.681  16.477  0.00  0.00    +0.000 A 
ATOM     23  C   UNL     1      -1.608  11.806  17.650  0.00  0.00    +0.000 A 
BRANCH  21  24
ATOM     24  O   UNL     1      -3.909  10.299  15.165  0.00  0.00    +0.000 OA
ATOM     25  C   UNL     1      -3.155  10.026  13.990  0.00  0.00    +0.000 C 
ENDBRANCH  21  24
ENDBRANCH   9  18
TORSDOF 4
ENDMDL
MODEL 7
REMARK VINA RESULT:      -7.0      4.063      6.313
REMARK  Name = 
REMARK  6 active torsions:
REMARK  status: ('A' for Active; 'I' for Inactive)
REMARK    1  A    between atoms: C_1  and  O_2
REMARK    2  A    between atoms: O_2  and  C_3
REMARK    3  A    between atoms: C_6  and  C_7
REMARK    4  A    between atoms: C_15  and  C_16
REMARK    5  A    between atoms: C_19  and  O_20
REMARK    6  A    between atoms: O_20  and  C_21
REMARK                            x       y       z     vdW  Elec       q    Type
REMARK                         _______ _______ _______ _____ _____    ______ ____
ROOT
ATOM      1  C   UNL     1       5.115   4.429  16.367  0.00  0.00    +0.000 A 
ATOM      2  N   UNL     1       4.805   3.649  15.280  0.00  0.00    +0.000 NA
ATOM      3  C   UNL     1       5.679   3.958  14.347  0.00  0.00    +0.000 A 
ATOM      4  N   UNL     1       5.789   3.499  13.060  0.00  0.00    +0.000 NA
ATOM      5  N   UNL     1       6.698   3.929  12.292  0.00  0.00    +0.000 NA
ATOM      6  C   UNL     1       7.630   4.839  12.738  0.00  0.00    +0.000 A 
ATOM      7  C   UNL     1       7.615   5.323  13.989  0.00  0.00    +0.000 A 
ATOM      8  N   UNL     1       6.592   4.888  14.819  0.00  0.00    +0.000 N 
ATOM      9  C   UNL     1       6.249   5.215  16.129  0.00  0.00    +0.000 A 
ENDROOT
BRANCH   1  13
ATOM     10  C   UNL     1       2.621   4.214  19.837  0.00  0.00    +0.000 A 
ATOM     11  C   UNL     1       2.410   5.197  18.871  0.00  0.00    +0.000 A 
ATOM     12  C   UNL     1       3.238   5.275  17.742  0.00  0.00    +0.000 A 
ATOM     13  C   UNL     1       4.303   4.382  17.579  0.00  0.00    +0.000 A 
ATOM     14  C   UNL     1       4.560   3.460  18.601  0.00  0.00    +0.000 A 
ATOM     15  C   UNL     1       3.710   3.357  19.708  0.00  0.00    +0.000 A 
BRANCH  10  17
ATOM     16  C   UNL     1       1.554   2.944  21.521  0.00  0.00    +0.000 C 
ATOM     17  O   UNL     1       1.734   4.203  20.880  0.00  0.00    +0.000 OA
ENDBRANCH  10  17
ENDBRANCH   1  13
BRANCH   9  18
ATOM     18  C   UNL     1       6.988   6.165  16.979  0.00  0.00    +0.000 A 
ATOM     19  C   UNL     1       7.048   7.530  16.670  0.00  0.00    +0.000 A 
ATOM     20  C   UNL     1       7.756   8.422  17.481  0.00  0.00    +0.000 A 
ATOM     21  C   UNL     1       8.351   7.986  18.663  0.00  0.00    +0.000 A 
ATOM     22  C   UNL     1       8.278   6.640  19.005  0.00  0.00    +0.000 A 
ATOM     23  C   UNL     1       7.630   5.734  18.152  0.00  0.00    +0.000 A 
BRANCH  21  24
ATOM     24  O   UNL     1       9.007   8.951  19.375  0.00  0.00    +0.000 OA
ATOM     25  C   UNL     1       9.039  10.241  18.775  0.00  0.00    +0.000 C 
ENDBRANCH  21  24
ENDBRANCH   9  18
TORSDOF 4
ENDMDL
MODEL 8
REMARK VINA RESULT:      -7.0      3.203      5.133
REMARK  Name = 
REMARK  6 active torsions:
REMARK  status: ('A' for Active; 'I' for Inactive)
REMARK    1  A    between atoms: C_1  and  O_2
REMARK    2  A    between atoms: O_2  and  C_3
REMARK    3  A    between atoms: C_6  and  C_7
REMARK    4  A    between atoms: C_15  and  C_16
REMARK    5  A    between atoms: C_19  and  O_20
REMARK    6  A    between atoms: O_20  and  C_21
REMARK                            x       y       z     vdW  Elec       q    Type
REMARK                         _______ _______ _______ _____ _____    ______ ____
ROOT
ATOM      1  C   UNL     1       3.596   6.897  17.421  0.00  0.00    +0.000 A 
ATOM      2  N   UNL     1       4.436   7.376  16.445  0.00  0.00    +0.000 NA
ATOM      3  C   UNL     1       5.142   6.346  16.033  0.00  0.00    +0.000 A 
ATOM      4  N   UNL     1       6.147   6.285  15.102  0.00  0.00    +0.000 NA
ATOM      5  N   UNL     1       6.729   5.192  14.845  0.00  0.00    +0.000 NA
ATOM      6  C   UNL     1       6.344   4.022  15.460  0.00  0.00    +0.000 A 
ATOM      7  C   UNL     1       5.354   3.981  16.364  0.00  0.00    +0.000 A 
ATOM      8  N   UNL     1       4.744   5.187  16.682  0.00  0.00    +0.000 N 
ATOM      9  C   UNL     1       3.741   5.515  17.591  0.00  0.00    +0.000 A 
ENDROOT
BRANCH   1  13
ATOM     10  C   UNL     1       1.090   9.583  19.615  0.00  0.00    +0.000 A 
ATOM     11  C   UNL     1       1.523   8.387  20.188  0.00  0.00    +0.000 A 
ATOM     12  C   UNL     1       2.331   7.502  19.461  0.00  0.00    +0.000 A 
ATOM     13  C   UNL     1       2.697   7.793  18.142  0.00  0.00    +0.000 A 
ATOM     14  C   UNL     1       2.180   8.951  17.549  0.00  0.00    +0.000 A 
ATOM     15  C   UNL     1       1.406   9.853  18.286  0.00  0.00    +0.000 A 
BRANCH  10  17
ATOM     16  C   UNL     1       0.072   9.886  21.726  0.00  0.00    +0.000 C 
ATOM     17  O   UNL     1       0.336  10.392  20.421  0.00  0.00    +0.000 OA
ENDBRANCH  10  17
ENDBRANCH   1  13
BRANCH   9  18
ATOM     18  C   UNL     1       3.053   4.550  18.467  0.00  0.00    +0.000 A 
ATOM     19  C   UNL     1       3.618   4.125  19.676  0.00  0.00    +0.000 A 
ATOM     20  C   UNL     1       2.958   3.205  20.496  0.00  0.00    +0.000 A 
ATOM     21  C   UNL     1       1.682   2.753  20.169  0.00  0.00    +0.000 A 
ATOM     22  C   UNL     1       1.088   3.185  18.988  0.00  0.00    +0.000 A 
ATOM     23  C   UNL     1       1.783   4.051  18.131  0.00  0.00    +0.000 A 
BRANCH  21  24
ATOM     24  O   UNL     1       1.136   1.863  21.052  0.00  0.00    +0.000 OA
ATOM     25  C   UNL     1       1.160   2.260  22.418  0.00  0.00    +0.000 C 
ENDBRANCH  21  24
ENDBRANCH   9  18
TORSDOF 4
ENDMDL
MODEL 9
REMARK VINA RESULT:      -7.0      3.190      5.155
REMARK  Name = 
REMARK  6 active torsions:
REMARK  status: ('A' for Active; 'I' for Inactive)
REMARK    1  A    between atoms: C_1  and  O_2
REMARK    2  A    between atoms: O_2  and  C_3
REMARK    3  A    between atoms: C_6  and  C_7
REMARK    4  A    between atoms: C_15  and  C_16
REMARK    5  A    between atoms: C_19  and  O_20
REMARK    6  A    between atoms: O_20  and  C_21
REMARK                            x       y       z     vdW  Elec       q    Type
REMARK                         _______ _______ _______ _____ _____    ______ ____
ROOT
ATOM      1  C   UNL     1       3.629   6.901  17.429  0.00  0.00    +0.000 A 
ATOM      2  N   UNL     1       4.469   7.365  16.446  0.00  0.00    +0.000 NA
ATOM      3  C   UNL     1       5.140   6.319  16.016  0.00  0.00    +0.000 A 
ATOM      4  N   UNL     1       6.131   6.239  15.072  0.00  0.00    +0.000 NA
ATOM      5  N   UNL     1       6.679   5.132  14.797  0.00  0.00    +0.000 NA
ATOM      6  C   UNL     1       6.269   3.969  15.407  0.00  0.00    +0.000 A 
ATOM      7  C   UNL     1       5.289   3.947  16.322  0.00  0.00    +0.000 A 
ATOM      8  N   UNL     1       4.718   5.166  16.659  0.00  0.00    +0.000 N 
ATOM      9  C   UNL     1       3.737   5.514  17.585  0.00  0.00    +0.000 A 
ENDROOT
BRANCH   1  13
ATOM     10  C   UNL     1       0.969   9.521  19.520  0.00  0.00    +0.000 A 
ATOM     11  C   UNL     1       1.412   9.835  18.236  0.00  0.00    +0.000 A 
ATOM     12  C   UNL     1       2.296   8.983  17.559  0.00  0.00    +0.000 A 
ATOM     13  C   UNL     1       2.765   7.815  18.170  0.00  0.00    +0.000 A 
ATOM     14  C   UNL     1       2.384   7.558  19.493  0.00  0.00    +0.000 A 
ATOM     15  C   UNL     1       1.472   8.388  20.154  0.00  0.00    +0.000 A 
BRANCH  10  17
ATOM     16  C   UNL     1       0.652  11.426  20.883  0.00  0.00    +0.000 C 
ATOM     17  O   UNL     1       0.080  10.400  20.077  0.00  0.00    +0.000 OA
ENDBRANCH  10  17
ENDBRANCH   1  13
BRANCH   9  18
ATOM     18  C   UNL     1       3.032   4.560  18.460  0.00  0.00    +0.000 A 
ATOM     19  C   UNL     1       3.570   4.159  19.690  0.00  0.00    +0.000 A 
ATOM     20  C   UNL     1       2.895   3.250  20.510  0.00  0.00    +0.000 A 
ATOM     21  C   UNL     1       1.629   2.785  20.160  0.00  0.00    +0.000 A 
ATOM     22  C   UNL     1       1.062   3.194  18.957  0.00  0.00    +0.000 A 
ATOM     23  C   UNL     1       1.773   4.048  18.102  0.00  0.00    +0.000 A 
BRANCH  21  24
ATOM     24  O   UNL     1       1.066   1.908  21.045  0.00  0.00    +0.000 OA
ATOM     25  C   UNL     1       1.184   2.261  22.418  0.00  0.00    +0.000 C 
ENDBRANCH  21  24
ENDBRANCH   9  18
TORSDOF 4
ENDMDL
