MODEL 1
REMARK VINA RESULT:      -7.4      0.000      0.000
REMARK  Name = 
REMARK  7 active torsions:
REMARK  status: ('A' for Active; 'I' for Inactive)
REMARK    1  A    between atoms: C_2  and  C_3
REMARK    2  A    between atoms: N_6  and  C_7
REMARK    3  A    between atoms: C_7  and  C_8
REMARK    4  A    between atoms: N_17  and  C_18
REMARK    5  A    between atoms: C_18  and  C_19
REMARK    6  A    between atoms: C_19  and  C_20
REMARK    7  A    between atoms: C_20  and  O_21
REMARK                            x       y       z     vdW  Elec       q    Type
REMARK                         _______ _______ _______ _____ _____    ______ ____
ROOT
ATOM      1  C   UNL     1       7.342   6.711  17.506  0.00  0.00    +0.000 A 
ATOM      2  N   UNL     1       6.853   5.958  18.522  0.00  0.00    +0.000 NA
ATOM      3  C   UNL     1       6.238   4.801  18.204  0.00  0.00    +0.000 A 
ATOM      4  N   UNL     1       5.783   4.033  19.279  0.00  0.00    +0.000 N 
ATOM      5  C   UNL     1       6.175   4.404  16.881  0.00  0.00    +0.000 A 
ATOM      6  C   UNL     1       6.744   5.231  15.930  0.00  0.00    +0.000 A 
ATOM      7  N   UNL     1       7.342   6.390  16.196  0.00  0.00    +0.000 NA
ATOM      8  N   UNL     1       6.576   4.662  14.675  0.00  0.00    +0.000 N 
ATOM      9  C   UNL     1       5.882   3.410  14.873  0.00  0.00    +0.000 C 
ATOM     10  N   UNL     1       5.672   3.191  16.314  0.00  0.00    +0.000 N 
ATOM     11  H   UNL     1       6.571   3.508  19.649  0.00  0.00    +0.000 HD
ATOM     12  H   UNL     1       6.267   2.432  16.637  0.00  0.00    +0.000 HD
ENDROOT
BRANCH   1  14
ATOM     13  N   UNL     1       8.378   9.015  18.156  0.00  0.00    +0.000 NA
ATOM     14  C   UNL     1       7.920   7.984  17.861  0.00  0.00    +0.000 C 
ENDBRANCH   1  14
BRANCH   4  15
ATOM     15  C   UNL     1       4.668   3.125  19.006  0.00  0.00    +0.000 C 
BRANCH  15  16
ATOM     16  C   UNL     1       3.374   3.613  19.616  0.00  0.00    +0.000 A 
ATOM     17  C   UNL     1       3.190   4.951  19.992  0.00  0.00    +0.000 A 
ATOM     18  C   UNL     1       1.954   5.385  20.471  0.00  0.00    +0.000 A 
ATOM     19  C   UNL     1       0.884   4.496  20.562  0.00  0.00    +0.000 A 
ATOM     20  C   UNL     1       1.049   3.168  20.177  0.00  0.00    +0.000 A 
ATOM     21  C   UNL     1       2.284   2.729  19.704  0.00  0.00    +0.000 A 
ENDBRANCH  15  16
ENDBRANCH   4  15
BRANCH   8  22
ATOM     22  C   UNL     1       7.424   4.938  13.545  0.00  0.00    +0.000 C 
BRANCH  22  23
ATOM     23  C   UNL     1       6.748   4.467  12.263  0.00  0.00    +0.000 C 
BRANCH  23  24
ATOM     24  C   UNL     1       7.332   3.154  11.757  0.00  0.00    +0.000 C 
BRANCH  24  25
ATOM     25  O   UNL     1       6.319   2.154  11.763  0.00  0.00    +0.000 OA
ATOM     26  H   UNL     1       6.154   1.913  12.689  0.00  0.00    +0.000 HD
ENDBRANCH  24  25
ENDBRANCH  23  24
ENDBRANCH  22  23
ENDBRANCH   8  22
TORSDOF 7
ENDMDL
MODEL 2
REMARK VINA RESULT:      -7.3      0.242      1.029
REMARK  Name = 
REMARK  7 active torsions:
REMARK  status: ('A' for Active; 'I' for Inactive)
REMARK    1  A    between atoms: C_2  and  C_3
REMARK    2  A    between atoms: N_6  and  C_7
REMARK    3  A    between atoms: C_7  and  C_8
REMARK    4  A    between atoms: N_17  and  C_18
REMARK    5  A    between atoms: C_18  and  C_19
REMARK    6  A    between atoms: C_19  and  C_20
REMARK    7  A    between atoms: C_20  and  O_21
REMARK                            x       y       z     vdW  Elec       q    Type
REMARK                         _______ _______ _______ _____ _____    ______ ____
ROOT
ATOM      1  C   UNL     1       7.371   6.807  17.544  0.00  0.00    +0.000 A 
ATOM      2  N   UNL     1       6.881   6.079  18.577  0.00  0.00    +0.000 NA
ATOM      3  C   UNL     1       6.259   4.919  18.286  0.00  0.00    +0.000 A 
ATOM      4  N   UNL     1       5.803   4.176  19.378  0.00  0.00    +0.000 N 
ATOM      5  C   UNL     1       6.191   4.494  16.971  0.00  0.00    +0.000 A 
ATOM      6  C   UNL     1       6.762   5.297  16.002  0.00  0.00    +0.000 A 
ATOM      7  N   UNL     1       7.366   6.458  16.241  0.00  0.00    +0.000 NA
ATOM      8  N   UNL     1       6.588   4.702  14.759  0.00  0.00    +0.000 N 
ATOM      9  C   UNL     1       5.888   3.459  14.986  0.00  0.00    +0.000 C 
ATOM     10  N   UNL     1       5.680   3.271  16.432  0.00  0.00    +0.000 N 
ATOM     11  H   UNL     1       6.589   3.656  19.757  0.00  0.00    +0.000 HD
ATOM     12  H   UNL     1       6.272   2.517  16.770  0.00  0.00    +0.000 HD
ENDROOT
BRANCH   1  14
ATOM     13  N   UNL     1       8.433   9.119  18.122  0.00  0.00    +0.000 NA
ATOM     14  C   UNL     1       7.957   8.085  17.870  0.00  0.00    +0.000 C 
ENDBRANCH   1  14
BRANCH   4  15
ATOM     15  C   UNL     1       4.682   3.269  19.127  0.00  0.00    +0.000 C 
BRANCH  15  16
ATOM     16  C   UNL     1       3.363   3.858  19.569  0.00  0.00    +0.000 A 
ATOM     17  C   UNL     1       2.256   3.054  19.875  0.00  0.00    +0.000 A 
ATOM     18  C   UNL     1       1.081   3.626  20.363  0.00  0.00    +0.000 A 
ATOM     19  C   UNL     1       1.003   5.002  20.569  0.00  0.00    +0.000 A 
ATOM     20  C   UNL     1       2.100   5.812  20.285  0.00  0.00    +0.000 A 
ATOM     21  C   UNL     1       3.274   5.244  19.792  0.00  0.00    +0.000 A 
ENDBRANCH  15  16
ENDBRANCH   4  15
BRANCH   8  22
ATOM     22  C   UNL     1       7.435   4.950  13.622  0.00  0.00    +0.000 C 
BRANCH  22  23
ATOM     23  C   UNL     1       6.722   4.524  12.344  0.00  0.00    +0.000 C 
BRANCH  23  24
ATOM     24  C   UNL     1       7.266   3.210  11.797  0.00  0.00    +0.000 C 
BRANCH  24  25
ATOM     25  O   UNL     1       6.243   2.221  11.842  0.00  0.00    +0.000 OA
ATOM     26  H   UNL     1       6.295   1.787  12.709  0.00  0.00    +0.000 HD
ENDBRANCH  24  25
ENDBRANCH  23  24
ENDBRANCH  22  23
ENDBRANCH   8  22
TORSDOF 7
ENDMDL
MODEL 3
REMARK VINA RESULT:      -7.3      3.121      6.891
REMARK  Name = 
REMARK  7 active torsions:
REMARK  status: ('A' for Active; 'I' for Inactive)
REMARK    1  A    between atoms: C_2  and  C_3
REMARK    2  A    between atoms: N_6  and  C_7
REMARK    3  A    between atoms: C_7  and  C_8
REMARK    4  A    between atoms: N_17  and  C_18
REMARK    5  A    between atoms: C_18  and  C_19
REMARK    6  A    between atoms: C_19  and  C_20
REMARK    7  A    between atoms: C_20  and  O_21
REMARK                            x       y       z     vdW  Elec       q    Type
REMARK                         _______ _______ _______ _____ _____    ______ ____
ROOT
ATOM      1  C   UNL     1       2.818   6.980  18.788  0.00  0.00    +0.000 A 
ATOM      2  N   UNL     1       3.545   7.116  17.652  0.00  0.00    +0.000 NA
ATOM      3  C   UNL     1       4.375   6.108  17.316  0.00  0.00    +0.000 A 
ATOM      4  N   UNL     1       5.078   6.266  16.118  0.00  0.00    +0.000 N 
ATOM      5  C   UNL     1       4.416   4.969  18.099  0.00  0.00    +0.000 A 
ATOM      6  C   UNL     1       3.600   4.921  19.213  0.00  0.00    +0.000 A 
ATOM      7  N   UNL     1       2.781   5.899  19.595  0.00  0.00    +0.000 NA
ATOM      8  N   UNL     1       3.786   3.707  19.861  0.00  0.00    +0.000 N 
ATOM      9  C   UNL     1       4.757   2.966  19.088  0.00  0.00    +0.000 C 
ATOM     10  N   UNL     1       5.129   3.745  17.895  0.00  0.00    +0.000 N 
ATOM     11  H   UNL     1       4.461   6.008  15.353  0.00  0.00    +0.000 HD
ATOM     12  H   UNL     1       4.748   3.303  17.063  0.00  0.00    +0.000 HD
ENDROOT
BRANCH   1  14
ATOM     13  N   UNL     1       1.343   9.019  19.477  0.00  0.00    +0.000 NA
ATOM     14  C   UNL     1       2.001   8.104  19.175  0.00  0.00    +0.000 C 
ENDBRANCH   1  14
BRANCH   4  15
ATOM     15  C   UNL     1       6.342   5.536  16.003  0.00  0.00    +0.000 C 
BRANCH  15  16
ATOM     16  C   UNL     1       6.511   4.904  14.641  0.00  0.00    +0.000 A 
ATOM     17  C   UNL     1       5.589   3.979  14.132  0.00  0.00    +0.000 A 
ATOM     18  C   UNL     1       5.730   3.480  12.837  0.00  0.00    +0.000 A 
ATOM     19  C   UNL     1       6.781   3.913  12.029  0.00  0.00    +0.000 A 
ATOM     20  C   UNL     1       7.696   4.843  12.515  0.00  0.00    +0.000 A 
ATOM     21  C   UNL     1       7.561   5.339  13.811  0.00  0.00    +0.000 A 
ENDBRANCH  15  16
ENDBRANCH   4  15
BRANCH   8  22
ATOM     22  C   UNL     1       2.807   3.093  20.719  0.00  0.00    +0.000 C 
BRANCH  22  23
ATOM     23  C   UNL     1       1.917   2.161  19.905  0.00  0.00    +0.000 C 
BRANCH  23  24
ATOM     24  C   UNL     1       0.663   2.863  19.400  0.00  0.00    +0.000 C 
BRANCH  24  25
ATOM     25  O   UNL     1       0.354   3.953  20.261  0.00  0.00    +0.000 OA
ATOM     26  H   UNL     1       1.156   4.160  20.768  0.00  0.00    +0.000 HD
ENDBRANCH  24  25
ENDBRANCH  23  24
ENDBRANCH  22  23
ENDBRANCH   8  22
TORSDOF 7
ENDMDL
MODEL 4
REMARK VINA RESULT:      -7.2      3.403      7.039
REMARK  Name = 
REMARK  7 active torsions:
REMARK  status: ('A' for Active; 'I' for Inactive)
REMARK    1  A    between atoms: C_2  and  C_3
REMARK    2  A    between atoms: N_6  and  C_7
REMARK    3  A    between atoms: C_7  and  C_8
REMARK    4  A    between atoms: N_17  and  C_18
REMARK    5  A    between atoms: C_18  and  C_19
REMARK    6  A    between atoms: C_19  and  C_20
REMARK    7  A    between atoms: C_20  and  O_21
REMARK                            x       y       z     vdW  Elec       q    Type
REMARK                         _______ _______ _______ _____ _____    ______ ____
ROOT
ATOM      1  C   UNL     1       2.744   7.072  18.172  0.00  0.00    +0.000 A 
ATOM      2  N   UNL     1       3.799   7.266  17.344  0.00  0.00    +0.000 NA
ATOM      3  C   UNL     1       4.453   6.175  16.896  0.00  0.00    +0.000 A 
ATOM      4  N   UNL     1       5.509   6.412  16.013  0.00  0.00    +0.000 N 
ATOM      5  C   UNL     1       3.998   4.917  17.248  0.00  0.00    +0.000 A 
ATOM      6  C   UNL     1       2.886   4.836  18.064  0.00  0.00    +0.000 A 
ATOM      7  N   UNL     1       2.224   5.885  18.547  0.00  0.00    +0.000 NA
ATOM      8  N   UNL     1       2.593   3.500  18.301  0.00  0.00    +0.000 N 
ATOM      9  C   UNL     1       3.570   2.722  17.574  0.00  0.00    +0.000 C 
ATOM     10  N   UNL     1       4.456   3.629  16.824  0.00  0.00    +0.000 N 
ATOM     11  H   UNL     1       5.121   6.556  15.085  0.00  0.00    +0.000 HD
ATOM     12  H   UNL     1       4.265   3.549  15.828  0.00  0.00    +0.000 HD
ENDROOT
BRANCH   1  14
ATOM     13  N   UNL     1       1.608   9.216  19.132  0.00  0.00    +0.000 NA
ATOM     14  C   UNL     1       2.112   8.254  18.707  0.00  0.00    +0.000 C 
ENDBRANCH   1  14
BRANCH   4  15
ATOM     15  C   UNL     1       6.555   5.390  15.959  0.00  0.00    +0.000 C 
BRANCH  15  16
ATOM     16  C   UNL     1       6.769   4.868  14.556  0.00  0.00    +0.000 A 
ATOM     17  C   UNL     1       5.988   3.834  14.022  0.00  0.00    +0.000 A 
ATOM     18  C   UNL     1       6.155   3.437  12.696  0.00  0.00    +0.000 A 
ATOM     19  C   UNL     1       7.089   4.077  11.883  0.00  0.00    +0.000 A 
ATOM     20  C   UNL     1       7.861   5.117  12.395  0.00  0.00    +0.000 A 
ATOM     21  C   UNL     1       7.701   5.513  13.722  0.00  0.00    +0.000 A 
ENDBRANCH  15  16
ENDBRANCH   4  15
BRANCH   8  22
ATOM     22  C   UNL     1       1.287   3.013  18.660  0.00  0.00    +0.000 C 
BRANCH  22  23
ATOM     23  C   UNL     1       1.345   2.330  20.021  0.00  0.00    +0.000 C 
BRANCH  23  24
ATOM     24  C   UNL     1       1.472   3.334  21.160  0.00  0.00    +0.000 C 
BRANCH  24  25
ATOM     25  O   UNL     1       1.753   2.641  22.371  0.00  0.00    +0.000 OA
ATOM     26  H   UNL     1       0.948   2.160  22.625  0.00  0.00    +0.000 HD
ENDBRANCH  24  25
ENDBRANCH  23  24
ENDBRANCH  22  23
ENDBRANCH   8  22
TORSDOF 7
ENDMDL
MODEL 5
REMARK VINA RESULT:      -7.1      3.585      7.165
REMARK  Name = 
REMARK  7 active torsions:
REMARK  status: ('A' for Active; 'I' for Inactive)
REMARK    1  A    between atoms: C_2  and  C_3
REMARK    2  A    between atoms: N_6  and  C_7
REMARK    3  A    between atoms: C_7  and  C_8
REMARK    4  A    between atoms: N_17  and  C_18
REMARK    5  A    between atoms: C_18  and  C_19
REMARK    6  A    between atoms: C_19  and  C_20
REMARK    7  A    between atoms: C_20  and  O_21
REMARK                            x       y       z     vdW  Elec       q    Type
REMARK                         _______ _______ _______ _____ _____    ______ ____
ROOT
ATOM      1  C   UNL     1       2.709   8.165  18.084  0.00  0.00    +0.000 A 
ATOM      2  N   UNL     1       3.470   7.929  16.987  0.00  0.00    +0.000 NA
ATOM      3  C   UNL     1       4.160   6.771  16.941  0.00  0.00    +0.000 A 
ATOM      4  N   UNL     1       4.900   6.544  15.778  0.00  0.00    +0.000 N 
ATOM      5  C   UNL     1       4.027   5.858  17.971  0.00  0.00    +0.000 A 
ATOM      6  C   UNL     1       3.191   6.185  19.021  0.00  0.00    +0.000 A 
ATOM      7  N   UNL     1       2.508   7.324  19.119  0.00  0.00    +0.000 NA
ATOM      8  N   UNL     1       3.195   5.149  19.946  0.00  0.00    +0.000 N 
ATOM      9  C   UNL     1       4.069   4.125  19.421  0.00  0.00    +0.000 C 
ATOM     10  N   UNL     1       4.569   4.540  18.099  0.00  0.00    +0.000 N 
ATOM     11  H   UNL     1       4.269   6.192  15.064  0.00  0.00    +0.000 HD
ATOM     12  H   UNL     1       4.146   3.964  17.375  0.00  0.00    +0.000 HD
ENDROOT
BRANCH   1  14
ATOM     13  N   UNL     1       1.507  10.476  18.216  0.00  0.00    +0.000 NA
ATOM     14  C   UNL     1       2.048   9.446  18.152  0.00  0.00    +0.000 C 
ENDBRANCH   1  14
BRANCH   4  15
ATOM     15  C   UNL     1       6.053   5.651  15.903  0.00  0.00    +0.000 C 
BRANCH  15  16
ATOM     16  C   UNL     1       6.390   4.970  14.596  0.00  0.00    +0.000 A 
ATOM     17  C   UNL     1       5.564   3.986  14.037  0.00  0.00    +0.000 A 
ATOM     18  C   UNL     1       5.860   3.441  12.788  0.00  0.00    +0.000 A 
ATOM     19  C   UNL     1       6.973   3.885  12.075  0.00  0.00    +0.000 A 
ATOM     20  C   UNL     1       7.794   4.873  12.610  0.00  0.00    +0.000 A 
ATOM     21  C   UNL     1       7.504   5.416  13.861  0.00  0.00    +0.000 A 
ENDBRANCH  15  16
ENDBRANCH   4  15
BRANCH   8  22
ATOM     22  C   UNL     1       2.125   4.892  20.872  0.00  0.00    +0.000 C 
BRANCH  22  23
ATOM     23  C   UNL     1       1.304   3.698  20.397  0.00  0.00    +0.000 C 
BRANCH  23  24
ATOM     24  C   UNL     1       1.360   2.537  21.381  0.00  0.00    +0.000 C 
BRANCH  24  25
ATOM     25  O   UNL     1       2.469   2.712  22.255  0.00  0.00    +0.000 OA
ATOM     26  H   UNL     1       2.968   1.878  22.263  0.00  0.00    +0.000 HD
ENDBRANCH  24  25
ENDBRANCH  23  24
ENDBRANCH  22  23
ENDBRANCH   8  22
TORSDOF 7
ENDMDL
MODEL 6
REMARK VINA RESULT:      -7.1      2.886      6.732
REMARK  Name = 
REMARK  7 active torsions:
REMARK  status: ('A' for Active; 'I' for Inactive)
REMARK    1  A    between atoms: C_2  and  C_3
REMARK    2  A    between atoms: N_6  and  C_7
REMARK    3  A    between atoms: C_7  and  C_8
REMARK    4  A    between atoms: N_17  and  C_18
REMARK    5  A    between atoms: C_18  and  C_19
REMARK    6  A    between atoms: C_19  and  C_20
REMARK    7  A    between atoms: C_20  and  O_21
REMARK                            x       y       z     vdW  Elec       q    Type
REMARK                         _______ _______ _______ _____ _____    ______ ____
ROOT
ATOM      1  C   UNL     1       2.695   7.281  18.673  0.00  0.00    +0.000 A 
ATOM      2  N   UNL     1       3.423   7.310  17.530  0.00  0.00    +0.000 NA
ATOM      3  C   UNL     1       4.208   6.247  17.260  0.00  0.00    +0.000 A 
ATOM      4  N   UNL     1       4.911   6.295  16.054  0.00  0.00    +0.000 N 
ATOM      5  C   UNL     1       4.202   5.162  18.117  0.00  0.00    +0.000 A 
ATOM      6  C   UNL     1       3.389   5.223  19.233  0.00  0.00    +0.000 A 
ATOM      7  N   UNL     1       2.616   6.259  19.550  0.00  0.00    +0.000 NA
ATOM      8  N   UNL     1       3.526   4.048  19.960  0.00  0.00    +0.000 N 
ATOM      9  C   UNL     1       4.461   3.216  19.237  0.00  0.00    +0.000 C 
ATOM     10  N   UNL     1       4.862   3.898  17.995  0.00  0.00    +0.000 N 
ATOM     11  H   UNL     1       4.281   6.014  15.308  0.00  0.00    +0.000 HD
ATOM     12  H   UNL     1       4.458   3.419  17.194  0.00  0.00    +0.000 HD
ENDROOT
BRANCH   1  14
ATOM     13  N   UNL     1       1.307   9.420  19.225  0.00  0.00    +0.000 NA
ATOM     14  C   UNL     1       1.929   8.463  18.985  0.00  0.00    +0.000 C 
ENDBRANCH   1  14
BRANCH   4  15
ATOM     15  C   UNL     1       6.142   5.505  15.986  0.00  0.00    +0.000 C 
BRANCH  15  16
ATOM     16  C   UNL     1       6.420   5.005  14.587  0.00  0.00    +0.000 A 
ATOM     17  C   UNL     1       7.538   5.429  13.855  0.00  0.00    +0.000 A 
ATOM     18  C   UNL     1       7.811   4.882  12.602  0.00  0.00    +0.000 A 
ATOM     19  C   UNL     1       6.984   3.892  12.073  0.00  0.00    +0.000 A 
ATOM     20  C   UNL     1       5.878   3.449  12.795  0.00  0.00    +0.000 A 
ATOM     21  C   UNL     1       5.600   3.999  14.045  0.00  0.00    +0.000 A 
ENDBRANCH  15  16
ENDBRANCH   4  15
BRANCH   8  22
ATOM     22  C   UNL     1       2.525   3.536  20.858  0.00  0.00    +0.000 C 
BRANCH  22  23
ATOM     23  C   UNL     1       1.892   2.282  20.266  0.00  0.00    +0.000 C 
BRANCH  23  24
ATOM     24  C   UNL     1       0.945   2.607  19.117  0.00  0.00    +0.000 C 
BRANCH  24  25
ATOM     25  O   UNL     1       1.425   1.997  17.924  0.00  0.00    +0.000 OA
ATOM     26  H   UNL     1       2.373   1.822  18.047  0.00  0.00    +0.000 HD
ENDBRANCH  24  25
ENDBRANCH  23  24
ENDBRANCH  22  23
ENDBRANCH   8  22
TORSDOF 7
ENDMDL
MODEL 7
REMARK VINA RESULT:      -7.1      2.822      4.737
REMARK  Name = 
REMARK  7 active torsions:
REMARK  status: ('A' for Active; 'I' for Inactive)
REMARK    1  A    between atoms: C_2  and  C_3
REMARK    2  A    between atoms: N_6  and  C_7
REMARK    3  A    between atoms: C_7  and  C_8
REMARK    4  A    between atoms: N_17  and  C_18
REMARK    5  A    between atoms: C_18  and  C_19
REMARK    6  A    between atoms: C_19  and  C_20
REMARK    7  A    between atoms: C_20  and  O_21
REMARK                            x       y       z     vdW  Elec       q    Type
REMARK                         _______ _______ _______ _____ _____    ______ ____
ROOT
ATOM      1  C   UNL     1       6.475   4.524  14.903  0.00  0.00    +0.000 A 
ATOM      2  N   UNL     1       5.590   3.657  15.455  0.00  0.00    +0.000 NA
ATOM      3  C   UNL     1       5.373   3.747  16.783  0.00  0.00    +0.000 A 
ATOM      4  N   UNL     1       4.425   2.865  17.310  0.00  0.00    +0.000 N 
ATOM      5  C   UNL     1       6.007   4.736  17.512  0.00  0.00    +0.000 A 
ATOM      6  C   UNL     1       6.857   5.592  16.838  0.00  0.00    +0.000 A 
ATOM      7  N   UNL     1       7.118   5.528  15.534  0.00  0.00    +0.000 NA
ATOM      8  N   UNL     1       7.391   6.504  17.738  0.00  0.00    +0.000 N 
ATOM      9  C   UNL     1       6.822   6.198  19.031  0.00  0.00    +0.000 C 
ATOM     10  N   UNL     1       5.862   5.089  18.891  0.00  0.00    +0.000 N 
ATOM     11  H   UNL     1       3.502   3.251  17.136  0.00  0.00    +0.000 HD
ATOM     12  H   UNL     1       4.915   5.436  19.020  0.00  0.00    +0.000 HD
ENDROOT
BRANCH   1  14
ATOM     13  N   UNL     1       6.995   4.229  12.363  0.00  0.00    +0.000 NA
ATOM     14  C   UNL     1       6.757   4.357  13.498  0.00  0.00    +0.000 C 
ENDBRANCH   1  14
BRANCH   4  15
ATOM     15  C   UNL     1       4.563   2.531  18.728  0.00  0.00    +0.000 C 
BRANCH  15  16
ATOM     16  C   UNL     1       3.256   2.666  19.474  0.00  0.00    +0.000 A 
ATOM     17  C   UNL     1       3.196   2.647  20.875  0.00  0.00    +0.000 A 
ATOM     18  C   UNL     1       1.985   2.861  21.532  0.00  0.00    +0.000 A 
ATOM     19  C   UNL     1       0.825   3.116  20.802  0.00  0.00    +0.000 A 
ATOM     20  C   UNL     1       0.873   3.154  19.411  0.00  0.00    +0.000 A 
ATOM     21  C   UNL     1       2.081   2.934  18.750  0.00  0.00    +0.000 A 
ENDBRANCH  15  16
ENDBRANCH   4  15
BRANCH   8  22
ATOM     22  C   UNL     1       7.890   7.802  17.369  0.00  0.00    +0.000 C 
BRANCH  22  23
ATOM     23  C   UNL     1       8.574   8.453  18.566  0.00  0.00    +0.000 C 
BRANCH  23  24
ATOM     24  C   UNL     1       8.786   9.948  18.361  0.00  0.00    +0.000 C 
BRANCH  24  25
ATOM     25  O   UNL     1       9.155  10.546  19.599  0.00  0.00    +0.000 OA
ATOM     26  H   UNL     1       8.437  11.146  19.858  0.00  0.00    +0.000 HD
ENDBRANCH  24  25
ENDBRANCH  23  24
ENDBRANCH  22  23
ENDBRANCH   8  22
TORSDOF 7
ENDMDL
MODEL 8
REMARK VINA RESULT:      -7.0      2.821      4.755
REMARK  Name = 
REMARK  7 active torsions:
REMARK  status: ('A' for Active; 'I' for Inactive)
REMARK    1  A    between atoms: C_2  and  C_3
REMARK    2  A    between atoms: N_6  and  C_7
REMARK    3  A    between atoms: C_7  and  C_8
REMARK    4  A    between atoms: N_17  and  C_18
REMARK    5  A    between atoms: C_18  and  C_19
REMARK    6  A    between atoms: C_19  and  C_20
REMARK    7  A    between atoms: C_20  and  O_21
REMARK                            x       y       z     vdW  Elec       q    Type
REMARK                         _______ _______ _______ _____ _____    ______ ____
ROOT
ATOM      1  C   UNL     1       6.499   4.534  14.872  0.00  0.00    +0.000 A 
ATOM      2  N   UNL     1       5.612   3.663  15.412  0.00  0.00    +0.000 NA
ATOM      3  C   UNL     1       5.381   3.746  16.738  0.00  0.00    +0.000 A 
ATOM      4  N   UNL     1       4.431   2.859  17.252  0.00  0.00    +0.000 N 
ATOM      5  C   UNL     1       6.006   4.733  17.478  0.00  0.00    +0.000 A 
ATOM      6  C   UNL     1       6.860   5.594  16.816  0.00  0.00    +0.000 A 
ATOM      7  N   UNL     1       7.134   5.536  15.514  0.00  0.00    +0.000 NA
ATOM      8  N   UNL     1       7.384   6.503  17.725  0.00  0.00    +0.000 N 
ATOM      9  C   UNL     1       6.803   6.190  19.011  0.00  0.00    +0.000 C 
ATOM     10  N   UNL     1       5.847   5.080  18.857  0.00  0.00    +0.000 N 
ATOM     11  H   UNL     1       3.508   3.244  17.070  0.00  0.00    +0.000 HD
ATOM     12  H   UNL     1       4.898   5.424  18.978  0.00  0.00    +0.000 HD
ENDROOT
BRANCH   1  14
ATOM     13  N   UNL     1       7.026   4.251  12.333  0.00  0.00    +0.000 NA
ATOM     14  C   UNL     1       6.796   4.374  13.469  0.00  0.00    +0.000 C 
ENDBRANCH   1  14
BRANCH   4  15
ATOM     15  C   UNL     1       4.556   2.519  18.670  0.00  0.00    +0.000 C 
BRANCH  15  16
ATOM     16  C   UNL     1       3.276   2.773  19.431  0.00  0.00    +0.000 A 
ATOM     17  C   UNL     1       2.061   3.024  18.778  0.00  0.00    +0.000 A 
ATOM     18  C   UNL     1       0.883   3.168  19.509  0.00  0.00    +0.000 A 
ATOM     19  C   UNL     1       0.898   3.044  20.898  0.00  0.00    +0.000 A 
ATOM     20  C   UNL     1       2.095   2.779  21.559  0.00  0.00    +0.000 A 
ATOM     21  C   UNL     1       3.276   2.640  20.831  0.00  0.00    +0.000 A 
ENDBRANCH  15  16
ENDBRANCH   4  15
BRANCH   8  22
ATOM     22  C   UNL     1       7.883   7.805  17.367  0.00  0.00    +0.000 C 
BRANCH  22  23
ATOM     23  C   UNL     1       8.555   8.451  18.573  0.00  0.00    +0.000 C 
BRANCH  23  24
ATOM     24  C   UNL     1       8.784   9.943  18.369  0.00  0.00    +0.000 C 
BRANCH  24  25
ATOM     25  O   UNL     1       9.155  10.537  19.608  0.00  0.00    +0.000 OA
ATOM     26  H   UNL     1      10.074  10.280  19.790  0.00  0.00    +0.000 HD
ENDBRANCH  24  25
ENDBRANCH  23  24
ENDBRANCH  22  23
ENDBRANCH   8  22
TORSDOF 7
ENDMDL
MODEL 9
REMARK VINA RESULT:      -7.0      3.373      7.051
REMARK  Name = 
REMARK  7 active torsions:
REMARK  status: ('A' for Active; 'I' for Inactive)
REMARK    1  A    between atoms: C_2  and  C_3
REMARK    2  A    between atoms: N_6  and  C_7
REMARK    3  A    between atoms: C_7  and  C_8
REMARK    4  A    between atoms: N_17  and  C_18
REMARK    5  A    between atoms: C_18  and  C_19
REMARK    6  A    between atoms: C_19  and  C_20
REMARK    7  A    between atoms: C_20  and  O_21
REMARK                            x       y       z     vdW  Elec       q    Type
REMARK                         _______ _______ _______ _____ _____    ______ ____
ROOT
ATOM      1  C   UNL     1       2.719   6.780  18.505  0.00  0.00    +0.000 A 
ATOM      2  N   UNL     1       3.684   7.004  17.580  0.00  0.00    +0.000 NA
ATOM      3  C   UNL     1       4.326   5.932  17.073  0.00  0.00    +0.000 A 
ATOM      4  N   UNL     1       5.286   6.198  16.093  0.00  0.00    +0.000 N 
ATOM      5  C   UNL     1       3.947   4.662  17.468  0.00  0.00    +0.000 A 
ATOM      6  C   UNL     1       2.920   4.550  18.387  0.00  0.00    +0.000 A 
ATOM      7  N   UNL     1       2.274   5.580  18.929  0.00  0.00    +0.000 NA
ATOM      8  N   UNL     1       2.693   3.206  18.652  0.00  0.00    +0.000 N 
ATOM      9  C   UNL     1       3.620   2.456  17.836  0.00  0.00    +0.000 C 
ATOM     10  N   UNL     1       4.402   3.387  17.004  0.00  0.00    +0.000 N 
ATOM     11  H   UNL     1       4.807   6.326  15.207  0.00  0.00    +0.000 HD
ATOM     12  H   UNL     1       4.120   3.297  16.031  0.00  0.00    +0.000 HD
ENDROOT
BRANCH   1  14
ATOM     13  N   UNL     1       1.598   8.878  19.577  0.00  0.00    +0.000 NA
ATOM     14  C   UNL     1       2.104   7.944  19.096  0.00  0.00    +0.000 C 
ENDBRANCH   1  14
BRANCH   4  15
ATOM     15  C   UNL     1       6.354   5.208  15.941  0.00  0.00    +0.000 C 
BRANCH  15  16
ATOM     16  C   UNL     1       6.596   4.851  14.493  0.00  0.00    +0.000 A 
ATOM     17  C   UNL     1       7.628   5.437  13.746  0.00  0.00    +0.000 A 
ATOM     18  C   UNL     1       7.878   5.021  12.439  0.00  0.00    +0.000 A 
ATOM     19  C   UNL     1       7.115   4.004  11.868  0.00  0.00    +0.000 A 
ATOM     20  C   UNL     1       6.096   3.402  12.603  0.00  0.00    +0.000 A 
ATOM     21  C   UNL     1       5.840   3.819  13.908  0.00  0.00    +0.000 A 
ENDBRANCH  15  16
ENDBRANCH   4  15
BRANCH   8  22
ATOM     22  C   UNL     1       1.443   2.681  19.134  0.00  0.00    +0.000 C 
BRANCH  22  23
ATOM     23  C   UNL     1       1.059   3.370  20.438  0.00  0.00    +0.000 C 
BRANCH  23  24
ATOM     24  C   UNL     1       2.037   3.052  21.563  0.00  0.00    +0.000 C 
BRANCH  24  25
ATOM     25  O   UNL     1       1.422   2.159  22.485  0.00  0.00    +0.000 OA
ATOM     26  H   UNL     1       0.760   1.644  21.994  0.00  0.00    +0.000 HD
ENDBRANCH  24  25
ENDBRANCH  23  24
ENDBRANCH  22  23
ENDBRANCH   8  22
TORSDOF 7
ENDMDL
