MODEL 1
REMARK VINA RESULT:      -7.6      0.000      0.000
REMARK  Name = 
REMARK  4 active torsions:
REMARK  status: ('A' for Active; 'I' for Inactive)
REMARK    1  A    between atoms: C_2  and  C_3
REMARK    2  A    between atoms: C_6  and  C_7
REMARK    3  A    between atoms: C_8  and  C_9
REMARK    4  A    between atoms: C_9  and  C_11
REMARK                            x       y       z     vdW  Elec       q    Type
REMARK                         _______ _______ _______ _____ _____    ______ ____
ROOT
ATOM      1  C   UNL     1       7.309   6.495  17.088  0.00  0.00    +0.000 C 
ATOM      2  O   UNL     1       7.722   6.133  15.993  0.00  0.00    +0.000 OA
ENDROOT
BRANCH   1   3
ATOM      3  C   UNL     1       6.082   5.887  17.684  0.00  0.00    +0.000 A 
ATOM      4  C   UNL     1       4.815   6.496  17.522  0.00  0.00    +0.000 A 
ATOM      5  C   UNL     1       3.668   5.926  18.085  0.00  0.00    +0.000 A 
ATOM      6  C   UNL     1       3.820   4.765  18.809  0.00  0.00    +0.000 A 
ATOM      7  C   UNL     1       5.050   4.174  18.983  0.00  0.00    +0.000 A 
ATOM      8  C   UNL     1       6.202   4.709  18.437  0.00  0.00    +0.000 A 
ATOM      9  O   UNL     1       4.971   3.041  19.734  0.00  0.00    +0.000 OA
ATOM     10  C   UNL     1       3.566   3.027  20.066  0.00  0.00    +0.000 C 
ATOM     11  O   UNL     1       2.819   4.080  19.423  0.00  0.00    +0.000 OA
ENDBRANCH   1   3
BRANCH   1  13
ATOM     12  C   UNL     1       7.870   8.871  17.524  0.00  0.00    +0.000 C 
ATOM     13  C   UNL     1       7.974   7.577  17.872  0.00  0.00    +0.000 C 
BRANCH  12  17
ATOM     14  C   UNL     1       9.674  12.157  19.647  0.00  0.00    +0.000 A 
ATOM     15  C   UNL     1       9.120  12.344  18.377  0.00  0.00    +0.000 A 
ATOM     16  C   UNL     1       8.545  11.261  17.690  0.00  0.00    +0.000 A 
ATOM     17  C   UNL     1       8.530   9.976  18.251  0.00  0.00    +0.000 A 
ATOM     18  C   UNL     1       9.102   9.802  19.520  0.00  0.00    +0.000 A 
ATOM     19  C   UNL     1       9.671  10.881  20.210  0.00  0.00    +0.000 A 
BRANCH  14  21
ATOM     20  N   UNL     1      10.664  14.169  20.960  0.00  0.00    +0.000 NA
ATOM     21  C   UNL     1      10.224  13.268  20.378  0.00  0.00    +0.000 C 
ENDBRANCH  14  21
ENDBRANCH  12  17
ENDBRANCH   1  13
TORSDOF 4
ENDMDL
MODEL 2
REMARK VINA RESULT:      -7.6      4.715      6.731
REMARK  Name = 
REMARK  4 active torsions:
REMARK  status: ('A' for Active; 'I' for Inactive)
REMARK    1  A    between atoms: C_2  and  C_3
REMARK    2  A    between atoms: C_6  and  C_7
REMARK    3  A    between atoms: C_8  and  C_9
REMARK    4  A    between atoms: C_9  and  C_11
REMARK                            x       y       z     vdW  Elec       q    Type
REMARK                         _______ _______ _______ _____ _____    ______ ____
ROOT
ATOM      1  C   UNL     1       4.403   4.457  19.102  0.00  0.00    +0.000 C 
ATOM      2  O   UNL     1       4.383   3.362  19.649  0.00  0.00    +0.000 OA
ENDROOT
BRANCH   1   3
ATOM      3  C   UNL     1       5.307   4.721  17.943  0.00  0.00    +0.000 A 
ATOM      4  C   UNL     1       6.382   5.634  18.053  0.00  0.00    +0.000 A 
ATOM      5  C   UNL     1       7.227   5.881  16.965  0.00  0.00    +0.000 A 
ATOM      6  C   UNL     1       6.964   5.218  15.787  0.00  0.00    +0.000 A 
ATOM      7  C   UNL     1       5.912   4.340  15.668  0.00  0.00    +0.000 A 
ATOM      8  C   UNL     1       5.062   4.069  16.725  0.00  0.00    +0.000 A 
ATOM      9  O   UNL     1       5.833   3.802  14.420  0.00  0.00    +0.000 OA
ATOM     10  C   UNL     1       6.912   4.492  13.753  0.00  0.00    +0.000 C 
ATOM     11  O   UNL     1       7.677   5.340  14.636  0.00  0.00    +0.000 OA
ENDBRANCH   1   3
BRANCH   1  13
ATOM     12  C   UNL     1       3.024   6.482  18.715  0.00  0.00    +0.000 C 
ATOM     13  C   UNL     1       3.560   5.597  19.572  0.00  0.00    +0.000 C 
BRANCH  12  17
ATOM     14  C   UNL     1       0.545   9.822  19.838  0.00  0.00    +0.000 A 
ATOM     15  C   UNL     1       1.052   9.712  18.539  0.00  0.00    +0.000 A 
ATOM     16  C   UNL     1       1.869   8.623  18.190  0.00  0.00    +0.000 A 
ATOM     17  C   UNL     1       2.206   7.641  19.131  0.00  0.00    +0.000 A 
ATOM     18  C   UNL     1       1.701   7.773  20.434  0.00  0.00    +0.000 A 
ATOM     19  C   UNL     1       0.881   8.854  20.785  0.00  0.00    +0.000 A 
BRANCH  14  21
ATOM     20  N   UNL     1      -1.027  11.786  20.486  0.00  0.00    +0.000 NA
ATOM     21  C   UNL     1      -0.330  10.907  20.194  0.00  0.00    +0.000 C 
ENDBRANCH  14  21
ENDBRANCH  12  17
ENDBRANCH   1  13
TORSDOF 4
ENDMDL
MODEL 3
REMARK VINA RESULT:      -7.6      0.206      1.069
REMARK  Name = 
REMARK  4 active torsions:
REMARK  status: ('A' for Active; 'I' for Inactive)
REMARK    1  A    between atoms: C_2  and  C_3
REMARK    2  A    between atoms: C_6  and  C_7
REMARK    3  A    between atoms: C_8  and  C_9
REMARK    4  A    between atoms: C_9  and  C_11
REMARK                            x       y       z     vdW  Elec       q    Type
REMARK                         _______ _______ _______ _____ _____    ______ ____
ROOT
ATOM      1  C   UNL     1       7.233   6.413  17.136  0.00  0.00    +0.000 C 
ATOM      2  O   UNL     1       7.651   6.022  16.053  0.00  0.00    +0.000 OA
ENDROOT
BRANCH   1   3
ATOM      3  C   UNL     1       6.021   5.801  17.757  0.00  0.00    +0.000 A 
ATOM      4  C   UNL     1       4.753   6.417  17.639  0.00  0.00    +0.000 A 
ATOM      5  C   UNL     1       3.619   5.843  18.224  0.00  0.00    +0.000 A 
ATOM      6  C   UNL     1       3.785   4.671  18.927  0.00  0.00    +0.000 A 
ATOM      7  C   UNL     1       5.017   4.073  19.058  0.00  0.00    +0.000 A 
ATOM      8  C   UNL     1       6.156   4.612  18.488  0.00  0.00    +0.000 A 
ATOM      9  O   UNL     1       4.954   2.930  19.795  0.00  0.00    +0.000 OA
ATOM     10  C   UNL     1       3.559   2.916  20.165  0.00  0.00    +0.000 C 
ATOM     11  O   UNL     1       2.798   3.982  19.558  0.00  0.00    +0.000 OA
ENDBRANCH   1   3
BRANCH   1  13
ATOM     12  C   UNL     1       7.754   8.812  17.485  0.00  0.00    +0.000 C 
ATOM     13  C   UNL     1       7.879   7.535  17.881  0.00  0.00    +0.000 C 
BRANCH  12  17
ATOM     14  C   UNL     1       9.742  12.080  19.467  0.00  0.00    +0.000 A 
ATOM     15  C   UNL     1       9.770  10.791  20.009  0.00  0.00    +0.000 A 
ATOM     16  C   UNL     1       9.107   9.737  19.358  0.00  0.00    +0.000 A 
ATOM     17  C   UNL     1       8.394   9.954  18.171  0.00  0.00    +0.000 A 
ATOM     18  C   UNL     1       8.364  11.256  17.647  0.00  0.00    +0.000 A 
ATOM     19  C   UNL     1       9.028  12.309  18.290  0.00  0.00    +0.000 A 
BRANCH  14  21
ATOM     20  N   UNL     1      11.037  14.021  20.610  0.00  0.00    +0.000 NA
ATOM     21  C   UNL     1      10.455  13.158  20.100  0.00  0.00    +0.000 C 
ENDBRANCH  14  21
ENDBRANCH  12  17
ENDBRANCH   1  13
TORSDOF 4
ENDMDL
MODEL 4
REMARK VINA RESULT:      -7.5      4.786      6.726
REMARK  Name = 
REMARK  4 active torsions:
REMARK  status: ('A' for Active; 'I' for Inactive)
REMARK    1  A    between atoms: C_2  and  C_3
REMARK    2  A    between atoms: C_6  and  C_7
REMARK    3  A    between atoms: C_8  and  C_9
REMARK    4  A    between atoms: C_9  and  C_11
REMARK                            x       y       z     vdW  Elec       q    Type
REMARK                         _______ _______ _______ _____ _____    ______ ____
ROOT
ATOM      1  C   UNL     1       4.189   4.277  18.964  0.00  0.00    +0.000 C 
ATOM      2  O   UNL     1       4.119   3.171  19.485  0.00  0.00    +0.000 OA
ENDROOT
BRANCH   1   3
ATOM      3  C   UNL     1       5.167   4.550  17.869  0.00  0.00    +0.000 A 
ATOM      4  C   UNL     1       6.361   5.266  18.122  0.00  0.00    +0.000 A 
ATOM      5  C   UNL     1       7.275   5.523  17.094  0.00  0.00    +0.000 A 
ATOM      6  C   UNL     1       6.964   5.068  15.832  0.00  0.00    +0.000 A 
ATOM      7  C   UNL     1       5.798   4.384  15.575  0.00  0.00    +0.000 A 
ATOM      8  C   UNL     1       4.876   4.110  16.569  0.00  0.00    +0.000 A 
ATOM      9  O   UNL     1       5.689   4.034  14.264  0.00  0.00    +0.000 OA
ATOM     10  C   UNL     1       6.884   4.633  13.718  0.00  0.00    +0.000 C 
ATOM     11  O   UNL     1       7.731   5.231  14.722  0.00  0.00    +0.000 OA
ENDBRANCH   1   3
BRANCH   1  13
ATOM     12  C   UNL     1       3.042   6.443  18.585  0.00  0.00    +0.000 C 
ATOM     13  C   UNL     1       3.335   5.421  19.405  0.00  0.00    +0.000 C 
BRANCH  12  17
ATOM     14  C   UNL     1       0.759   9.878  19.829  0.00  0.00    +0.000 A 
ATOM     15  C   UNL     1       1.043   8.845  20.727  0.00  0.00    +0.000 A 
ATOM     16  C   UNL     1       1.779   7.725  20.305  0.00  0.00    +0.000 A 
ATOM     17  C   UNL     1       2.225   7.610  18.981  0.00  0.00    +0.000 A 
ATOM     18  C   UNL     1       1.920   8.649  18.088  0.00  0.00    +0.000 A 
ATOM     19  C   UNL     1       1.191   9.770  18.507  0.00  0.00    +0.000 A 
BRANCH  14  21
ATOM     20  N   UNL     1      -0.535  11.994  20.603  0.00  0.00    +0.000 NA
ATOM     21  C   UNL     1       0.046  11.051  20.262  0.00  0.00    +0.000 C 
ENDBRANCH  14  21
ENDBRANCH  12  17
ENDBRANCH   1  13
TORSDOF 4
ENDMDL
MODEL 5
REMARK VINA RESULT:      -7.2      0.722      1.880
REMARK  Name = 
REMARK  4 active torsions:
REMARK  status: ('A' for Active; 'I' for Inactive)
REMARK    1  A    between atoms: C_2  and  C_3
REMARK    2  A    between atoms: C_6  and  C_7
REMARK    3  A    between atoms: C_8  and  C_9
REMARK    4  A    between atoms: C_9  and  C_11
REMARK                            x       y       z     vdW  Elec       q    Type
REMARK                         _______ _______ _______ _____ _____    ______ ____
ROOT
ATOM      1  C   UNL     1       7.284   6.625  17.193  0.00  0.00    +0.000 C 
ATOM      2  O   UNL     1       7.699   6.296  16.089  0.00  0.00    +0.000 OA
ENDROOT
BRANCH   1   3
ATOM      3  C   UNL     1       6.119   5.929  17.815  0.00  0.00    +0.000 A 
ATOM      4  C   UNL     1       6.307   4.804  18.653  0.00  0.00    +0.000 A 
ATOM      5  C   UNL     1       5.214   4.151  19.233  0.00  0.00    +0.000 A 
ATOM      6  C   UNL     1       3.956   4.631  18.947  0.00  0.00    +0.000 A 
ATOM      7  C   UNL     1       3.764   5.715  18.122  0.00  0.00    +0.000 A 
ATOM      8  C   UNL     1       4.822   6.386  17.537  0.00  0.00    +0.000 A 
ATOM      9  O   UNL     1       2.445   6.017  17.973  0.00  0.00    +0.000 OA
ATOM     10  C   UNL     1       1.831   4.960  18.742  0.00  0.00    +0.000 C 
ATOM     11  O   UNL     1       2.789   4.120  19.420  0.00  0.00    +0.000 OA
ENDBRANCH   1   3
BRANCH   1  13
ATOM     12  C   UNL     1       7.896   9.010  17.489  0.00  0.00    +0.000 C 
ATOM     13  C   UNL     1       7.885   7.754  17.965  0.00  0.00    +0.000 C 
BRANCH  12  17
ATOM     14  C   UNL     1       9.783  12.289  19.550  0.00  0.00    +0.000 A 
ATOM     15  C   UNL     1       9.814  10.997  20.083  0.00  0.00    +0.000 A 
ATOM     16  C   UNL     1       9.184   9.939  19.406  0.00  0.00    +0.000 A 
ATOM     17  C   UNL     1       8.501  10.156  18.201  0.00  0.00    +0.000 A 
ATOM     18  C   UNL     1       8.467  11.460  17.686  0.00  0.00    +0.000 A 
ATOM     19  C   UNL     1       9.099  12.518  18.355  0.00  0.00    +0.000 A 
BRANCH  14  21
ATOM     20  N   UNL     1      11.016  14.246  20.734  0.00  0.00    +0.000 NA
ATOM     21  C   UNL     1      10.463  13.372  20.210  0.00  0.00    +0.000 C 
ENDBRANCH  14  21
ENDBRANCH  12  17
ENDBRANCH   1  13
TORSDOF 4
ENDMDL
MODEL 6
REMARK VINA RESULT:      -7.2      1.317      1.673
REMARK  Name = 
REMARK  4 active torsions:
REMARK  status: ('A' for Active; 'I' for Inactive)
REMARK    1  A    between atoms: C_2  and  C_3
REMARK    2  A    between atoms: C_6  and  C_7
REMARK    3  A    between atoms: C_8  and  C_9
REMARK    4  A    between atoms: C_9  and  C_11
REMARK                            x       y       z     vdW  Elec       q    Type
REMARK                         _______ _______ _______ _____ _____    ______ ____
ROOT
ATOM      1  C   UNL     1       7.027   6.251  17.392  0.00  0.00    +0.000 C 
ATOM      2  O   UNL     1       7.886   5.413  17.149  0.00  0.00    +0.000 OA
ENDROOT
BRANCH   1   3
ATOM      3  C   UNL     1       5.595   5.860  17.546  0.00  0.00    +0.000 A 
ATOM      4  C   UNL     1       4.590   6.838  17.735  0.00  0.00    +0.000 A 
ATOM      5  C   UNL     1       3.248   6.469  17.882  0.00  0.00    +0.000 A 
ATOM      6  C   UNL     1       2.946   5.126  17.851  0.00  0.00    +0.000 A 
ATOM      7  C   UNL     1       3.919   4.168  17.682  0.00  0.00    +0.000 A 
ATOM      8  C   UNL     1       5.253   4.499  17.529  0.00  0.00    +0.000 A 
ATOM      9  O   UNL     1       3.403   2.908  17.686  0.00  0.00    +0.000 OA
ATOM     10  C   UNL     1       2.009   3.183  17.944  0.00  0.00    +0.000 C 
ATOM     11  O   UNL     1       1.703   4.592  17.980  0.00  0.00    +0.000 OA
ENDBRANCH   1   3
BRANCH   1  13
ATOM     12  C   UNL     1       8.315   8.150  18.332  0.00  0.00    +0.000 C 
ATOM     13  C   UNL     1       7.346   7.705  17.515  0.00  0.00    +0.000 C 
BRANCH  12  17
ATOM     14  C   UNL     1       9.428  12.281  18.839  0.00  0.00    +0.000 A 
ATOM     15  C   UNL     1       9.820  11.315  19.771  0.00  0.00    +0.000 A 
ATOM     16  C   UNL     1       9.440   9.974  19.600  0.00  0.00    +0.000 A 
ATOM     17  C   UNL     1       8.651   9.579  18.510  0.00  0.00    +0.000 A 
ATOM     18  C   UNL     1       8.254  10.562  17.591  0.00  0.00    +0.000 A 
ATOM     19  C   UNL     1       8.635  11.901  17.755  0.00  0.00    +0.000 A 
BRANCH  14  21
ATOM     20  N   UNL     1      10.197  14.750  19.096  0.00  0.00    +0.000 NA
ATOM     21  C   UNL     1       9.849  13.650  18.980  0.00  0.00    +0.000 C 
ENDBRANCH  14  21
ENDBRANCH  12  17
ENDBRANCH   1  13
TORSDOF 4
ENDMDL
MODEL 7
REMARK VINA RESULT:      -7.2      0.805      1.596
REMARK  Name = 
REMARK  4 active torsions:
REMARK  status: ('A' for Active; 'I' for Inactive)
REMARK    1  A    between atoms: C_2  and  C_3
REMARK    2  A    between atoms: C_6  and  C_7
REMARK    3  A    between atoms: C_8  and  C_9
REMARK    4  A    between atoms: C_9  and  C_11
REMARK                            x       y       z     vdW  Elec       q    Type
REMARK                         _______ _______ _______ _____ _____    ______ ____
ROOT
ATOM      1  C   UNL     1       7.328   6.912  17.320  0.00  0.00    +0.000 C 
ATOM      2  O   UNL     1       7.799   6.636  16.224  0.00  0.00    +0.000 OA
ENDROOT
BRANCH   1   3
ATOM      3  C   UNL     1       6.178   6.141  17.879  0.00  0.00    +0.000 A 
ATOM      4  C   UNL     1       6.391   5.033  18.732  0.00  0.00    +0.000 A 
ATOM      5  C   UNL     1       5.311   4.310  19.252  0.00  0.00    +0.000 A 
ATOM      6  C   UNL     1       4.043   4.707  18.893  0.00  0.00    +0.000 A 
ATOM      7  C   UNL     1       3.828   5.775  18.052  0.00  0.00    +0.000 A 
ATOM      8  C   UNL     1       4.872   6.513  17.526  0.00  0.00    +0.000 A 
ATOM      9  O   UNL     1       2.503   5.990  17.827  0.00  0.00    +0.000 OA
ATOM     10  C   UNL     1       1.917   4.896  18.566  0.00  0.00    +0.000 C 
ATOM     11  O   UNL     1       2.887   4.121  19.301  0.00  0.00    +0.000 OA
ENDBRANCH   1   3
BRANCH   1  13
ATOM     12  C   UNL     1       8.282   9.186  17.587  0.00  0.00    +0.000 C 
ATOM     13  C   UNL     1       7.845   8.045  18.146  0.00  0.00    +0.000 C 
BRANCH  12  17
ATOM     14  C   UNL     1       9.743  12.560  19.832  0.00  0.00    +0.000 A 
ATOM     15  C   UNL     1       9.217  12.729  18.548  0.00  0.00    +0.000 A 
ATOM     16  C   UNL     1       8.755  11.618  17.822  0.00  0.00    +0.000 A 
ATOM     17  C   UNL     1       8.826  10.325  18.357  0.00  0.00    +0.000 A 
ATOM     18  C   UNL     1       9.369  10.169  19.641  0.00  0.00    +0.000 A 
ATOM     19  C   UNL     1       9.826  11.276  20.371  0.00  0.00    +0.000 A 
BRANCH  14  21
ATOM     20  N   UNL     1      10.530  14.614  21.215  0.00  0.00    +0.000 NA
ATOM     21  C   UNL     1      10.177  13.695  20.603  0.00  0.00    +0.000 C 
ENDBRANCH  14  21
ENDBRANCH  12  17
ENDBRANCH   1  13
TORSDOF 4
ENDMDL
MODEL 8
REMARK VINA RESULT:      -7.1      5.693      6.980
REMARK  Name = 
REMARK  4 active torsions:
REMARK  status: ('A' for Active; 'I' for Inactive)
REMARK    1  A    between atoms: C_2  and  C_3
REMARK    2  A    between atoms: C_6  and  C_7
REMARK    3  A    between atoms: C_8  and  C_9
REMARK    4  A    between atoms: C_9  and  C_11
REMARK                            x       y       z     vdW  Elec       q    Type
REMARK                         _______ _______ _______ _____ _____    ______ ____
ROOT
ATOM      1  C   UNL     1       3.212   7.229  17.826  0.00  0.00    +0.000 C 
ATOM      2  O   UNL     1       3.985   7.629  16.964  0.00  0.00    +0.000 OA
ENDROOT
BRANCH   1   3
ATOM      3  C   UNL     1       3.136   5.780  18.177  0.00  0.00    +0.000 A 
ATOM      4  C   UNL     1       1.978   5.021  17.887  0.00  0.00    +0.000 A 
ATOM      5  C   UNL     1       1.907   3.664  18.220  0.00  0.00    +0.000 A 
ATOM      6  C   UNL     1       2.996   3.102  18.849  0.00  0.00    +0.000 A 
ATOM      7  C   UNL     1       4.120   3.836  19.147  0.00  0.00    +0.000 A 
ATOM      8  C   UNL     1       4.224   5.178  18.828  0.00  0.00    +0.000 A 
ATOM      9  O   UNL     1       5.070   3.086  19.770  0.00  0.00    +0.000 OA
ATOM     10  C   UNL     1       4.388   1.819  19.889  0.00  0.00    +0.000 C 
ATOM     11  O   UNL     1       3.098   1.805  19.243  0.00  0.00    +0.000 OA
ENDBRANCH   1   3
BRANCH   1  13
ATOM     12  C   UNL     1       1.986   7.974  19.849  0.00  0.00    +0.000 C 
ATOM     13  C   UNL     1       2.284   8.148  18.551  0.00  0.00    +0.000 C 
BRANCH  12  17
ATOM     14  C   UNL     1      -0.625  10.546  22.115  0.00  0.00    +0.000 A 
ATOM     15  C   UNL     1       0.158   9.579  22.753  0.00  0.00    +0.000 A 
ATOM     16  C   UNL     1       0.996   8.738  22.001  0.00  0.00    +0.000 A 
ATOM     17  C   UNL     1       1.053   8.837  20.604  0.00  0.00    +0.000 A 
ATOM     18  C   UNL     1       0.252   9.803  19.976  0.00  0.00    +0.000 A 
ATOM     19  C   UNL     1      -0.581  10.647  20.723  0.00  0.00    +0.000 A 
BRANCH  14  21
ATOM     20  N   UNL     1      -2.121  12.157  23.499  0.00  0.00    +0.000 NA
ATOM     21  C   UNL     1      -1.452  11.442  22.878  0.00  0.00    +0.000 C 
ENDBRANCH  14  21
ENDBRANCH  12  17
ENDBRANCH   1  13
TORSDOF 4
ENDMDL
MODEL 9
REMARK VINA RESULT:      -7.0      5.173      6.677
REMARK  Name = 
REMARK  4 active torsions:
REMARK  status: ('A' for Active; 'I' for Inactive)
REMARK    1  A    between atoms: C_2  and  C_3
REMARK    2  A    between atoms: C_6  and  C_7
REMARK    3  A    between atoms: C_8  and  C_9
REMARK    4  A    between atoms: C_9  and  C_11
REMARK                            x       y       z     vdW  Elec       q    Type
REMARK                         _______ _______ _______ _____ _____    ______ ____
ROOT
ATOM      1  C   UNL     1       5.186   4.691  18.827  0.00  0.00    +0.000 C 
ATOM      2  O   UNL     1       5.612   3.890  19.649  0.00  0.00    +0.000 OA
ENDROOT
BRANCH   1   3
ATOM      3  C   UNL     1       5.495   4.539  17.374  0.00  0.00    +0.000 A 
ATOM      4  C   UNL     1       4.729   3.677  16.554  0.00  0.00    +0.000 A 
ATOM      5  C   UNL     1       5.023   3.533  15.193  0.00  0.00    +0.000 A 
ATOM      6  C   UNL     1       6.087   4.247  14.689  0.00  0.00    +0.000 A 
ATOM      7  C   UNL     1       6.845   5.076  15.484  0.00  0.00    +0.000 A 
ATOM      8  C   UNL     1       6.579   5.244  16.830  0.00  0.00    +0.000 A 
ATOM      9  O   UNL     1       7.847   5.678  14.785  0.00  0.00    +0.000 OA
ATOM     10  C   UNL     1       7.671   5.081  13.481  0.00  0.00    +0.000 C 
ATOM     11  O   UNL     1       6.512   4.226  13.398  0.00  0.00    +0.000 OA
ENDBRANCH   1   3
BRANCH   1  13
ATOM     12  C   UNL     1       3.296   6.266  18.508  0.00  0.00    +0.000 C 
ATOM     13  C   UNL     1       4.367   5.877  19.220  0.00  0.00    +0.000 C 
BRANCH  12  17
ATOM     14  C   UNL     1       0.793   9.661  19.386  0.00  0.00    +0.000 A 
ATOM     15  C   UNL     1       1.311   9.467  18.102  0.00  0.00    +0.000 A 
ATOM     16  C   UNL     1       2.136   8.362  17.832  0.00  0.00    +0.000 A 
ATOM     17  C   UNL     1       2.470   7.446  18.839  0.00  0.00    +0.000 A 
ATOM     18  C   UNL     1       1.954   7.662  20.126  0.00  0.00    +0.000 A 
ATOM     19  C   UNL     1       1.127   8.760  20.398  0.00  0.00    +0.000 A 
BRANCH  14  21
ATOM     20  N   UNL     1      -0.805  11.645  19.891  0.00  0.00    +0.000 NA
ATOM     21  C   UNL     1      -0.089  10.763  19.663  0.00  0.00    +0.000 C 
ENDBRANCH  14  21
ENDBRANCH  12  17
ENDBRANCH   1  13
TORSDOF 4
ENDMDL
