MODEL 1
REMARK VINA RESULT:      -7.8      0.000      0.000
REMARK  Name = 
REMARK  10 active torsions:
REMARK  status: ('A' for Active; 'I' for Inactive)
REMARK    1  A    between atoms: C_2  and  C_3
REMARK    2  A    between atoms: C_3  and  N_4
REMARK    3  A    between atoms: C_7  and  C_8
REMARK    4  A    between atoms: N_10  and  C_11
REMARK    5  A    between atoms: C_14  and  C_15
REMARK    6  A    between atoms: C_15  and  O_17
REMARK    7  A    between atoms: O_17  and  C_18
REMARK    8  A    between atoms: C_18  and  C_19
REMARK    9  A    between atoms: C_19  and  C_20
REMARK   10  A    between atoms: C_23  and  O_24
REMARK                            x       y       z     vdW  Elec       q    Type
REMARK                         _______ _______ _______ _____ _____    ______ ____
ROOT
ATOM      1  N   UNL     1      -0.487  10.562  19.020  0.00  0.00    +0.000 N 
ATOM      2  C   UNL     1       0.470   9.621  18.634  0.00  0.00    +0.000 A 
ATOM      3  O   UNL     1       0.771   9.411  17.454  0.00  0.00    +0.000 OA
ATOM      4  C   UNL     1       1.142   8.819  19.695  0.00  0.00    +0.000 A 
ATOM      5  C   UNL     1       0.846   9.049  20.991  0.00  0.00    +0.000 A 
ATOM      6  C   UNL     1      -0.106  10.093  21.384  0.00  0.00    +0.000 A 
ATOM      7  C   UNL     1      -0.355  10.350  22.746  0.00  0.00    +0.000 A 
ATOM      8  C   UNL     1      -1.233  11.357  23.136  0.00  0.00    +0.000 A 
ATOM      9  C   UNL     1      -1.875  12.112  22.166  0.00  0.00    +0.000 A 
ATOM     10  C   UNL     1      -1.646  11.854  20.810  0.00  0.00    +0.000 A 
ATOM     11  C   UNL     1      -0.759  10.844  20.398  0.00  0.00    +0.000 A 
ENDROOT
BRANCH   4  12
ATOM     12  C   UNL     1       2.148   7.743  19.401  0.00  0.00    +0.000 C 
ATOM     13  O   UNL     1       2.473   6.991  20.324  0.00  0.00    +0.000 OA
ATOM     14  N   UNL     1       2.702   7.696  18.137  0.00  0.00    +0.000 N 
ATOM     15  H   UNL     1       2.452   8.446  17.490  0.00  0.00    +0.000 HD
BRANCH  14  16
ATOM     16  C   UNL     1       3.722   6.792  17.745  0.00  0.00    +0.000 A 
ATOM     17  C   UNL     1       5.052   7.188  17.580  0.00  0.00    +0.000 A 
ATOM     18  C   UNL     1       6.004   6.329  17.037  0.00  0.00    +0.000 A 
ATOM     19  C   UNL     1       5.647   5.032  16.660  0.00  0.00    +0.000 A 
ATOM     20  C   UNL     1       4.341   4.589  16.911  0.00  0.00    +0.000 A 
ATOM     21  C   UNL     1       3.385   5.463  17.464  0.00  0.00    +0.000 A 
BRANCH  19  22
ATOM     22  C   UNL     1       6.670   4.242  15.919  0.00  0.00    +0.000 C 
ATOM     23  O   UNL     1       7.861   4.272  16.192  0.00  0.00    +0.000 OA
BRANCH  22  24
ATOM     24  O   UNL     1       6.118   3.637  14.840  0.00  0.00    +0.000 OA
BRANCH  24  25
ATOM     25  C   UNL     1       6.476   4.214  13.575  0.00  0.00    +0.000 C 
BRANCH  25  26
ATOM     26  C   UNL     1       6.219   3.259  12.418  0.00  0.00    +0.000 C 
ATOM     27  C   UNL     1       4.781   3.387  11.935  0.00  0.00    +0.000 C 
ENDBRANCH  25  26
ENDBRANCH  24  25
ENDBRANCH  22  24
ENDBRANCH  19  22
ENDBRANCH  14  16
ENDBRANCH   4  12
BRANCH   5  28
ATOM     28  O   UNL     1       1.393   8.360  22.065  0.00  0.00    +0.000 OA
ATOM     29  H   UNL     1       1.148   7.409  21.988  0.00  0.00    +0.000 HD
ENDBRANCH   5  28
BRANCH   1  30
ATOM     30  C   UNL     1      -1.209  11.258  17.961  0.00  0.00    +0.000 C 
BRANCH  30  32
ATOM     31  C   UNL     1      -3.535  10.521  17.366  0.00  0.00    +0.000 C 
ATOM     32  C   UNL     1      -2.209  10.334  17.327  0.00  0.00    +0.000 C 
ENDBRANCH  30  32
ENDBRANCH   1  30
TORSDOF 9
ENDMDL
MODEL 2
REMARK VINA RESULT:      -7.7      2.902     10.026
REMARK  Name = 
REMARK  10 active torsions:
REMARK  status: ('A' for Active; 'I' for Inactive)
REMARK    1  A    between atoms: C_2  and  C_3
REMARK    2  A    between atoms: C_3  and  N_4
REMARK    3  A    between atoms: C_7  and  C_8
REMARK    4  A    between atoms: N_10  and  C_11
REMARK    5  A    between atoms: C_14  and  C_15
REMARK    6  A    between atoms: C_15  and  O_17
REMARK    7  A    between atoms: O_17  and  C_18
REMARK    8  A    between atoms: C_18  and  C_19
REMARK    9  A    between atoms: C_19  and  C_20
REMARK   10  A    between atoms: C_23  and  O_24
REMARK                            x       y       z     vdW  Elec       q    Type
REMARK                         _______ _______ _______ _____ _____    ______ ____
ROOT
ATOM      1  N   UNL     1       3.338   4.744  19.226  0.00  0.00    +0.000 N 
ATOM      2  C   UNL     1       2.543   5.729  19.816  0.00  0.00    +0.000 A 
ATOM      3  O   UNL     1       1.908   5.546  20.860  0.00  0.00    +0.000 OA
ATOM      4  C   UNL     1       2.442   7.054  19.143  0.00  0.00    +0.000 A 
ATOM      5  C   UNL     1       3.148   7.284  18.015  0.00  0.00    +0.000 A 
ATOM      6  C   UNL     1       4.037   6.264  17.449  0.00  0.00    +0.000 A 
ATOM      7  C   UNL     1       4.804   6.548  16.304  0.00  0.00    +0.000 A 
ATOM      8  C   UNL     1       5.674   5.602  15.771  0.00  0.00    +0.000 A 
ATOM      9  C   UNL     1       5.780   4.359  16.377  0.00  0.00    +0.000 A 
ATOM     10  C   UNL     1       5.011   4.061  17.507  0.00  0.00    +0.000 A 
ATOM     11  C   UNL     1       4.129   5.007  18.061  0.00  0.00    +0.000 A 
ENDROOT
BRANCH   4  12
ATOM     12  C   UNL     1       1.580   8.173  19.653  0.00  0.00    +0.000 C 
ATOM     13  O   UNL     1       1.027   8.899  18.822  0.00  0.00    +0.000 OA
ATOM     14  N   UNL     1       1.506   8.370  21.017  0.00  0.00    +0.000 N 
ATOM     15  H   UNL     1       2.104   7.788  21.605  0.00  0.00    +0.000 HD
BRANCH  14  16
ATOM     16  C   UNL     1       0.802   9.435  21.634  0.00  0.00    +0.000 A 
ATOM     17  C   UNL     1      -0.036   9.241  22.736  0.00  0.00    +0.000 A 
ATOM     18  C   UNL     1      -0.844  10.265  23.224  0.00  0.00    +0.000 A 
ATOM     19  C   UNL     1      -0.819  11.527  22.624  0.00  0.00    +0.000 A 
ATOM     20  C   UNL     1       0.087  11.763  21.581  0.00  0.00    +0.000 A 
ATOM     21  C   UNL     1       0.904  10.723  21.097  0.00  0.00    +0.000 A 
BRANCH  19  22
ATOM     22  C   UNL     1      -1.843  12.508  23.080  0.00  0.00    +0.000 C 
ATOM     23  O   UNL     1      -1.559  13.552  23.648  0.00  0.00    +0.000 OA
BRANCH  22  24
ATOM     24  O   UNL     1      -3.091  12.007  22.918  0.00  0.00    +0.000 OA
BRANCH  24  25
ATOM     25  C   UNL     1      -4.120  12.702  23.640  0.00  0.00    +0.000 C 
BRANCH  25  26
ATOM     26  C   UNL     1      -4.965  13.579  22.727  0.00  0.00    +0.000 C 
ATOM     27  C   UNL     1      -5.677  12.728  21.685  0.00  0.00    +0.000 C 
ENDBRANCH  25  26
ENDBRANCH  24  25
ENDBRANCH  22  24
ENDBRANCH  19  22
ENDBRANCH  14  16
ENDBRANCH   4  12
BRANCH   5  28
ATOM     28  O   UNL     1       3.125   8.468  17.292  0.00  0.00    +0.000 OA
ATOM     29  H   UNL     1       2.426   9.053  17.665  0.00  0.00    +0.000 HD
ENDBRANCH   5  28
BRANCH   1  30
ATOM     30  C   UNL     1       3.337   3.422  19.843  0.00  0.00    +0.000 C 
BRANCH  30  32
ATOM     31  C   UNL     1       1.342   3.015  18.373  0.00  0.00    +0.000 C 
ATOM     32  C   UNL     1       2.284   2.559  19.209  0.00  0.00    +0.000 C 
ENDBRANCH  30  32
ENDBRANCH   1  30
TORSDOF 9
ENDMDL
MODEL 3
REMARK VINA RESULT:      -7.6      2.909     10.240
REMARK  Name = 
REMARK  10 active torsions:
REMARK  status: ('A' for Active; 'I' for Inactive)
REMARK    1  A    between atoms: C_2  and  C_3
REMARK    2  A    between atoms: C_3  and  N_4
REMARK    3  A    between atoms: C_7  and  C_8
REMARK    4  A    between atoms: N_10  and  C_11
REMARK    5  A    between atoms: C_14  and  C_15
REMARK    6  A    between atoms: C_15  and  O_17
REMARK    7  A    between atoms: O_17  and  C_18
REMARK    8  A    between atoms: C_18  and  C_19
REMARK    9  A    between atoms: C_19  and  C_20
REMARK   10  A    between atoms: C_23  and  O_24
REMARK                            x       y       z     vdW  Elec       q    Type
REMARK                         _______ _______ _______ _____ _____    ______ ____
ROOT
ATOM      1  N   UNL     1       3.220   4.830  19.141  0.00  0.00    +0.000 N 
ATOM      2  C   UNL     1       2.422   5.811  19.735  0.00  0.00    +0.000 A 
ATOM      3  O   UNL     1       1.750   5.608  20.752  0.00  0.00    +0.000 OA
ATOM      4  C   UNL     1       2.365   7.157  19.099  0.00  0.00    +0.000 A 
ATOM      5  C   UNL     1       3.110   7.407  18.002  0.00  0.00    +0.000 A 
ATOM      6  C   UNL     1       4.001   6.389  17.435  0.00  0.00    +0.000 A 
ATOM      7  C   UNL     1       4.810   6.694  16.323  0.00  0.00    +0.000 A 
ATOM      8  C   UNL     1       5.681   5.749  15.790  0.00  0.00    +0.000 A 
ATOM      9  C   UNL     1       5.747   4.487  16.362  0.00  0.00    +0.000 A 
ATOM     10  C   UNL     1       4.936   4.169  17.458  0.00  0.00    +0.000 A 
ATOM     11  C   UNL     1       4.053   5.114  18.011  0.00  0.00    +0.000 A 
ENDROOT
BRANCH   4  12
ATOM     12  C   UNL     1       1.505   8.275  19.614  0.00  0.00    +0.000 C 
ATOM     13  O   UNL     1       0.987   9.032  18.788  0.00  0.00    +0.000 OA
ATOM     14  N   UNL     1       1.394   8.436  20.981  0.00  0.00    +0.000 N 
ATOM     15  H   UNL     1       1.966   7.830  21.570  0.00  0.00    +0.000 HD
BRANCH  14  16
ATOM     16  C   UNL     1       0.688   9.495  21.606  0.00  0.00    +0.000 A 
ATOM     17  C   UNL     1      -0.129   9.296  22.722  0.00  0.00    +0.000 A 
ATOM     18  C   UNL     1      -0.941  10.312  23.220  0.00  0.00    +0.000 A 
ATOM     19  C   UNL     1      -0.940  11.572  22.616  0.00  0.00    +0.000 A 
ATOM     20  C   UNL     1      -0.054  11.815  21.557  0.00  0.00    +0.000 A 
ATOM     21  C   UNL     1       0.767  10.783  21.063  0.00  0.00    +0.000 A 
BRANCH  19  22
ATOM     22  C   UNL     1      -1.967  12.543  23.086  0.00  0.00    +0.000 C 
ATOM     23  O   UNL     1      -3.076  12.204  23.474  0.00  0.00    +0.000 OA
BRANCH  22  24
ATOM     24  O   UNL     1      -1.555  13.816  22.873  0.00  0.00    +0.000 OA
BRANCH  24  25
ATOM     25  C   UNL     1      -1.194  14.540  24.060  0.00  0.00    +0.000 C 
BRANCH  25  26
ATOM     26  C   UNL     1      -2.378  15.292  24.652  0.00  0.00    +0.000 C 
ATOM     27  C   UNL     1      -1.978  16.719  25.001  0.00  0.00    +0.000 C 
ENDBRANCH  25  26
ENDBRANCH  24  25
ENDBRANCH  22  24
ENDBRANCH  19  22
ENDBRANCH  14  16
ENDBRANCH   4  12
BRANCH   5  28
ATOM     28  O   UNL     1       3.131   8.612  17.314  0.00  0.00    +0.000 OA
ATOM     29  H   UNL     1       4.031   8.744  16.935  0.00  0.00    +0.000 HD
ENDBRANCH   5  28
BRANCH   1  30
ATOM     30  C   UNL     1       3.177   3.491  19.718  0.00  0.00    +0.000 C 
BRANCH  30  32
ATOM     31  C   UNL     1       0.936   2.573  19.052  0.00  0.00    +0.000 C 
ATOM     32  C   UNL     1       2.267   2.611  18.909  0.00  0.00    +0.000 C 
ENDBRANCH  30  32
ENDBRANCH   1  30
TORSDOF 9
ENDMDL
MODEL 4
REMARK VINA RESULT:      -7.5      2.484      9.330
REMARK  Name = 
REMARK  10 active torsions:
REMARK  status: ('A' for Active; 'I' for Inactive)
REMARK    1  A    between atoms: C_2  and  C_3
REMARK    2  A    between atoms: C_3  and  N_4
REMARK    3  A    between atoms: C_7  and  C_8
REMARK    4  A    between atoms: N_10  and  C_11
REMARK    5  A    between atoms: C_14  and  C_15
REMARK    6  A    between atoms: C_15  and  O_17
REMARK    7  A    between atoms: O_17  and  C_18
REMARK    8  A    between atoms: C_18  and  C_19
REMARK    9  A    between atoms: C_19  and  C_20
REMARK   10  A    between atoms: C_23  and  O_24
REMARK                            x       y       z     vdW  Elec       q    Type
REMARK                         _______ _______ _______ _____ _____    ______ ____
ROOT
ATOM      1  N   UNL     1       4.148   5.236  17.410  0.00  0.00    +0.000 N 
ATOM      2  C   UNL     1       3.645   6.507  17.695  0.00  0.00    +0.000 A 
ATOM      3  O   UNL     1       4.048   7.532  17.136  0.00  0.00    +0.000 OA
ATOM      4  C   UNL     1       2.588   6.633  18.737  0.00  0.00    +0.000 A 
ATOM      5  C   UNL     1       2.116   5.523  19.344  0.00  0.00    +0.000 A 
ATOM      6  C   UNL     1       2.601   4.188  18.979  0.00  0.00    +0.000 A 
ATOM      7  C   UNL     1       2.051   3.043  19.587  0.00  0.00    +0.000 A 
ATOM      8  C   UNL     1       2.480   1.768  19.233  0.00  0.00    +0.000 A 
ATOM      9  C   UNL     1       3.467   1.627  18.268  0.00  0.00    +0.000 A 
ATOM     10  C   UNL     1       4.031   2.758  17.669  0.00  0.00    +0.000 A 
ATOM     11  C   UNL     1       3.606   4.055  18.013  0.00  0.00    +0.000 A 
ENDROOT
BRANCH   4  12
ATOM     12  C   UNL     1       2.008   7.950  19.166  0.00  0.00    +0.000 C 
ATOM     13  O   UNL     1       1.893   8.162  20.377  0.00  0.00    +0.000 OA
ATOM     14  N   UNL     1       1.573   8.821  18.188  0.00  0.00    +0.000 N 
ATOM     15  H   UNL     1       1.601   8.489  17.223  0.00  0.00    +0.000 HD
BRANCH  14  16
ATOM     16  C   UNL     1       0.929  10.057  18.447  0.00  0.00    +0.000 A 
ATOM     17  C   UNL     1       1.639  11.234  18.700  0.00  0.00    +0.000 A 
ATOM     18  C   UNL     1       0.996  12.397  19.114  0.00  0.00    +0.000 A 
ATOM     19  C   UNL     1      -0.393  12.416  19.269  0.00  0.00    +0.000 A 
ATOM     20  C   UNL     1      -1.128  11.272  18.926  0.00  0.00    +0.000 A 
ATOM     21  C   UNL     1      -0.469  10.101  18.504  0.00  0.00    +0.000 A 
BRANCH  19  22
ATOM     22  C   UNL     1      -0.984  13.633  19.892  0.00  0.00    +0.000 C 
ATOM     23  O   UNL     1      -0.515  14.752  19.743  0.00  0.00    +0.000 OA
BRANCH  22  24
ATOM     24  O   UNL     1      -1.983  13.298  20.743  0.00  0.00    +0.000 OA
BRANCH  24  25
ATOM     25  C   UNL     1      -1.703  13.546  22.130  0.00  0.00    +0.000 C 
BRANCH  25  26
ATOM     26  C   UNL     1      -1.956  12.317  22.992  0.00  0.00    +0.000 C 
ATOM     27  C   UNL     1      -0.924  11.239  22.693  0.00  0.00    +0.000 C 
ENDBRANCH  25  26
ENDBRANCH  24  25
ENDBRANCH  22  24
ENDBRANCH  19  22
ENDBRANCH  14  16
ENDBRANCH   4  12
BRANCH   5  28
ATOM     28  O   UNL     1       1.146   5.512  20.336  0.00  0.00    +0.000 OA
ATOM     29  H   UNL     1       1.415   4.871  21.034  0.00  0.00    +0.000 HD
ENDBRANCH   5  28
BRANCH   1  30
ATOM     30  C   UNL     1       5.256   5.149  16.465  0.00  0.00    +0.000 C 
BRANCH  30  32
ATOM     31  C   UNL     1       7.114   5.948  17.953  0.00  0.00    +0.000 C 
ATOM     32  C   UNL     1       6.553   4.989  17.206  0.00  0.00    +0.000 C 
ENDBRANCH  30  32
ENDBRANCH   1  30
TORSDOF 9
ENDMDL
MODEL 5
REMARK VINA RESULT:      -7.5      2.785     10.195
REMARK  Name = 
REMARK  10 active torsions:
REMARK  status: ('A' for Active; 'I' for Inactive)
REMARK    1  A    between atoms: C_2  and  C_3
REMARK    2  A    between atoms: C_3  and  N_4
REMARK    3  A    between atoms: C_7  and  C_8
REMARK    4  A    between atoms: N_10  and  C_11
REMARK    5  A    between atoms: C_14  and  C_15
REMARK    6  A    between atoms: C_15  and  O_17
REMARK    7  A    between atoms: O_17  and  C_18
REMARK    8  A    between atoms: C_18  and  C_19
REMARK    9  A    between atoms: C_19  and  C_20
REMARK   10  A    between atoms: C_23  and  O_24
REMARK                            x       y       z     vdW  Elec       q    Type
REMARK                         _______ _______ _______ _____ _____    ______ ____
ROOT
ATOM      1  N   UNL     1       4.071   4.081  19.178  0.00  0.00    +0.000 N 
ATOM      2  C   UNL     1       3.130   4.714  19.994  0.00  0.00    +0.000 A 
ATOM      3  O   UNL     1       2.686   4.207  21.029  0.00  0.00    +0.000 OA
ATOM      4  C   UNL     1       2.625   6.054  19.583  0.00  0.00    +0.000 A 
ATOM      5  C   UNL     1       3.115   6.637  18.468  0.00  0.00    +0.000 A 
ATOM      6  C   UNL     1       4.157   5.992  17.664  0.00  0.00    +0.000 A 
ATOM      7  C   UNL     1       4.691   6.647  16.537  0.00  0.00    +0.000 A 
ATOM      8  C   UNL     1       5.701   6.062  15.779  0.00  0.00    +0.000 A 
ATOM      9  C   UNL     1       6.182   4.812  16.139  0.00  0.00    +0.000 A 
ATOM     10  C   UNL     1       5.649   4.146  17.248  0.00  0.00    +0.000 A 
ATOM     11  C   UNL     1       4.630   4.725  18.027  0.00  0.00    +0.000 A 
ENDROOT
BRANCH   4  12
ATOM     12  C   UNL     1       1.577   6.809  20.349  0.00  0.00    +0.000 C 
ATOM     13  O   UNL     1       0.580   6.187  20.728  0.00  0.00    +0.000 OA
ATOM     14  N   UNL     1       1.752   8.166  20.529  0.00  0.00    +0.000 N 
ATOM     15  H   UNL     1       2.552   8.599  20.064  0.00  0.00    +0.000 HD
BRANCH  14  16
ATOM     16  C   UNL     1       0.807   9.018  21.155  0.00  0.00    +0.000 A 
ATOM     17  C   UNL     1       0.095   9.994  20.452  0.00  0.00    +0.000 A 
ATOM     18  C   UNL     1      -0.703  10.927  21.109  0.00  0.00    +0.000 A 
ATOM     19  C   UNL     1      -0.823  10.893  22.501  0.00  0.00    +0.000 A 
ATOM     20  C   UNL     1      -0.193   9.860  23.211  0.00  0.00    +0.000 A 
ATOM     21  C   UNL     1       0.608   8.918  22.537  0.00  0.00    +0.000 A 
BRANCH  19  22
ATOM     22  C   UNL     1      -1.539  12.031  23.142  0.00  0.00    +0.000 C 
ATOM     23  O   UNL     1      -1.002  13.100  23.391  0.00  0.00    +0.000 OA
BRANCH  22  24
ATOM     24  O   UNL     1      -2.781  11.656  23.533  0.00  0.00    +0.000 OA
BRANCH  24  25
ATOM     25  C   UNL     1      -3.818  12.606  23.245  0.00  0.00    +0.000 C 
BRANCH  25  26
ATOM     26  C   UNL     1      -4.792  12.757  24.406  0.00  0.00    +0.000 C 
ATOM     27  C   UNL     1      -6.216  12.898  23.887  0.00  0.00    +0.000 C 
ENDBRANCH  25  26
ENDBRANCH  24  25
ENDBRANCH  22  24
ENDBRANCH  19  22
ENDBRANCH  14  16
ENDBRANCH   4  12
BRANCH   5  28
ATOM     28  O   UNL     1       2.715   7.872  17.977  0.00  0.00    +0.000 OA
ATOM     29  H   UNL     1       3.483   8.488  18.005  0.00  0.00    +0.000 HD
ENDBRANCH   5  28
BRANCH   1  30
ATOM     30  C   UNL     1       4.471   2.726  19.542  0.00  0.00    +0.000 C 
BRANCH  30  32
ATOM     31  C   UNL     1       2.393   1.760  18.514  0.00  0.00    +0.000 C 
ATOM     32  C   UNL     1       3.717   1.727  18.711  0.00  0.00    +0.000 C 
ENDBRANCH  30  32
ENDBRANCH   1  30
TORSDOF 9
ENDMDL
MODEL 6
REMARK VINA RESULT:      -7.5      2.372      4.099
REMARK  Name = 
REMARK  10 active torsions:
REMARK  status: ('A' for Active; 'I' for Inactive)
REMARK    1  A    between atoms: C_2  and  C_3
REMARK    2  A    between atoms: C_3  and  N_4
REMARK    3  A    between atoms: C_7  and  C_8
REMARK    4  A    between atoms: N_10  and  C_11
REMARK    5  A    between atoms: C_14  and  C_15
REMARK    6  A    between atoms: C_15  and  O_17
REMARK    7  A    between atoms: O_17  and  C_18
REMARK    8  A    between atoms: C_18  and  C_19
REMARK    9  A    between atoms: C_19  and  C_20
REMARK   10  A    between atoms: C_23  and  O_24
REMARK                            x       y       z     vdW  Elec       q    Type
REMARK                         _______ _______ _______ _____ _____    ______ ____
ROOT
ATOM      1  N   UNL     1      -0.958  11.769  20.630  0.00  0.00    +0.000 N 
ATOM      2  C   UNL     1       0.138  10.969  20.300  0.00  0.00    +0.000 A 
ATOM      3  O   UNL     1       1.129  10.849  21.028  0.00  0.00    +0.000 OA
ATOM      4  C   UNL     1       0.119  10.243  18.999  0.00  0.00    +0.000 A 
ATOM      5  C   UNL     1      -0.964  10.341  18.198  0.00  0.00    +0.000 A 
ATOM      6  C   UNL     1      -2.139  11.124  18.594  0.00  0.00    +0.000 A 
ATOM      7  C   UNL     1      -3.277  11.164  17.766  0.00  0.00    +0.000 A 
ATOM      8  C   UNL     1      -4.411  11.879  18.140  0.00  0.00    +0.000 A 
ATOM      9  C   UNL     1      -4.413  12.567  19.345  0.00  0.00    +0.000 A 
ATOM     10  C   UNL     1      -3.281  12.547  20.168  0.00  0.00    +0.000 A 
ATOM     11  C   UNL     1      -2.129  11.826  19.807  0.00  0.00    +0.000 A 
ENDROOT
BRANCH   4  12
ATOM     12  C   UNL     1       1.259   9.396  18.511  0.00  0.00    +0.000 C 
ATOM     13  O   UNL     1       1.836   9.747  17.478  0.00  0.00    +0.000 OA
ATOM     14  N   UNL     1       1.554   8.239  19.204  0.00  0.00    +0.000 N 
ATOM     15  H   UNL     1       0.931   7.983  19.970  0.00  0.00    +0.000 HD
BRANCH  14  16
ATOM     16  C   UNL     1       2.544   7.304  18.810  0.00  0.00    +0.000 A 
ATOM     17  C   UNL     1       2.910   6.217  19.611  0.00  0.00    +0.000 A 
ATOM     18  C   UNL     1       3.994   5.406  19.285  0.00  0.00    +0.000 A 
ATOM     19  C   UNL     1       4.736   5.655  18.127  0.00  0.00    +0.000 A 
ATOM     20  C   UNL     1       4.322   6.680  17.265  0.00  0.00    +0.000 A 
ATOM     21  C   UNL     1       3.221   7.493  17.600  0.00  0.00    +0.000 A 
BRANCH  19  22
ATOM     22  C   UNL     1       5.986   4.866  17.948  0.00  0.00    +0.000 C 
ATOM     23  O   UNL     1       6.184   4.141  16.984  0.00  0.00    +0.000 OA
BRANCH  22  24
ATOM     24  O   UNL     1       6.767   4.949  19.052  0.00  0.00    +0.000 OA
BRANCH  24  25
ATOM     25  C   UNL     1       7.594   6.121  19.120  0.00  0.00    +0.000 C 
BRANCH  25  26
ATOM     26  C   UNL     1       7.845   6.722  17.744  0.00  0.00    +0.000 C 
ATOM     27  C   UNL     1       7.894   8.241  17.830  0.00  0.00    +0.000 C 
ENDBRANCH  25  26
ENDBRANCH  24  25
ENDBRANCH  22  24
ENDBRANCH  19  22
ENDBRANCH  14  16
ENDBRANCH   4  12
BRANCH   5  28
ATOM     28  O   UNL     1      -1.095   9.726  16.961  0.00  0.00    +0.000 OA
ATOM     29  H   UNL     1      -0.865   8.773  17.056  0.00  0.00    +0.000 HD
ENDBRANCH   5  28
BRANCH   1  30
ATOM     30  C   UNL     1      -0.871  12.553  21.857  0.00  0.00    +0.000 C 
BRANCH  30  32
ATOM     31  C   UNL     1      -2.630  12.017  23.567  0.00  0.00    +0.000 C 
ATOM     32  C   UNL     1      -1.439  11.771  23.007  0.00  0.00    +0.000 C 
ENDBRANCH  30  32
ENDBRANCH   1  30
TORSDOF 9
ENDMDL
MODEL 7
REMARK VINA RESULT:      -7.4      2.692     10.149
REMARK  Name = 
REMARK  10 active torsions:
REMARK  status: ('A' for Active; 'I' for Inactive)
REMARK    1  A    between atoms: C_2  and  C_3
REMARK    2  A    between atoms: C_3  and  N_4
REMARK    3  A    between atoms: C_7  and  C_8
REMARK    4  A    between atoms: N_10  and  C_11
REMARK    5  A    between atoms: C_14  and  C_15
REMARK    6  A    between atoms: C_15  and  O_17
REMARK    7  A    between atoms: O_17  and  C_18
REMARK    8  A    between atoms: C_18  and  C_19
REMARK    9  A    between atoms: C_19  and  C_20
REMARK   10  A    between atoms: C_23  and  O_24
REMARK                            x       y       z     vdW  Elec       q    Type
REMARK                         _______ _______ _______ _____ _____    ______ ____
ROOT
ATOM      1  N   UNL     1       2.902   4.911  19.459  0.00  0.00    +0.000 N 
ATOM      2  C   UNL     1       2.200   6.007  19.965  0.00  0.00    +0.000 A 
ATOM      3  O   UNL     1       1.529   5.959  21.001  0.00  0.00    +0.000 OA
ATOM      4  C   UNL     1       2.246   7.288  19.205  0.00  0.00    +0.000 A 
ATOM      5  C   UNL     1       2.992   7.370  18.083  0.00  0.00    +0.000 A 
ATOM      6  C   UNL     1       3.784   6.232  17.607  0.00  0.00    +0.000 A 
ATOM      7  C   UNL     1       4.598   6.361  16.465  0.00  0.00    +0.000 A 
ATOM      8  C   UNL     1       5.378   5.300  16.017  0.00  0.00    +0.000 A 
ATOM      9  C   UNL     1       5.346   4.095  16.706  0.00  0.00    +0.000 A 
ATOM     10  C   UNL     1       4.530   3.952  17.832  0.00  0.00    +0.000 A 
ATOM     11  C   UNL     1       3.738   5.016  18.301  0.00  0.00    +0.000 A 
ENDROOT
BRANCH   4  12
ATOM     12  C   UNL     1       1.491   8.519  19.619  0.00  0.00    +0.000 C 
ATOM     13  O   UNL     1       1.699   9.561  18.991  0.00  0.00    +0.000 OA
ATOM     14  N   UNL     1       0.660   8.435  20.717  0.00  0.00    +0.000 N 
ATOM     15  H   UNL     1       0.660   7.556  21.237  0.00  0.00    +0.000 HD
BRANCH  14  16
ATOM     16  C   UNL     1      -0.046   9.533  21.271  0.00  0.00    +0.000 A 
ATOM     17  C   UNL     1      -0.358  10.675  20.528  0.00  0.00    +0.000 A 
ATOM     18  C   UNL     1      -0.903  11.807  21.128  0.00  0.00    +0.000 A 
ATOM     19  C   UNL     1      -1.170  11.816  22.500  0.00  0.00    +0.000 A 
ATOM     20  C   UNL     1      -0.954  10.645  23.240  0.00  0.00    +0.000 A 
ATOM     21  C   UNL     1      -0.406   9.503  22.623  0.00  0.00    +0.000 A 
BRANCH  19  22
ATOM     22  C   UNL     1      -1.574  13.119  23.098  0.00  0.00    +0.000 C 
ATOM     23  O   UNL     1      -0.835  13.785  23.807  0.00  0.00    +0.000 OA
BRANCH  22  24
ATOM     24  O   UNL     1      -2.888  13.361  22.873  0.00  0.00    +0.000 OA
BRANCH  24  25
ATOM     25  C   UNL     1      -3.655  13.665  24.048  0.00  0.00    +0.000 C 
BRANCH  25  26
ATOM     26  C   UNL     1      -4.447  12.461  24.539  0.00  0.00    +0.000 C 
ATOM     27  C   UNL     1      -5.934  12.666  24.289  0.00  0.00    +0.000 C 
ENDBRANCH  25  26
ENDBRANCH  24  25
ENDBRANCH  22  24
ENDBRANCH  19  22
ENDBRANCH  14  16
ENDBRANCH   4  12
BRANCH   5  28
ATOM     28  O   UNL     1       3.103   8.500  17.284  0.00  0.00    +0.000 OA
ATOM     29  H   UNL     1       2.300   8.566  16.717  0.00  0.00    +0.000 HD
ENDBRANCH   5  28
BRANCH   1  30
ATOM     30  C   UNL     1       2.756   3.640  20.161  0.00  0.00    +0.000 C 
BRANCH  30  32
ATOM     31  C   UNL     1       1.034   2.619  18.645  0.00  0.00    +0.000 C 
ATOM     32  C   UNL     1       1.414   3.038  19.859  0.00  0.00    +0.000 C 
ENDBRANCH  30  32
ENDBRANCH   1  30
TORSDOF 9
ENDMDL
MODEL 8
REMARK VINA RESULT:      -7.4      2.960      4.374
REMARK  Name = 
REMARK  10 active torsions:
REMARK  status: ('A' for Active; 'I' for Inactive)
REMARK    1  A    between atoms: C_2  and  C_3
REMARK    2  A    between atoms: C_3  and  N_4
REMARK    3  A    between atoms: C_7  and  C_8
REMARK    4  A    between atoms: N_10  and  C_11
REMARK    5  A    between atoms: C_14  and  C_15
REMARK    6  A    between atoms: C_15  and  O_17
REMARK    7  A    between atoms: O_17  and  C_18
REMARK    8  A    between atoms: C_18  and  C_19
REMARK    9  A    between atoms: C_19  and  C_20
REMARK   10  A    between atoms: C_23  and  O_24
REMARK                            x       y       z     vdW  Elec       q    Type
REMARK                         _______ _______ _______ _____ _____    ______ ____
ROOT
ATOM      1  N   UNL     1      -0.895  12.330  20.041  0.00  0.00    +0.000 N 
ATOM      2  C   UNL     1      -0.348  11.098  19.675  0.00  0.00    +0.000 A 
ATOM      3  O   UNL     1      -0.865  10.016  19.974  0.00  0.00    +0.000 OA
ATOM      4  C   UNL     1       0.928  11.090  18.907  0.00  0.00    +0.000 A 
ATOM      5  C   UNL     1       1.497  12.260  18.549  0.00  0.00    +0.000 A 
ATOM      6  C   UNL     1       0.871  13.546  18.876  0.00  0.00    +0.000 A 
ATOM      7  C   UNL     1       1.456  14.751  18.442  0.00  0.00    +0.000 A 
ATOM      8  C   UNL     1       0.861  15.977  18.718  0.00  0.00    +0.000 A 
ATOM      9  C   UNL     1      -0.325  16.009  19.438  0.00  0.00    +0.000 A 
ATOM     10  C   UNL     1      -0.907  14.819  19.887  0.00  0.00    +0.000 A 
ATOM     11  C   UNL     1      -0.320  13.570  19.612  0.00  0.00    +0.000 A 
ENDROOT
BRANCH   4  12
ATOM     12  C   UNL     1       1.637   9.830  18.502  0.00  0.00    +0.000 C 
ATOM     13  O   UNL     1       2.027   9.737  17.334  0.00  0.00    +0.000 OA
ATOM     14  N   UNL     1       1.756   8.819  19.435  0.00  0.00    +0.000 N 
ATOM     15  H   UNL     1       1.286   8.955  20.331  0.00  0.00    +0.000 HD
BRANCH  14  16
ATOM     16  C   UNL     1       2.323   7.548  19.169  0.00  0.00    +0.000 A 
ATOM     17  C   UNL     1       2.238   6.484  20.071  0.00  0.00    +0.000 A 
ATOM     18  C   UNL     1       2.939   5.299  19.867  0.00  0.00    +0.000 A 
ATOM     19  C   UNL     1       3.738   5.141  18.731  0.00  0.00    +0.000 A 
ATOM     20  C   UNL     1       3.756   6.161  17.769  0.00  0.00    +0.000 A 
ATOM     21  C   UNL     1       3.040   7.355  17.982  0.00  0.00    +0.000 A 
BRANCH  19  22
ATOM     22  C   UNL     1       4.599   3.926  18.678  0.00  0.00    +0.000 C 
ATOM     23  O   UNL     1       5.605   3.793  19.359  0.00  0.00    +0.000 OA
BRANCH  22  24
ATOM     24  O   UNL     1       4.199   3.100  17.682  0.00  0.00    +0.000 OA
BRANCH  24  25
ATOM     25  C   UNL     1       3.474   1.939  18.116  0.00  0.00    +0.000 C 
BRANCH  25  26
ATOM     26  C   UNL     1       1.970   2.113  17.958  0.00  0.00    +0.000 C 
ATOM     27  C   UNL     1       1.303   2.231  19.321  0.00  0.00    +0.000 C 
ENDBRANCH  25  26
ENDBRANCH  24  25
ENDBRANCH  22  24
ENDBRANCH  19  22
ENDBRANCH  14  16
ENDBRANCH   4  12
BRANCH   5  28
ATOM     28  O   UNL     1       2.688  12.383  17.847  0.00  0.00    +0.000 OA
ATOM     29  H   UNL     1       3.404  12.622  18.480  0.00  0.00    +0.000 HD
ENDBRANCH   5  28
BRANCH   1  30
ATOM     30  C   UNL     1      -2.085  12.312  20.883  0.00  0.00    +0.000 C 
BRANCH  30  32
ATOM     31  C   UNL     1      -2.540  11.937  23.325  0.00  0.00    +0.000 C 
ATOM     32  C   UNL     1      -1.690  12.223  22.330  0.00  0.00    +0.000 C 
ENDBRANCH  30  32
ENDBRANCH   1  30
TORSDOF 9
ENDMDL
MODEL 9
REMARK VINA RESULT:      -7.4      2.832      9.957
REMARK  Name = 
REMARK  10 active torsions:
REMARK  status: ('A' for Active; 'I' for Inactive)
REMARK    1  A    between atoms: C_2  and  C_3
REMARK    2  A    between atoms: C_3  and  N_4
REMARK    3  A    between atoms: C_7  and  C_8
REMARK    4  A    between atoms: N_10  and  C_11
REMARK    5  A    between atoms: C_14  and  C_15
REMARK    6  A    between atoms: C_15  and  O_17
REMARK    7  A    between atoms: O_17  and  C_18
REMARK    8  A    between atoms: C_18  and  C_19
REMARK    9  A    between atoms: C_19  and  C_20
REMARK   10  A    between atoms: C_23  and  O_24
REMARK                            x       y       z     vdW  Elec       q    Type
REMARK                         _______ _______ _______ _____ _____    ______ ____
ROOT
ATOM      1  N   UNL     1       3.224   5.191  19.332  0.00  0.00    +0.000 N 
ATOM      2  C   UNL     1       2.386   6.199  19.815  0.00  0.00    +0.000 A 
ATOM      3  O   UNL     1       1.709   6.078  20.841  0.00  0.00    +0.000 OA
ATOM      4  C   UNL     1       2.289   7.469  19.043  0.00  0.00    +0.000 A 
ATOM      5  C   UNL     1       3.038   7.632  17.932  0.00  0.00    +0.000 A 
ATOM      6  C   UNL     1       3.970   6.593  17.480  0.00  0.00    +0.000 A 
ATOM      7  C   UNL     1       4.781   6.811  16.350  0.00  0.00    +0.000 A 
ATOM      8  C   UNL     1       5.691   5.848  15.925  0.00  0.00    +0.000 A 
ATOM      9  C   UNL     1       5.794   4.655  16.625  0.00  0.00    +0.000 A 
ATOM     10  C   UNL     1       4.983   4.423  17.740  0.00  0.00    +0.000 A 
ATOM     11  C   UNL     1       4.060   5.387  18.186  0.00  0.00    +0.000 A 
ENDROOT
BRANCH   4  12
ATOM     12  C   UNL     1       1.384   8.603  19.433  0.00  0.00    +0.000 C 
ATOM     13  O   UNL     1       0.877   9.272  18.528  0.00  0.00    +0.000 OA
ATOM     14  N   UNL     1       1.223   8.876  20.776  0.00  0.00    +0.000 N 
ATOM     15  H   UNL     1       1.790   8.338  21.433  0.00  0.00    +0.000 HD
BRANCH  14  16
ATOM     16  C   UNL     1       0.470   9.964  21.285  0.00  0.00    +0.000 A 
ATOM     17  C   UNL     1       0.608  11.266  20.795  0.00  0.00    +0.000 A 
ATOM     18  C   UNL     1      -0.015  12.346  21.415  0.00  0.00    +0.000 A 
ATOM     19  C   UNL     1      -0.816  12.144  22.542  0.00  0.00    +0.000 A 
ATOM     20  C   UNL     1      -1.043  10.833  22.986  0.00  0.00    +0.000 A 
ATOM     21  C   UNL     1      -0.412   9.746  22.350  0.00  0.00    +0.000 A 
BRANCH  19  22
ATOM     22  C   UNL     1      -1.293  13.362  23.255  0.00  0.00    +0.000 C 
ATOM     23  O   UNL     1      -0.560  14.299  23.535  0.00  0.00    +0.000 OA
BRANCH  22  24
ATOM     24  O   UNL     1      -2.573  13.204  23.668  0.00  0.00    +0.000 OA
BRANCH  24  25
ATOM     25  C   UNL     1      -3.499  14.171  23.148  0.00  0.00    +0.000 C 
BRANCH  25  26
ATOM     26  C   UNL     1      -3.522  14.179  21.626  0.00  0.00    +0.000 C 
ATOM     27  C   UNL     1      -4.922  13.868  21.116  0.00  0.00    +0.000 C 
ENDBRANCH  25  26
ENDBRANCH  24  25
ENDBRANCH  22  24
ENDBRANCH  19  22
ENDBRANCH  14  16
ENDBRANCH   4  12
BRANCH   5  28
ATOM     28  O   UNL     1       3.025   8.759  17.123  0.00  0.00    +0.000 OA
ATOM     29  H   UNL     1       3.954   8.992  16.890  0.00  0.00    +0.000 HD
ENDBRANCH   5  28
BRANCH   1  30
ATOM     30  C   UNL     1       3.221   3.918  20.044  0.00  0.00    +0.000 C 
BRANCH  30  32
ATOM     31  C   UNL     1       1.112   2.615  20.446  0.00  0.00    +0.000 C 
ATOM     32  C   UNL     1       2.046   3.089  19.611  0.00  0.00    +0.000 C 
ENDBRANCH  30  32
ENDBRANCH   1  30
TORSDOF 9
ENDMDL
