MODEL 1
REMARK VINA RESULT:      -6.8      0.000      0.000
REMARK  Name = 
REMARK  9 active torsions:
REMARK  status: ('A' for Active; 'I' for Inactive)
REMARK    1  A    between atoms: C_1  and  C_2
REMARK    2  A    between atoms: C_6  and  C_7
REMARK    3  A    between atoms: C_7  and  N_8
REMARK    4  A    between atoms: N_8  and  C_9
REMARK    5  A    between atoms: N_8  and  C_10
REMARK    6  A    between atoms: C_10  and  C_11
REMARK    7  A    between atoms: C_10  and  C_12
REMARK    8  A    between atoms: N_14  and  C_15
REMARK    9  A    between atoms: C_15  and  C_16
REMARK                            x       y       z     vdW  Elec       q    Type
REMARK                         _______ _______ _______ _____ _____    ______ ____
ROOT
ATOM      1  C   UNL     1       6.120   5.789  17.815  0.00  0.00    +0.000 C 
ATOM      2  C   UNL     1       6.926   5.535  19.092  0.00  0.00    +0.000 C 
ENDROOT
BRANCH   1   3
ATOM      3  C   UNL     1       6.877   5.154  16.627  0.00  0.00    +0.000 C 
ATOM      4  O   UNL     1       7.853   4.425  16.807  0.00  0.00    +0.000 OA
ATOM      5  N   UNL     1       6.419   5.486  15.369  0.00  0.00    +0.000 N 
ATOM      6  H   UNL     1       5.564   6.018  15.273  0.00  0.00    +0.000 HD
BRANCH   5   7
ATOM      7  C   UNL     1       7.096   4.977  14.192  0.00  0.00    +0.000 C 
BRANCH   7   8
ATOM      8  C   UNL     1       6.398   3.829  13.468  0.00  0.00    +0.000 C 
ATOM      9  C   UNL     1       6.918   3.475  12.087  0.00  0.00    +0.000 C 
ATOM     10  C   UNL     1       5.792   2.595  11.593  0.00  0.00    +0.000 C 
ATOM     11  C   UNL     1       4.562   3.284  12.160  0.00  0.00    +0.000 C 
ATOM     12  O   UNL     1       4.996   4.085  13.273  0.00  0.00    +0.000 OA
ENDBRANCH   7   8
ENDBRANCH   5   7
ENDBRANCH   1   3
BRANCH   1  13
ATOM     13  N   UNL     1       4.702   5.293  17.859  0.00  0.00    +0.000 NA
ATOM     14  C   UNL     1       3.794   6.462  17.805  0.00  0.00    +0.000 C 
BRANCH  13  15
ATOM     15  C   UNL     1       4.453   4.526  19.103  0.00  0.00    +0.000 C 
BRANCH  15  21
ATOM     16  C   UNL     1       1.724   5.188  20.737  0.00  0.00    +0.000 C 
ATOM     17  C   UNL     1       1.964   4.067  19.790  0.00  0.00    +0.000 A 
ATOM     18  N   UNL     1       0.931   3.168  19.566  0.00  0.00    +0.000 NA
ATOM     19  C   UNL     1       1.320   2.246  18.716  0.00  0.00    +0.000 A 
ATOM     20  S   UNL     1       2.915   2.399  18.118  0.00  0.00    +0.000 S 
ATOM     21  C   UNL     1       3.137   3.797  19.099  0.00  0.00    +0.000 A 
ENDBRANCH  15  21
ENDBRANCH  13  15
ENDBRANCH   1  13
TORSDOF 6
ENDMDL
MODEL 2
REMARK VINA RESULT:      -6.6      1.098      1.135
REMARK  Name = 
REMARK  9 active torsions:
REMARK  status: ('A' for Active; 'I' for Inactive)
REMARK    1  A    between atoms: C_1  and  C_2
REMARK    2  A    between atoms: C_6  and  C_7
REMARK    3  A    between atoms: C_7  and  N_8
REMARK    4  A    between atoms: N_8  and  C_9
REMARK    5  A    between atoms: N_8  and  C_10
REMARK    6  A    between atoms: C_10  and  C_11
REMARK    7  A    between atoms: C_10  and  C_12
REMARK    8  A    between atoms: N_14  and  C_15
REMARK    9  A    between atoms: C_15  and  C_16
REMARK                            x       y       z     vdW  Elec       q    Type
REMARK                         _______ _______ _______ _____ _____    ______ ____
ROOT
ATOM      1  C   UNL     1       6.321   5.988  17.796  0.00  0.00    +0.000 C 
ATOM      2  C   UNL     1       6.968   5.553  19.114  0.00  0.00    +0.000 C 
ENDROOT
BRANCH   1   3
ATOM      3  C   UNL     1       7.032   5.252  16.638  0.00  0.00    +0.000 C 
ATOM      4  O   UNL     1       7.942   4.451  16.853  0.00  0.00    +0.000 OA
ATOM      5  N   UNL     1       6.614   5.580  15.365  0.00  0.00    +0.000 N 
ATOM      6  H   UNL     1       5.807   6.178  15.241  0.00  0.00    +0.000 HD
BRANCH   5   7
ATOM      7  C   UNL     1       7.256   4.976  14.213  0.00  0.00    +0.000 C 
BRANCH   7   8
ATOM      8  C   UNL     1       6.475   3.858  13.527  0.00  0.00    +0.000 C 
ATOM      9  C   UNL     1       6.895   3.499  12.113  0.00  0.00    +0.000 C 
ATOM     10  C   UNL     1       5.711   2.660  11.686  0.00  0.00    +0.000 C 
ATOM     11  C   UNL     1       4.543   3.385  12.334  0.00  0.00    +0.000 C 
ATOM     12  O   UNL     1       5.073   4.162  13.422  0.00  0.00    +0.000 OA
ENDBRANCH   7   8
ENDBRANCH   5   7
ENDBRANCH   1   3
BRANCH   1  13
ATOM     13  N   UNL     1       4.836   5.770  17.723  0.00  0.00    +0.000 NA
ATOM     14  C   UNL     1       4.187   7.061  17.402  0.00  0.00    +0.000 C 
BRANCH  13  15
ATOM     15  C   UNL     1       4.317   5.259  19.015  0.00  0.00    +0.000 C 
BRANCH  15  21
ATOM     16  C   UNL     1       1.465   4.524  17.643  0.00  0.00    +0.000 C 
ATOM     17  C   UNL     1       2.414   3.597  18.313  0.00  0.00    +0.000 A 
ATOM     18  N   UNL     1       2.068   2.255  18.397  0.00  0.00    +0.000 NA
ATOM     19  C   UNL     1       3.012   1.591  19.023  0.00  0.00    +0.000 A 
ATOM     20  S   UNL     1       4.368   2.503  19.527  0.00  0.00    +0.000 S 
ATOM     21  C   UNL     1       3.631   3.926  18.895  0.00  0.00    +0.000 A 
ENDBRANCH  15  21
ENDBRANCH  13  15
ENDBRANCH   1  13
TORSDOF 6
ENDMDL
MODEL 3
REMARK VINA RESULT:      -6.5      1.028      1.028
REMARK  Name = 
REMARK  9 active torsions:
REMARK  status: ('A' for Active; 'I' for Inactive)
REMARK    1  A    between atoms: C_1  and  C_2
REMARK    2  A    between atoms: C_6  and  C_7
REMARK    3  A    between atoms: C_7  and  N_8
REMARK    4  A    between atoms: N_8  and  C_9
REMARK    5  A    between atoms: N_8  and  C_10
REMARK    6  A    between atoms: C_10  and  C_11
REMARK    7  A    between atoms: C_10  and  C_12
REMARK    8  A    between atoms: N_14  and  C_15
REMARK    9  A    between atoms: C_15  and  C_16
REMARK                            x       y       z     vdW  Elec       q    Type
REMARK                         _______ _______ _______ _____ _____    ______ ____
ROOT
ATOM      1  C   UNL     1       5.734   5.670  17.385  0.00  0.00    +0.000 C 
ATOM      2  C   UNL     1       6.793   4.739  17.982  0.00  0.00    +0.000 C 
ENDROOT
BRANCH   1   3
ATOM      3  C   UNL     1       5.917   5.698  15.851  0.00  0.00    +0.000 C 
ATOM      4  O   UNL     1       5.324   6.519  15.151  0.00  0.00    +0.000 OA
ATOM      5  N   UNL     1       6.744   4.728  15.322  0.00  0.00    +0.000 N 
ATOM      6  H   UNL     1       7.275   4.131  15.943  0.00  0.00    +0.000 HD
BRANCH   5   7
ATOM      7  C   UNL     1       6.939   4.645  13.888  0.00  0.00    +0.000 C 
BRANCH   7   8
ATOM      8  C   UNL     1       6.147   3.553  13.172  0.00  0.00    +0.000 C 
ATOM      9  C   UNL     1       6.784   2.946  11.936  0.00  0.00    +0.000 C 
ATOM     10  C   UNL     1       5.595   2.219  11.350  0.00  0.00    +0.000 C 
ATOM     11  C   UNL     1       4.449   3.175  11.637  0.00  0.00    +0.000 C 
ATOM     12  O   UNL     1       4.862   4.022  12.725  0.00  0.00    +0.000 OA
ENDBRANCH   7   8
ENDBRANCH   5   7
ENDBRANCH   1   3
BRANCH   1  13
ATOM     13  N   UNL     1       4.316   5.317  17.738  0.00  0.00    +0.000 NA
ATOM     14  C   UNL     1       3.608   6.555  18.136  0.00  0.00    +0.000 C 
BRANCH  13  15
ATOM     15  C   UNL     1       4.281   4.342  18.854  0.00  0.00    +0.000 C 
BRANCH  15  21
ATOM     16  C   UNL     1       1.940   4.857  21.047  0.00  0.00    +0.000 C 
ATOM     17  C   UNL     1       1.940   3.868  19.937  0.00  0.00    +0.000 A 
ATOM     18  N   UNL     1       0.836   3.038  19.800  0.00  0.00    +0.000 NA
ATOM     19  C   UNL     1       1.011   2.230  18.781  0.00  0.00    +0.000 A 
ATOM     20  S   UNL     1       2.474   2.415  17.916  0.00  0.00    +0.000 S 
ATOM     21  C   UNL     1       2.949   3.659  19.007  0.00  0.00    +0.000 A 
ENDBRANCH  15  21
ENDBRANCH  13  15
ENDBRANCH   1  13
TORSDOF 6
ENDMDL
MODEL 4
REMARK VINA RESULT:      -6.4      1.270      1.554
REMARK  Name = 
REMARK  9 active torsions:
REMARK  status: ('A' for Active; 'I' for Inactive)
REMARK    1  A    between atoms: C_1  and  C_2
REMARK    2  A    between atoms: C_6  and  C_7
REMARK    3  A    between atoms: C_7  and  N_8
REMARK    4  A    between atoms: N_8  and  C_9
REMARK    5  A    between atoms: N_8  and  C_10
REMARK    6  A    between atoms: C_10  and  C_11
REMARK    7  A    between atoms: C_10  and  C_12
REMARK    8  A    between atoms: N_14  and  C_15
REMARK    9  A    between atoms: C_15  and  C_16
REMARK                            x       y       z     vdW  Elec       q    Type
REMARK                         _______ _______ _______ _____ _____    ______ ____
ROOT
ATOM      1  C   UNL     1       6.259   5.747  17.675  0.00  0.00    +0.000 C 
ATOM      2  C   UNL     1       7.307   5.980  18.768  0.00  0.00    +0.000 C 
ENDROOT
BRANCH   1   3
ATOM      3  C   UNL     1       6.960   5.104  16.457  0.00  0.00    +0.000 C 
ATOM      4  O   UNL     1       7.892   4.312  16.601  0.00  0.00    +0.000 OA
ATOM      5  N   UNL     1       6.506   5.503  15.217  0.00  0.00    +0.000 N 
ATOM      6  H   UNL     1       5.684   6.089  15.150  0.00  0.00    +0.000 HD
BRANCH   5   7
ATOM      7  C   UNL     1       7.135   4.990  14.015  0.00  0.00    +0.000 C 
BRANCH   7   8
ATOM      8  C   UNL     1       6.431   3.812  13.347  0.00  0.00    +0.000 C 
ATOM      9  C   UNL     1       6.942   3.396  11.980  0.00  0.00    +0.000 C 
ATOM     10  C   UNL     1       5.812   2.497  11.533  0.00  0.00    +0.000 C 
ATOM     11  C   UNL     1       4.586   3.213  12.075  0.00  0.00    +0.000 C 
ATOM     12  O   UNL     1       5.028   4.062  13.149  0.00  0.00    +0.000 OA
ENDBRANCH   7   8
ENDBRANCH   5   7
ENDBRANCH   1   3
BRANCH   1  13
ATOM     13  N   UNL     1       5.082   4.916  18.102  0.00  0.00    +0.000 NA
ATOM     14  C   UNL     1       3.982   5.127  17.134  0.00  0.00    +0.000 C 
BRANCH  13  15
ATOM     15  C   UNL     1       4.632   5.304  19.461  0.00  0.00    +0.000 C 
BRANCH  15  21
ATOM     16  C   UNL     1       4.289   2.100  19.880  0.00  0.00    +0.000 C 
ATOM     17  C   UNL     1       3.274   3.159  20.120  0.00  0.00    +0.000 A 
ATOM     18  N   UNL     1       2.015   2.772  20.558  0.00  0.00    +0.000 NA
ATOM     19  C   UNL     1       1.251   3.829  20.708  0.00  0.00    +0.000 A 
ATOM     20  S   UNL     1       1.977   5.338  20.362  0.00  0.00    +0.000 S 
ATOM     21  C   UNL     1       3.435   4.526  19.936  0.00  0.00    +0.000 A 
ENDBRANCH  15  21
ENDBRANCH  13  15
ENDBRANCH   1  13
TORSDOF 6
ENDMDL
MODEL 5
REMARK VINA RESULT:      -6.4      1.113      1.287
REMARK  Name = 
REMARK  9 active torsions:
REMARK  status: ('A' for Active; 'I' for Inactive)
REMARK    1  A    between atoms: C_1  and  C_2
REMARK    2  A    between atoms: C_6  and  C_7
REMARK    3  A    between atoms: C_7  and  N_8
REMARK    4  A    between atoms: N_8  and  C_9
REMARK    5  A    between atoms: N_8  and  C_10
REMARK    6  A    between atoms: C_10  and  C_11
REMARK    7  A    between atoms: C_10  and  C_12
REMARK    8  A    between atoms: N_14  and  C_15
REMARK    9  A    between atoms: C_15  and  C_16
REMARK                            x       y       z     vdW  Elec       q    Type
REMARK                         _______ _______ _______ _____ _____    ______ ____
ROOT
ATOM      1  C   UNL     1       6.449   6.213  17.230  0.00  0.00    +0.000 C 
ATOM      2  C   UNL     1       7.585   6.721  18.122  0.00  0.00    +0.000 C 
ENDROOT
BRANCH   1   3
ATOM      3  C   UNL     1       7.054   5.293  16.146  0.00  0.00    +0.000 C 
ATOM      4  O   UNL     1       7.894   4.438  16.429  0.00  0.00    +0.000 OA
ATOM      5  N   UNL     1       6.629   5.520  14.853  0.00  0.00    +0.000 N 
ATOM      6  H   UNL     1       5.877   6.174  14.681  0.00  0.00    +0.000 HD
BRANCH   5   7
ATOM      7  C   UNL     1       7.179   4.738  13.761  0.00  0.00    +0.000 C 
BRANCH   7   8
ATOM      8  C   UNL     1       6.267   3.652  13.197  0.00  0.00    +0.000 C 
ATOM      9  C   UNL     1       6.744   2.943  11.943  0.00  0.00    +0.000 C 
ATOM     10  C   UNL     1       5.468   2.249  11.524  0.00  0.00    +0.000 C 
ATOM     11  C   UNL     1       4.404   3.280  11.865  0.00  0.00    +0.000 C 
ATOM     12  O   UNL     1       4.967   4.163  12.851  0.00  0.00    +0.000 OA
ENDBRANCH   7   8
ENDBRANCH   5   7
ENDBRANCH   1   3
BRANCH   1  13
ATOM     13  N   UNL     1       5.344   5.504  17.962  0.00  0.00    +0.000 NA
ATOM     14  C   UNL     1       5.894   4.950  19.220  0.00  0.00    +0.000 C 
BRANCH  13  15
ATOM     15  C   UNL     1       4.786   4.407  17.136  0.00  0.00    +0.000 C 
BRANCH  15  21
ATOM     16  C   UNL     1       2.018   5.826  18.075  0.00  0.00    +0.000 C 
ATOM     17  C   UNL     1       2.360   4.380  18.131  0.00  0.00    +0.000 A 
ATOM     18  N   UNL     1       1.418   3.505  18.655  0.00  0.00    +0.000 NA
ATOM     19  C   UNL     1       1.889   2.280  18.635  0.00  0.00    +0.000 A 
ATOM     20  S   UNL     1       3.456   2.087  17.978  0.00  0.00    +0.000 S 
ATOM     21  C   UNL     1       3.548   3.788  17.725  0.00  0.00    +0.000 A 
ENDBRANCH  15  21
ENDBRANCH  13  15
ENDBRANCH   1  13
TORSDOF 6
ENDMDL
MODEL 6
REMARK VINA RESULT:      -6.2      3.494      7.373
REMARK  Name = 
REMARK  9 active torsions:
REMARK  status: ('A' for Active; 'I' for Inactive)
REMARK    1  A    between atoms: C_1  and  C_2
REMARK    2  A    between atoms: C_6  and  C_7
REMARK    3  A    between atoms: C_7  and  N_8
REMARK    4  A    between atoms: N_8  and  C_9
REMARK    5  A    between atoms: N_8  and  C_10
REMARK    6  A    between atoms: C_10  and  C_11
REMARK    7  A    between atoms: C_10  and  C_12
REMARK    8  A    between atoms: N_14  and  C_15
REMARK    9  A    between atoms: C_15  and  C_16
REMARK                            x       y       z     vdW  Elec       q    Type
REMARK                         _______ _______ _______ _____ _____    ______ ____
ROOT
ATOM      1  C   UNL     1       2.580   3.935  19.714  0.00  0.00    +0.000 C 
ATOM      2  C   UNL     1       2.424   4.060  21.233  0.00  0.00    +0.000 C 
ENDROOT
BRANCH   1   3
ATOM      3  C   UNL     1       2.299   5.315  19.080  0.00  0.00    +0.000 C 
ATOM      4  O   UNL     1       2.053   5.428  17.879  0.00  0.00    +0.000 OA
ATOM      5  N   UNL     1       2.382   6.400  19.928  0.00  0.00    +0.000 N 
ATOM      6  H   UNL     1       2.503   6.250  20.922  0.00  0.00    +0.000 HD
BRANCH   5   7
ATOM      7  C   UNL     1       2.182   7.741  19.413  0.00  0.00    +0.000 C 
BRANCH   7   8
ATOM      8  C   UNL     1       1.462   8.711  20.346  0.00  0.00    +0.000 C 
ATOM      9  C   UNL     1       0.600   8.099  21.435  0.00  0.00    +0.000 C 
ATOM     10  C   UNL     1      -0.181   9.316  21.875  0.00  0.00    +0.000 C 
ATOM     11  C   UNL     1      -0.423  10.046  20.564  0.00  0.00    +0.000 C 
ATOM     12  O   UNL     1       0.575   9.590  19.632  0.00  0.00    +0.000 OA
ENDBRANCH   7   8
ENDBRANCH   5   7
ENDBRANCH   1   3
BRANCH   1  13
ATOM     13  N   UNL     1       3.914   3.411  19.261  0.00  0.00    +0.000 NA
ATOM     14  C   UNL     1       4.293   2.274  20.132  0.00  0.00    +0.000 C 
BRANCH  13  15
ATOM     15  C   UNL     1       4.949   4.469  19.344  0.00  0.00    +0.000 C 
BRANCH  15  21
ATOM     16  C   UNL     1       7.927   5.717  18.980  0.00  0.00    +0.000 C 
ATOM     17  C   UNL     1       7.069   5.099  17.935  0.00  0.00    +0.000 A 
ATOM     18  N   UNL     1       7.557   5.047  16.636  0.00  0.00    +0.000 NA
ATOM     19  C   UNL     1       6.670   4.481  15.851  0.00  0.00    +0.000 A 
ATOM     20  S   UNL     1       5.224   3.959  16.601  0.00  0.00    +0.000 S 
ATOM     21  C   UNL     1       5.797   4.569  18.106  0.00  0.00    +0.000 A 
ENDBRANCH  15  21
ENDBRANCH  13  15
ENDBRANCH   1  13
TORSDOF 6
ENDMDL
MODEL 7
REMARK VINA RESULT:      -6.2      1.205      1.552
REMARK  Name = 
REMARK  9 active torsions:
REMARK  status: ('A' for Active; 'I' for Inactive)
REMARK    1  A    between atoms: C_1  and  C_2
REMARK    2  A    between atoms: C_6  and  C_7
REMARK    3  A    between atoms: C_7  and  N_8
REMARK    4  A    between atoms: N_8  and  C_9
REMARK    5  A    between atoms: N_8  and  C_10
REMARK    6  A    between atoms: C_10  and  C_11
REMARK    7  A    between atoms: C_10  and  C_12
REMARK    8  A    between atoms: N_14  and  C_15
REMARK    9  A    between atoms: C_15  and  C_16
REMARK                            x       y       z     vdW  Elec       q    Type
REMARK                         _______ _______ _______ _____ _____    ______ ____
ROOT
ATOM      1  C   UNL     1       6.434   5.713  18.025  0.00  0.00    +0.000 C 
ATOM      2  C   UNL     1       7.414   4.851  18.826  0.00  0.00    +0.000 C 
ENDROOT
BRANCH   1   3
ATOM      3  C   UNL     1       6.930   5.784  16.563  0.00  0.00    +0.000 C 
ATOM      4  O   UNL     1       7.689   6.679  16.188  0.00  0.00    +0.000 OA
ATOM      5  N   UNL     1       6.440   4.818  15.710  0.00  0.00    +0.000 N 
ATOM      6  H   UNL     1       5.888   4.055  16.081  0.00  0.00    +0.000 HD
BRANCH   5   7
ATOM      7  C   UNL     1       6.811   4.832  14.308  0.00  0.00    +0.000 C 
BRANCH   7   8
ATOM      8  C   UNL     1       6.220   3.715  13.452  0.00  0.00    +0.000 C 
ATOM      9  C   UNL     1       6.923   3.412  12.142  0.00  0.00    +0.000 C 
ATOM     10  C   UNL     1       5.877   2.555  11.467  0.00  0.00    +0.000 C 
ATOM     11  C   UNL     1       4.579   3.226  11.886  0.00  0.00    +0.000 C 
ATOM     12  O   UNL     1       4.857   3.983  13.078  0.00  0.00    +0.000 OA
ENDBRANCH   7   8
ENDBRANCH   5   7
ENDBRANCH   1   3
BRANCH   1  13
ATOM     13  N   UNL     1       5.006   5.249  18.073  0.00  0.00    +0.000 NA
ATOM     14  C   UNL     1       4.130   6.383  17.700  0.00  0.00    +0.000 C 
BRANCH  13  15
ATOM     15  C   UNL     1       4.654   4.774  19.433  0.00  0.00    +0.000 C 
BRANCH  15  21
ATOM     16  C   UNL     1       3.509   2.099  17.986  0.00  0.00    +0.000 C 
ATOM     17  C   UNL     1       2.781   3.017  18.901  0.00  0.00    +0.000 A 
ATOM     18  N   UNL     1       1.449   2.742  19.180  0.00  0.00    +0.000 NA
ATOM     19  C   UNL     1       0.967   3.654  19.991  0.00  0.00    +0.000 A 
ATOM     20  S   UNL     1       2.059   4.873  20.488  0.00  0.00    +0.000 S 
ATOM     21  C   UNL     1       3.284   4.158  19.512  0.00  0.00    +0.000 A 
ENDBRANCH  15  21
ENDBRANCH  13  15
ENDBRANCH   1  13
TORSDOF 6
ENDMDL
MODEL 8
REMARK VINA RESULT:      -6.2      1.185      1.563
REMARK  Name = 
REMARK  9 active torsions:
REMARK  status: ('A' for Active; 'I' for Inactive)
REMARK    1  A    between atoms: C_1  and  C_2
REMARK    2  A    between atoms: C_6  and  C_7
REMARK    3  A    between atoms: C_7  and  N_8
REMARK    4  A    between atoms: N_8  and  C_9
REMARK    5  A    between atoms: N_8  and  C_10
REMARK    6  A    between atoms: C_10  and  C_11
REMARK    7  A    between atoms: C_10  and  C_12
REMARK    8  A    between atoms: N_14  and  C_15
REMARK    9  A    between atoms: C_15  and  C_16
REMARK                            x       y       z     vdW  Elec       q    Type
REMARK                         _______ _______ _______ _____ _____    ______ ____
ROOT
ATOM      1  C   UNL     1       6.293   5.904  17.963  0.00  0.00    +0.000 C 
ATOM      2  C   UNL     1       6.861   5.473  19.319  0.00  0.00    +0.000 C 
ENDROOT
BRANCH   1   3
ATOM      3  C   UNL     1       7.049   5.139  16.853  0.00  0.00    +0.000 C 
ATOM      4  O   UNL     1       7.960   4.356  17.123  0.00  0.00    +0.000 OA
ATOM      5  N   UNL     1       6.669   5.420  15.557  0.00  0.00    +0.000 N 
ATOM      6  H   UNL     1       5.860   6.005  15.388  0.00  0.00    +0.000 HD
BRANCH   5   7
ATOM      7  C   UNL     1       7.354   4.787  14.447  0.00  0.00    +0.000 C 
BRANCH   7   8
ATOM      8  C   UNL     1       6.484   4.433  13.244  0.00  0.00    +0.000 C 
ATOM      9  C   UNL     1       5.094   3.900  13.539  0.00  0.00    +0.000 C 
ATOM     10  C   UNL     1       4.720   3.355  12.179  0.00  0.00    +0.000 C 
ATOM     11  C   UNL     1       6.035   2.776  11.683  0.00  0.00    +0.000 C 
ATOM     12  O   UNL     1       7.090   3.424  12.416  0.00  0.00    +0.000 OA
ENDBRANCH   7   8
ENDBRANCH   5   7
ENDBRANCH   1   3
BRANCH   1  13
ATOM     13  N   UNL     1       4.810   5.714  17.815  0.00  0.00    +0.000 NA
ATOM     14  C   UNL     1       4.208   7.005  17.413  0.00  0.00    +0.000 C 
BRANCH  13  15
ATOM     15  C   UNL     1       4.209   5.260  19.093  0.00  0.00    +0.000 C 
BRANCH  15  21
ATOM     16  C   UNL     1       4.594   2.215  20.160  0.00  0.00    +0.000 C 
ATOM     17  C   UNL     1       3.452   2.766  19.384  0.00  0.00    +0.000 A 
ATOM     18  N   UNL     1       2.418   1.905  19.042  0.00  0.00    +0.000 NA
ATOM     19  C   UNL     1       1.507   2.555  18.357  0.00  0.00    +0.000 A 
ATOM     20  S   UNL     1       1.805   4.219  18.096  0.00  0.00    +0.000 S 
ATOM     21  C   UNL     1       3.301   4.071  18.935  0.00  0.00    +0.000 A 
ENDBRANCH  15  21
ENDBRANCH  13  15
ENDBRANCH   1  13
TORSDOF 6
ENDMDL
MODEL 9
REMARK VINA RESULT:      -6.2      1.078      1.570
REMARK  Name = 
REMARK  9 active torsions:
REMARK  status: ('A' for Active; 'I' for Inactive)
REMARK    1  A    between atoms: C_1  and  C_2
REMARK    2  A    between atoms: C_6  and  C_7
REMARK    3  A    between atoms: C_7  and  N_8
REMARK    4  A    between atoms: N_8  and  C_9
REMARK    5  A    between atoms: N_8  and  C_10
REMARK    6  A    between atoms: C_10  and  C_11
REMARK    7  A    between atoms: C_10  and  C_12
REMARK    8  A    between atoms: N_14  and  C_15
REMARK    9  A    between atoms: C_15  and  C_16
REMARK                            x       y       z     vdW  Elec       q    Type
REMARK                         _______ _______ _______ _____ _____    ______ ____
ROOT
ATOM      1  C   UNL     1       4.190   5.721  17.708  0.00  0.00    +0.000 C 
ATOM      2  C   UNL     1       3.425   7.038  17.868  0.00  0.00    +0.000 C 
ENDROOT
BRANCH   1   3
ATOM      3  C   UNL     1       5.215   5.888  16.565  0.00  0.00    +0.000 C 
ATOM      4  O   UNL     1       5.807   6.954  16.388  0.00  0.00    +0.000 OA
ATOM      5  N   UNL     1       5.389   4.795  15.742  0.00  0.00    +0.000 N 
ATOM      6  H   UNL     1       4.946   3.916  15.977  0.00  0.00    +0.000 HD
BRANCH   5   7
ATOM      7  C   UNL     1       6.295   4.874  14.612  0.00  0.00    +0.000 C 
BRANCH   7   8
ATOM      8  C   UNL     1       6.163   3.761  13.576  0.00  0.00    +0.000 C 
ATOM      9  C   UNL     1       7.107   3.817  12.389  0.00  0.00    +0.000 C 
ATOM     10  C   UNL     1       6.445   2.815  11.470  0.00  0.00    +0.000 C 
ATOM     11  C   UNL     1       4.967   3.075  11.710  0.00  0.00    +0.000 C 
ATOM     12  O   UNL     1       4.849   3.719  12.991  0.00  0.00    +0.000 OA
ENDBRANCH   7   8
ENDBRANCH   5   7
ENDBRANCH   1   3
BRANCH   1  13
ATOM     13  N   UNL     1       4.870   5.235  18.957  0.00  0.00    +0.000 NA
ATOM     14  C   UNL     1       6.321   5.505  18.837  0.00  0.00    +0.000 C 
BRANCH  13  15
ATOM     15  C   UNL     1       4.647   3.781  19.145  0.00  0.00    +0.000 C 
BRANCH  15  21
ATOM     16  C   UNL     1       2.254   4.693  21.144  0.00  0.00    +0.000 C 
ATOM     17  C   UNL     1       2.160   3.776  19.978  0.00  0.00    +0.000 A 
ATOM     18  N   UNL     1       0.926   3.210  19.688  0.00  0.00    +0.000 NA
ATOM     19  C   UNL     1       1.032   2.428  18.639  0.00  0.00    +0.000 A 
ATOM     20  S   UNL     1       2.582   2.331  17.924  0.00  0.00    +0.000 S 
ATOM     21  C   UNL     1       3.193   3.396  19.132  0.00  0.00    +0.000 A 
ENDBRANCH  15  21
ENDBRANCH  13  15
ENDBRANCH   1  13
TORSDOF 6
ENDMDL
