MODEL 1
REMARK VINA RESULT:      -8.6      0.000      0.000
REMARK  Name = 
REMARK  5 active torsions:
REMARK  status: ('A' for Active; 'I' for Inactive)
REMARK    1  A    between atoms: C_1  and  O_2
REMARK    2  A    between atoms: O_2  and  C_3
REMARK    3  A    between atoms: C_7  and  C_8
REMARK    4  A    between atoms: C_13  and  C_14
REMARK    5  A    between atoms: N_16  and  C_17
REMARK                            x       y       z     vdW  Elec       q    Type
REMARK                         _______ _______ _______ _____ _____    ______ ____
ROOT
ATOM      1  C   UNL     1       6.838   4.619  16.187  0.00  0.00    +0.000 C 
ATOM      2  O   UNL     1       7.906   4.830  16.761  0.00  0.00    +0.000 OA
ATOM      3  N   UNL     1       5.628   4.452  16.879  0.00  0.00    +0.000 N 
ATOM      4  C   UNL     1       5.589   4.837  18.289  0.00  0.00    +0.000 C 
ATOM      5  C   UNL     1       4.860   3.796  19.144  0.00  0.00    +0.000 C 
ATOM      6  C   UNL     1       3.475   3.433  18.580  0.00  0.00    +0.000 C 
ATOM      7  C   UNL     1       3.627   3.012  17.117  0.00  0.00    +0.000 C 
ATOM      8  C   UNL     1       4.341   4.075  16.292  0.00  0.00    +0.000 C 
ENDROOT
BRANCH   1  13
ATOM      9  C   UNL     1       6.155   3.504  12.625  0.00  0.00    +0.000 A 
ATOM     10  C   UNL     1       7.066   4.300  11.929  0.00  0.00    +0.000 A 
ATOM     11  C   UNL     1       7.852   5.236  12.606  0.00  0.00    +0.000 A 
ATOM     12  C   UNL     1       7.770   5.337  13.995  0.00  0.00    +0.000 A 
ATOM     13  C   UNL     1       6.880   4.522  14.703  0.00  0.00    +0.000 A 
ATOM     14  C   UNL     1       6.019   3.671  14.002  0.00  0.00    +0.000 A 
BRANCH   9  16
ATOM     15  C   UNL     1       4.227   3.054  11.319  0.00  0.00    +0.000 C 
ATOM     16  O   UNL     1       5.461   2.600  11.870  0.00  0.00    +0.000 OA
ENDBRANCH   9  16
ENDBRANCH   1  13
BRANCH   6  17
ATOM     17  C   UNL     1       2.485   4.588  18.748  0.00  0.00    +0.000 C 
ATOM     18  O   UNL     1       1.316   4.481  18.384  0.00  0.00    +0.000 OA
ATOM     19  N   UNL     1       3.037   5.735  19.296  0.00  0.00    +0.000 N 
ATOM     20  H   UNL     1       4.047   5.804  19.309  0.00  0.00    +0.000 HD
BRANCH  19  21
ATOM     21  C   UNL     1       2.320   6.896  19.672  0.00  0.00    +0.000 A 
ATOM     22  C   UNL     1       1.669   7.025  20.904  0.00  0.00    +0.000 A 
ATOM     23  C   UNL     1       0.954   8.181  21.222  0.00  0.00    +0.000 A 
ATOM     24  C   UNL     1       0.884   9.231  20.310  0.00  0.00    +0.000 A 
ATOM     25  C   UNL     1       1.549   9.120  19.092  0.00  0.00    +0.000 A 
ATOM     26 CL   UNL     1       1.465  10.416  17.961  0.00  0.00    +0.000 Cl
ATOM     27  C   UNL     1       2.276   7.968  18.772  0.00  0.00    +0.000 A 
ENDBRANCH  19  21
ENDBRANCH   6  17
TORSDOF 4
ENDMDL
MODEL 2
REMARK VINA RESULT:      -8.6      1.038      1.399
REMARK  Name = 
REMARK  5 active torsions:
REMARK  status: ('A' for Active; 'I' for Inactive)
REMARK    1  A    between atoms: C_1  and  O_2
REMARK    2  A    between atoms: O_2  and  C_3
REMARK    3  A    between atoms: C_7  and  C_8
REMARK    4  A    between atoms: C_13  and  C_14
REMARK    5  A    between atoms: N_16  and  C_17
REMARK                            x       y       z     vdW  Elec       q    Type
REMARK                         _______ _______ _______ _____ _____    ______ ____
ROOT
ATOM      1  C   UNL     1       6.795   4.869  16.071  0.00  0.00    +0.000 C 
ATOM      2  O   UNL     1       7.858   5.133  16.634  0.00  0.00    +0.000 OA
ATOM      3  N   UNL     1       5.581   4.752  16.765  0.00  0.00    +0.000 N 
ATOM      4  C   UNL     1       5.529   5.250  18.140  0.00  0.00    +0.000 C 
ATOM      5  C   UNL     1       4.799   4.278  19.071  0.00  0.00    +0.000 C 
ATOM      6  C   UNL     1       3.421   3.863  18.528  0.00  0.00    +0.000 C 
ATOM      7  C   UNL     1       3.586   3.324  17.107  0.00  0.00    +0.000 C 
ATOM      8  C   UNL     1       4.301   4.321  16.203  0.00  0.00    +0.000 C 
ENDROOT
BRANCH   1  13
ATOM      9  C   UNL     1       6.118   3.488  12.603  0.00  0.00    +0.000 A 
ATOM     10  C   UNL     1       7.056   4.202  11.856  0.00  0.00    +0.000 A 
ATOM     11  C   UNL     1       7.861   5.169  12.465  0.00  0.00    +0.000 A 
ATOM     12  C   UNL     1       7.767   5.384  13.840  0.00  0.00    +0.000 A 
ATOM     13  C   UNL     1       6.850   4.652  14.601  0.00  0.00    +0.000 A 
ATOM     14  C   UNL     1       5.972   3.769  13.960  0.00  0.00    +0.000 A 
BRANCH   9  16
ATOM     15  C   UNL     1       4.205   2.990  11.291  0.00  0.00    +0.000 C 
ATOM     16  O   UNL     1       5.407   2.545  11.915  0.00  0.00    +0.000 OA
ENDBRANCH   9  16
ENDBRANCH   1  13
BRANCH   6  17
ATOM     17  C   UNL     1       2.423   5.022  18.595  0.00  0.00    +0.000 C 
ATOM     18  O   UNL     1       1.248   4.868  18.268  0.00  0.00    +0.000 OA
ATOM     19  N   UNL     1       2.975   6.224  19.007  0.00  0.00    +0.000 N 
ATOM     20  H   UNL     1       3.984   6.301  18.992  0.00  0.00    +0.000 HD
BRANCH  19  21
ATOM     21  C   UNL     1       2.254   7.413  19.274  0.00  0.00    +0.000 A 
ATOM     22  C   UNL     1       2.019   8.396  18.307  0.00  0.00    +0.000 A 
ATOM     23  C   UNL     1       1.321   9.564  18.623  0.00  0.00    +0.000 A 
ATOM     24  C   UNL     1       0.845   9.762  19.915  0.00  0.00    +0.000 A 
ATOM     25  C   UNL     1       1.053   8.778  20.877  0.00  0.00    +0.000 A 
ATOM     26 CL   UNL     1       0.465   9.021  22.477  0.00  0.00    +0.000 Cl
ATOM     27  C   UNL     1       1.742   7.601  20.563  0.00  0.00    +0.000 A 
ENDBRANCH  19  21
ENDBRANCH   6  17
TORSDOF 4
ENDMDL
MODEL 3
REMARK VINA RESULT:      -8.4      1.649      1.985
REMARK  Name = 
REMARK  5 active torsions:
REMARK  status: ('A' for Active; 'I' for Inactive)
REMARK    1  A    between atoms: C_1  and  O_2
REMARK    2  A    between atoms: O_2  and  C_3
REMARK    3  A    between atoms: C_7  and  C_8
REMARK    4  A    between atoms: C_13  and  C_14
REMARK    5  A    between atoms: N_16  and  C_17
REMARK                            x       y       z     vdW  Elec       q    Type
REMARK                         _______ _______ _______ _____ _____    ______ ____
ROOT
ATOM      1  C   UNL     1       6.998   4.704  16.229  0.00  0.00    +0.000 C 
ATOM      2  O   UNL     1       8.073   4.476  16.785  0.00  0.00    +0.000 OA
ATOM      3  N   UNL     1       5.841   5.061  16.939  0.00  0.00    +0.000 N 
ATOM      4  C   UNL     1       5.994   5.462  18.337  0.00  0.00    +0.000 C 
ATOM      5  C   UNL     1       4.924   4.830  19.232  0.00  0.00    +0.000 C 
ATOM      6  C   UNL     1       3.499   5.050  18.694  0.00  0.00    +0.000 C 
ATOM      7  C   UNL     1       3.433   4.567  17.244  0.00  0.00    +0.000 C 
ATOM      8  C   UNL     1       4.499   5.228  16.379  0.00  0.00    +0.000 C 
ENDROOT
BRANCH   1  13
ATOM      9  C   UNL     1       6.163   3.457  12.745  0.00  0.00    +0.000 A 
ATOM     10  C   UNL     1       7.008   4.260  11.977  0.00  0.00    +0.000 A 
ATOM     11  C   UNL     1       7.798   5.241  12.582  0.00  0.00    +0.000 A 
ATOM     12  C   UNL     1       7.787   5.383  13.970  0.00  0.00    +0.000 A 
ATOM     13  C   UNL     1       6.964   4.562  14.749  0.00  0.00    +0.000 A 
ATOM     14  C   UNL     1       6.095   3.663  14.122  0.00  0.00    +0.000 A 
BRANCH   9  16
ATOM     15  C   UNL     1       6.229   1.579  11.297  0.00  0.00    +0.000 C 
ATOM     16  O   UNL     1       5.459   2.509  12.056  0.00  0.00    +0.000 OA
ENDBRANCH   9  16
ENDBRANCH   1  13
BRANCH   6  17
ATOM     17  C   UNL     1       3.068   6.512  18.837  0.00  0.00    +0.000 C 
ATOM     18  O   UNL     1       3.452   7.368  18.043  0.00  0.00    +0.000 OA
ATOM     19  N   UNL     1       2.265   6.762  19.937  0.00  0.00    +0.000 N 
ATOM     20  H   UNL     1       2.232   6.054  20.659  0.00  0.00    +0.000 HD
BRANCH  19  21
ATOM     21  C   UNL     1       1.630   7.992  20.230  0.00  0.00    +0.000 A 
ATOM     22  C   UNL     1       1.474   9.015  19.288  0.00  0.00    +0.000 A 
ATOM     23  C   UNL     1       0.860  10.221  19.630  0.00  0.00    +0.000 A 
ATOM     24  C   UNL     1       0.387  10.421  20.924  0.00  0.00    +0.000 A 
ATOM     25  C   UNL     1       0.515   9.399  21.860  0.00  0.00    +0.000 A 
ATOM     26 CL   UNL     1      -0.069   9.642  23.462  0.00  0.00    +0.000 Cl
ATOM     27  C   UNL     1       1.120   8.184  21.521  0.00  0.00    +0.000 A 
ENDBRANCH  19  21
ENDBRANCH   6  17
TORSDOF 4
ENDMDL
MODEL 4
REMARK VINA RESULT:      -8.1      4.333      7.289
REMARK  Name = 
REMARK  5 active torsions:
REMARK  status: ('A' for Active; 'I' for Inactive)
REMARK    1  A    between atoms: C_1  and  O_2
REMARK    2  A    between atoms: O_2  and  C_3
REMARK    3  A    between atoms: C_7  and  C_8
REMARK    4  A    between atoms: C_13  and  C_14
REMARK    5  A    between atoms: N_16  and  C_17
REMARK                            x       y       z     vdW  Elec       q    Type
REMARK                         _______ _______ _______ _____ _____    ______ ____
ROOT
ATOM      1  C   UNL     1       3.954   4.107  17.565  0.00  0.00    +0.000 C 
ATOM      2  O   UNL     1       3.837   3.356  16.596  0.00  0.00    +0.000 OA
ATOM      3  N   UNL     1       5.098   4.890  17.780  0.00  0.00    +0.000 N 
ATOM      4  C   UNL     1       6.041   5.041  16.673  0.00  0.00    +0.000 C 
ATOM      5  C   UNL     1       7.493   4.894  17.136  0.00  0.00    +0.000 C 
ATOM      6  C   UNL     1       7.824   5.798  18.337  0.00  0.00    +0.000 C 
ATOM      7  C   UNL     1       6.808   5.540  19.450  0.00  0.00    +0.000 C 
ATOM      8  C   UNL     1       5.375   5.710  18.960  0.00  0.00    +0.000 C 
ENDROOT
BRANCH   1  13
ATOM      9  C   UNL     1       1.551   5.251  20.269  0.00  0.00    +0.000 A 
ATOM     10  C   UNL     1       0.755   4.113  20.402  0.00  0.00    +0.000 A 
ATOM     11  C   UNL     1       0.959   3.004  19.576  0.00  0.00    +0.000 A 
ATOM     12  C   UNL     1       2.003   3.011  18.650  0.00  0.00    +0.000 A 
ATOM     13  C   UNL     1       2.823   4.137  18.531  0.00  0.00    +0.000 A 
ATOM     14  C   UNL     1       2.536   5.282  19.283  0.00  0.00    +0.000 A 
BRANCH   9  16
ATOM     15  C   UNL     1       1.557   7.587  20.688  0.00  0.00    +0.000 C 
ATOM     16  O   UNL     1       1.287   6.265  21.148  0.00  0.00    +0.000 OA
ENDBRANCH   9  16
ENDBRANCH   1  13
BRANCH   6  17
ATOM     17  C   UNL     1       7.872   7.273  17.929  0.00  0.00    +0.000 C 
ATOM     18  O   UNL     1       7.293   7.672  16.921  0.00  0.00    +0.000 OA
ATOM     19  N   UNL     1       8.643   8.068  18.762  0.00  0.00    +0.000 N 
ATOM     20  H   UNL     1       9.280   7.598  19.393  0.00  0.00    +0.000 HD
BRANCH  19  21
ATOM     21  C   UNL     1       8.753   9.476  18.686  0.00  0.00    +0.000 A 
ATOM     22  C   UNL     1       8.137  10.237  17.686  0.00  0.00    +0.000 A 
ATOM     23  C   UNL     1       8.293  11.624  17.638  0.00  0.00    +0.000 A 
ATOM     24  C   UNL     1       9.066  12.272  18.596  0.00  0.00    +0.000 A 
ATOM     25  C   UNL     1       9.662  11.525  19.609  0.00  0.00    +0.000 A 
ATOM     26 CL   UNL     1      10.620  12.324  20.797  0.00  0.00    +0.000 Cl
ATOM     27  C   UNL     1       9.500  10.137  19.669  0.00  0.00    +0.000 A 
ENDBRANCH  19  21
ENDBRANCH   6  17
TORSDOF 4
ENDMDL
MODEL 5
REMARK VINA RESULT:      -8.0      4.014      6.721
REMARK  Name = 
REMARK  5 active torsions:
REMARK  status: ('A' for Active; 'I' for Inactive)
REMARK    1  A    between atoms: C_1  and  O_2
REMARK    2  A    between atoms: O_2  and  C_3
REMARK    3  A    between atoms: C_7  and  C_8
REMARK    4  A    between atoms: C_13  and  C_14
REMARK    5  A    between atoms: N_16  and  C_17
REMARK                            x       y       z     vdW  Elec       q    Type
REMARK                         _______ _______ _______ _____ _____    ______ ____
ROOT
ATOM      1  C   UNL     1       2.326   6.795  19.649  0.00  0.00    +0.000 C 
ATOM      2  O   UNL     1       2.092   6.095  20.634  0.00  0.00    +0.000 OA
ATOM      3  N   UNL     1       1.800   8.087  19.498  0.00  0.00    +0.000 N 
ATOM      4  C   UNL     1       1.208   8.725  20.673  0.00  0.00    +0.000 C 
ATOM      5  C   UNL     1      -0.114   9.422  20.338  0.00  0.00    +0.000 C 
ATOM      6  C   UNL     1       0.008  10.372  19.133  0.00  0.00    +0.000 C 
ATOM      7  C   UNL     1       0.600   9.604  17.951  0.00  0.00    +0.000 C 
ATOM      8  C   UNL     1       1.921   8.937  18.312  0.00  0.00    +0.000 C 
ENDROOT
BRANCH   1  13
ATOM      9  C   UNL     1       5.093   6.316  17.098  0.00  0.00    +0.000 A 
ATOM     10  C   UNL     1       4.714   5.096  16.536  0.00  0.00    +0.000 A 
ATOM     11  C   UNL     1       3.603   4.404  17.024  0.00  0.00    +0.000 A 
ATOM     12  C   UNL     1       2.830   4.964  18.042  0.00  0.00    +0.000 A 
ATOM     13  C   UNL     1       3.186   6.200  18.591  0.00  0.00    +0.000 A 
ATOM     14  C   UNL     1       4.366   6.826  18.172  0.00  0.00    +0.000 A 
BRANCH   9  16
ATOM     15  C   UNL     1       7.282   7.187  17.383  0.00  0.00    +0.000 C 
ATOM     16  O   UNL     1       6.176   6.922  16.523  0.00  0.00    +0.000 OA
ENDBRANCH   9  16
ENDBRANCH   1  13
BRANCH   6  17
ATOM     17  C   UNL     1       0.828  11.615  19.484  0.00  0.00    +0.000 C 
ATOM     18  O   UNL     1       1.279  11.781  20.615  0.00  0.00    +0.000 OA
ATOM     19  N   UNL     1       0.968  12.517  18.441  0.00  0.00    +0.000 N 
ATOM     20  H   UNL     1       0.344  12.413  17.651  0.00  0.00    +0.000 HD
BRANCH  19  21
ATOM     21  C   UNL     1       1.777  13.678  18.458  0.00  0.00    +0.000 A 
ATOM     22  C   UNL     1       1.277  14.952  18.747  0.00  0.00    +0.000 A 
ATOM     23  C   UNL     1       2.110  16.073  18.730  0.00  0.00    +0.000 A 
ATOM     24  C   UNL     1       3.461  15.932  18.427  0.00  0.00    +0.000 A 
ATOM     25  C   UNL     1       3.971  14.664  18.162  0.00  0.00    +0.000 A 
ATOM     26 CL   UNL     1       5.642  14.487  17.786  0.00  0.00    +0.000 Cl
ATOM     27  C   UNL     1       3.144  13.537  18.188  0.00  0.00    +0.000 A 
ENDBRANCH  19  21
ENDBRANCH   6  17
TORSDOF 4
ENDMDL
MODEL 6
REMARK VINA RESULT:      -8.0      1.221      1.371
REMARK  Name = 
REMARK  5 active torsions:
REMARK  status: ('A' for Active; 'I' for Inactive)
REMARK    1  A    between atoms: C_1  and  O_2
REMARK    2  A    between atoms: O_2  and  C_3
REMARK    3  A    between atoms: C_7  and  C_8
REMARK    4  A    between atoms: C_13  and  C_14
REMARK    5  A    between atoms: N_16  and  C_17
REMARK                            x       y       z     vdW  Elec       q    Type
REMARK                         _______ _______ _______ _____ _____    ______ ____
ROOT
ATOM      1  C   UNL     1       6.953   4.674  16.331  0.00  0.00    +0.000 C 
ATOM      2  O   UNL     1       8.020   4.420  16.890  0.00  0.00    +0.000 OA
ATOM      3  N   UNL     1       5.797   5.036  17.040  0.00  0.00    +0.000 N 
ATOM      4  C   UNL     1       5.946   5.411  18.446  0.00  0.00    +0.000 C 
ATOM      5  C   UNL     1       4.861   4.779  19.322  0.00  0.00    +0.000 C 
ATOM      6  C   UNL     1       3.443   5.029  18.779  0.00  0.00    +0.000 C 
ATOM      7  C   UNL     1       3.380   4.573  17.321  0.00  0.00    +0.000 C 
ATOM      8  C   UNL     1       4.461   5.232  16.474  0.00  0.00    +0.000 C 
ENDROOT
BRANCH   1  13
ATOM      9  C   UNL     1       6.121   3.502  12.821  0.00  0.00    +0.000 A 
ATOM     10  C   UNL     1       6.984   4.304  12.072  0.00  0.00    +0.000 A 
ATOM     11  C   UNL     1       7.786   5.261  12.699  0.00  0.00    +0.000 A 
ATOM     12  C   UNL     1       7.768   5.378  14.089  0.00  0.00    +0.000 A 
ATOM     13  C   UNL     1       6.927   4.558  14.849  0.00  0.00    +0.000 A 
ATOM     14  C   UNL     1       6.047   3.685  14.200  0.00  0.00    +0.000 A 
BRANCH   9  16
ATOM     15  C   UNL     1       6.159   1.711  11.265  0.00  0.00    +0.000 C 
ATOM     16  O   UNL     1       5.406   2.578  12.110  0.00  0.00    +0.000 OA
ENDBRANCH   9  16
ENDBRANCH   1  13
BRANCH   6  17
ATOM     17  C   UNL     1       3.033   6.495  18.945  0.00  0.00    +0.000 C 
ATOM     18  O   UNL     1       3.380   7.347  18.131  0.00  0.00    +0.000 OA
ATOM     19  N   UNL     1       2.293   6.752  20.088  0.00  0.00    +0.000 N 
ATOM     20  H   UNL     1       2.295   6.043  20.811  0.00  0.00    +0.000 HD
BRANCH  19  21
ATOM     21  C   UNL     1       1.685   7.987  20.415  0.00  0.00    +0.000 A 
ATOM     22  C   UNL     1       1.452   8.399  21.732  0.00  0.00    +0.000 A 
ATOM     23  C   UNL     1       0.828   9.617  22.005  0.00  0.00    +0.000 A 
ATOM     24  C   UNL     1       0.431  10.447  20.960  0.00  0.00    +0.000 A 
ATOM     25  C   UNL     1       0.683  10.056  19.648  0.00  0.00    +0.000 A 
ATOM     26 CL   UNL     1       0.193  11.080  18.353  0.00  0.00    +0.000 Cl
ATOM     27  C   UNL     1       1.317   8.841  19.368  0.00  0.00    +0.000 A 
ENDBRANCH  19  21
ENDBRANCH   6  17
TORSDOF 4
ENDMDL
MODEL 7
REMARK VINA RESULT:      -8.0      1.627      2.331
REMARK  Name = 
REMARK  5 active torsions:
REMARK  status: ('A' for Active; 'I' for Inactive)
REMARK    1  A    between atoms: C_1  and  O_2
REMARK    2  A    between atoms: O_2  and  C_3
REMARK    3  A    between atoms: C_7  and  C_8
REMARK    4  A    between atoms: C_13  and  C_14
REMARK    5  A    between atoms: N_16  and  C_17
REMARK                            x       y       z     vdW  Elec       q    Type
REMARK                         _______ _______ _______ _____ _____    ______ ____
ROOT
ATOM      1  C   UNL     1       6.368   4.783  14.153  0.00  0.00    +0.000 C 
ATOM      2  O   UNL     1       7.388   5.459  14.016  0.00  0.00    +0.000 OA
ATOM      3  N   UNL     1       5.576   4.838  15.310  0.00  0.00    +0.000 N 
ATOM      4  C   UNL     1       5.803   5.941  16.243  0.00  0.00    +0.000 C 
ATOM      5  C   UNL     1       5.817   5.463  17.698  0.00  0.00    +0.000 C 
ATOM      6  C   UNL     1       4.582   4.618  18.054  0.00  0.00    +0.000 C 
ATOM      7  C   UNL     1       4.453   3.474  17.046  0.00  0.00    +0.000 C 
ATOM      8  C   UNL     1       4.425   3.984  15.611  0.00  0.00    +0.000 C 
ENDROOT
BRANCH   1  13
ATOM      9  C   UNL     1       4.434   3.066  11.378  0.00  0.00    +0.000 A 
ATOM     10  C   UNL     1       5.344   2.074  11.008  0.00  0.00    +0.000 A 
ATOM     11  C   UNL     1       6.601   2.002  11.615  0.00  0.00    +0.000 A 
ATOM     12  C   UNL     1       6.929   2.892  12.638  0.00  0.00    +0.000 A 
ATOM     13  C   UNL     1       6.012   3.871  13.034  0.00  0.00    +0.000 A 
ATOM     14  C   UNL     1       4.803   4.003  12.341  0.00  0.00    +0.000 A 
BRANCH   9  16
ATOM     15  C   UNL     1       2.971   4.057   9.794  0.00  0.00    +0.000 C 
ATOM     16  O   UNL     1       3.223   3.024  10.744  0.00  0.00    +0.000 OA
ENDBRANCH   9  16
ENDBRANCH   1  13
BRANCH   6  17
ATOM     17  C   UNL     1       3.317   5.478  18.117  0.00  0.00    +0.000 C 
ATOM     18  O   UNL     1       2.218   5.014  17.822  0.00  0.00    +0.000 OA
ATOM     19  N   UNL     1       3.542   6.794  18.489  0.00  0.00    +0.000 N 
ATOM     20  H   UNL     1       4.495   7.131  18.448  0.00  0.00    +0.000 HD
BRANCH  19  21
ATOM     21  C   UNL     1       2.540   7.760  18.745  0.00  0.00    +0.000 A 
ATOM     22  C   UNL     1       2.103   8.680  17.786  0.00  0.00    +0.000 A 
ATOM     23  C   UNL     1       1.128   9.630  18.092  0.00  0.00    +0.000 A 
ATOM     24  C   UNL     1       0.570   9.671  19.367  0.00  0.00    +0.000 A 
ATOM     25  C   UNL     1       0.982   8.744  20.320  0.00  0.00    +0.000 A 
ATOM     26 CL   UNL     1       0.295   8.792  21.898  0.00  0.00    +0.000 Cl
ATOM     27  C   UNL     1       1.951   7.782  20.016  0.00  0.00    +0.000 A 
ENDBRANCH  19  21
ENDBRANCH   6  17
TORSDOF 4
ENDMDL
MODEL 8
REMARK VINA RESULT:      -7.9      3.862      6.637
REMARK  Name = 
REMARK  5 active torsions:
REMARK  status: ('A' for Active; 'I' for Inactive)
REMARK    1  A    between atoms: C_1  and  O_2
REMARK    2  A    between atoms: O_2  and  C_3
REMARK    3  A    between atoms: C_7  and  C_8
REMARK    4  A    between atoms: C_13  and  C_14
REMARK    5  A    between atoms: N_16  and  C_17
REMARK                            x       y       z     vdW  Elec       q    Type
REMARK                         _______ _______ _______ _____ _____    ______ ____
ROOT
ATOM      1  C   UNL     1       2.214   6.486  19.975  0.00  0.00    +0.000 C 
ATOM      2  O   UNL     1       1.802   6.078  21.061  0.00  0.00    +0.000 OA
ATOM      3  N   UNL     1       1.937   7.776  19.497  0.00  0.00    +0.000 N 
ATOM      4  C   UNL     1       1.401   8.755  20.444  0.00  0.00    +0.000 C 
ATOM      5  C   UNL     1       0.246   9.559  19.840  0.00  0.00    +0.000 C 
ATOM      6  C   UNL     1       0.605  10.174  18.476  0.00  0.00    +0.000 C 
ATOM      7  C   UNL     1       1.118   9.069  17.550  0.00  0.00    +0.000 C 
ATOM      8  C   UNL     1       2.276   8.300  18.173  0.00  0.00    +0.000 C 
ENDROOT
BRANCH   1  13
ATOM      9  C   UNL     1       5.135   4.527  18.553  0.00  0.00    +0.000 A 
ATOM     10  C   UNL     1       4.494   3.811  17.540  0.00  0.00    +0.000 A 
ATOM     11  C   UNL     1       3.112   3.919  17.361  0.00  0.00    +0.000 A 
ATOM     12  C   UNL     1       2.374   4.791  18.161  0.00  0.00    +0.000 A 
ATOM     13  C   UNL     1       3.014   5.534  19.160  0.00  0.00    +0.000 A 
ATOM     14  C   UNL     1       4.377   5.331  19.402  0.00  0.00    +0.000 A 
BRANCH   9  16
ATOM     15  C   UNL     1       7.235   4.826  17.489  0.00  0.00    +0.000 C 
ATOM     16  O   UNL     1       6.492   4.373  18.618  0.00  0.00    +0.000 OA
ENDBRANCH   9  16
ENDBRANCH   1  13
BRANCH   6  17
ATOM     17  C   UNL     1       1.613  11.316  18.626  0.00  0.00    +0.000 C 
ATOM     18  O   UNL     1       2.644  11.345  17.959  0.00  0.00    +0.000 OA
ATOM     19  N   UNL     1       1.270  12.254  19.587  0.00  0.00    +0.000 N 
ATOM     20  H   UNL     1       0.551  11.995  20.252  0.00  0.00    +0.000 HD
BRANCH  19  21
ATOM     21  C   UNL     1       1.956  13.465  19.838  0.00  0.00    +0.000 A 
ATOM     22  C   UNL     1       2.781  13.660  20.951  0.00  0.00    +0.000 A 
ATOM     23  C   UNL     1       3.420  14.881  21.169  0.00  0.00    +0.000 A 
ATOM     24  C   UNL     1       3.247  15.929  20.269  0.00  0.00    +0.000 A 
ATOM     25  C   UNL     1       2.448  15.736  19.145  0.00  0.00    +0.000 A 
ATOM     26 CL   UNL     1       2.230  17.030  18.030  0.00  0.00    +0.000 Cl
ATOM     27  C   UNL     1       1.813  14.510  18.916  0.00  0.00    +0.000 A 
ENDBRANCH  19  21
ENDBRANCH   6  17
TORSDOF 4
ENDMDL
MODEL 9
REMARK VINA RESULT:      -7.9      4.048      6.697
REMARK  Name = 
REMARK  5 active torsions:
REMARK  status: ('A' for Active; 'I' for Inactive)
REMARK    1  A    between atoms: C_1  and  O_2
REMARK    2  A    between atoms: O_2  and  C_3
REMARK    3  A    between atoms: C_7  and  C_8
REMARK    4  A    between atoms: C_13  and  C_14
REMARK    5  A    between atoms: N_16  and  C_17
REMARK                            x       y       z     vdW  Elec       q    Type
REMARK                         _______ _______ _______ _____ _____    ______ ____
ROOT
ATOM      1  C   UNL     1       2.404   6.705  19.601  0.00  0.00    +0.000 C 
ATOM      2  O   UNL     1       2.172   6.000  20.584  0.00  0.00    +0.000 OA
ATOM      3  N   UNL     1       1.872   7.995  19.454  0.00  0.00    +0.000 N 
ATOM      4  C   UNL     1       1.276   8.627  20.631  0.00  0.00    +0.000 C 
ATOM      5  C   UNL     1      -0.049   9.318  20.298  0.00  0.00    +0.000 C 
ATOM      6  C   UNL     1       0.069  10.272  19.097  0.00  0.00    +0.000 C 
ATOM      7  C   UNL     1       0.665   9.511  17.912  0.00  0.00    +0.000 C 
ATOM      8  C   UNL     1       1.989   8.850  18.272  0.00  0.00    +0.000 C 
ENDROOT
BRANCH   1  13
ATOM      9  C   UNL     1       5.186   6.239  17.064  0.00  0.00    +0.000 A 
ATOM     10  C   UNL     1       4.802   5.029  16.484  0.00  0.00    +0.000 A 
ATOM     11  C   UNL     1       3.682   4.340  16.955  0.00  0.00    +0.000 A 
ATOM     12  C   UNL     1       2.906   4.891  17.975  0.00  0.00    +0.000 A 
ATOM     13  C   UNL     1       3.267   6.118  18.543  0.00  0.00    +0.000 A 
ATOM     14  C   UNL     1       4.454   6.740  18.139  0.00  0.00    +0.000 A 
BRANCH   9  16
ATOM     15  C   UNL     1       7.341   7.175  17.394  0.00  0.00    +0.000 C 
ATOM     16  O   UNL     1       6.277   6.845  16.505  0.00  0.00    +0.000 OA
ENDBRANCH   9  16
ENDBRANCH   1  13
BRANCH   6  17
ATOM     17  C   UNL     1       0.883  11.519  19.452  0.00  0.00    +0.000 C 
ATOM     18  O   UNL     1       1.305  11.699  20.592  0.00  0.00    +0.000 OA
ATOM     19  N   UNL     1       1.052  12.406  18.401  0.00  0.00    +0.000 N 
ATOM     20  H   UNL     1       0.449  12.292  17.596  0.00  0.00    +0.000 HD
BRANCH  19  21
ATOM     21  C   UNL     1       1.864  13.565  18.424  0.00  0.00    +0.000 A 
ATOM     22  C   UNL     1       3.234  13.543  18.144  0.00  0.00    +0.000 A 
ATOM     23  C   UNL     1       3.999  14.710  18.201  0.00  0.00    +0.000 A 
ATOM     24  C   UNL     1       3.400  15.920  18.536  0.00  0.00    +0.000 A 
ATOM     25  C   UNL     1       2.032  15.955  18.792  0.00  0.00    +0.000 A 
ATOM     26 CL   UNL     1       1.287  17.451  19.207  0.00  0.00    +0.000 Cl
ATOM     27  C   UNL     1       1.258  14.791  18.725  0.00  0.00    +0.000 A 
ENDBRANCH  19  21
ENDBRANCH   6  17
TORSDOF 4
ENDMDL
