MODEL 1
REMARK VINA RESULT:      -8.7      0.000      0.000
REMARK  Name = 
REMARK  5 active torsions:
REMARK  status: ('A' for Active; 'I' for Inactive)
REMARK    1  A    between atoms: C_1  and  C_2
REMARK    2  A    between atoms: C_2  and  C_3
REMARK    3  A    between atoms: C_2  and  C_6
REMARK    4  A    between atoms: C_3  and  O_5
REMARK    5  A    between atoms: C_8  and  O_9
REMARK                            x       y       z     vdW  Elec       q    Type
REMARK                         _______ _______ _______ _____ _____    ______ ____
ROOT
ATOM      1  C   UNL     1       5.489   5.504  16.325  0.00  0.00    +0.000 A 
ATOM      2  C   UNL     1       5.014   6.793  16.619  0.00  0.00    +0.000 A 
ATOM      3  C   UNL     1       3.901   6.970  17.446  0.00  0.00    +0.000 A 
ATOM      4  C   UNL     1       3.241   5.865  17.988  0.00  0.00    +0.000 A 
ATOM      5  C   UNL     1       2.348   6.006  19.207  0.00  0.00    +0.000 A 
ATOM      6  O   UNL     1       2.005   7.090  19.660  0.00  0.00    +0.000 OA
ATOM      7  C   UNL     1       1.930   4.796  19.985  0.00  0.00    +0.000 A 
ATOM      8  C   UNL     1       2.430   4.594  21.268  0.00  0.00    +0.000 A 
ATOM      9  C   UNL     1       2.109   3.416  21.945  0.00  0.00    +0.000 A 
ATOM     10  C   UNL     1       1.204   2.504  21.393  0.00  0.00    +0.000 A 
ATOM     11  C   UNL     1       0.723   2.686  20.097  0.00  0.00    +0.000 A 
ATOM     12  C   UNL     1       1.182   3.774  19.359  0.00  0.00    +0.000 A 
ATOM     13  C   UNL     1       1.363   3.662  17.902  0.00  0.00    +0.000 A 
ATOM     14  C   UNL     1       2.679   3.410  17.709  0.00  0.00    +0.000 A 
ATOM     15  C   UNL     1       3.535   4.590  17.451  0.00  0.00    +0.000 A 
ATOM     16  C   UNL     1       4.713   4.405  16.717  0.00  0.00    +0.000 A 
ENDROOT
BRANCH   1  18
ATOM     17  C   UNL     1       7.775   4.498  16.548  0.00  0.00    +0.000 C 
ATOM     18  C   UNL     1       6.855   5.348  15.660  0.00  0.00    +0.000 C 
BRANCH  18  19
ATOM     19  C   UNL     1       6.806   4.794  14.242  0.00  0.00    +0.000 C 
ATOM     20  O   UNL     1       6.143   3.816  13.902  0.00  0.00    +0.000 OA
BRANCH  19  21
ATOM     21  O   UNL     1       7.595   5.451  13.367  0.00  0.00    +0.000 OA
ATOM     22  H   UNL     1       8.065   4.864  12.745  0.00  0.00    +0.000 HD
ENDBRANCH  19  21
ENDBRANCH  18  19
ENDBRANCH   1  18
BRANCH   3  23
ATOM     23  O   UNL     1       3.495   8.244  17.710  0.00  0.00    +0.000 OA
ATOM     24  H   UNL     1       3.642   8.444  18.649  0.00  0.00    +0.000 HD
ENDBRANCH   3  23
TORSDOF 4
ENDMDL
MODEL 2
REMARK VINA RESULT:      -8.4      0.870      1.201
REMARK  Name = 
REMARK  5 active torsions:
REMARK  status: ('A' for Active; 'I' for Inactive)
REMARK    1  A    between atoms: C_1  and  C_2
REMARK    2  A    between atoms: C_2  and  C_3
REMARK    3  A    between atoms: C_2  and  C_6
REMARK    4  A    between atoms: C_3  and  O_5
REMARK    5  A    between atoms: C_8  and  O_9
REMARK                            x       y       z     vdW  Elec       q    Type
REMARK                         _______ _______ _______ _____ _____    ______ ____
ROOT
ATOM      1  C   UNL     1       5.220   4.748  15.929  0.00  0.00    +0.000 A 
ATOM      2  C   UNL     1       4.971   6.100  16.219  0.00  0.00    +0.000 A 
ATOM      3  C   UNL     1       4.006   6.460  17.163  0.00  0.00    +0.000 A 
ATOM      4  C   UNL     1       3.269   5.479  17.830  0.00  0.00    +0.000 A 
ATOM      5  C   UNL     1       2.564   5.782  19.139  0.00  0.00    +0.000 A 
ATOM      6  O   UNL     1       2.436   6.916  19.579  0.00  0.00    +0.000 OA
ATOM      7  C   UNL     1       2.080   4.668  20.016  0.00  0.00    +0.000 A 
ATOM      8  C   UNL     1       2.702   4.432  21.238  0.00  0.00    +0.000 A 
ATOM      9  C   UNL     1       2.305   3.332  22.001  0.00  0.00    +0.000 A 
ATOM     10  C   UNL     1       1.219   2.547  21.603  0.00  0.00    +0.000 A 
ATOM     11  C   UNL     1       0.611   2.760  20.367  0.00  0.00    +0.000 A 
ATOM     12  C   UNL     1       1.124   3.749  19.531  0.00  0.00    +0.000 A 
ATOM     13  C   UNL     1       1.104   3.571  18.069  0.00  0.00    +0.000 A 
ATOM     14  C   UNL     1       2.338   3.124  17.733  0.00  0.00    +0.000 A 
ATOM     15  C   UNL     1       3.312   4.160  17.321  0.00  0.00    +0.000 A 
ATOM     16  C   UNL     1       4.352   3.785  16.461  0.00  0.00    +0.000 A 
ENDROOT
BRANCH   1  18
ATOM     17  C   UNL     1       6.038   3.896  13.718  0.00  0.00    +0.000 C 
ATOM     18  C   UNL     1       6.457   4.377  15.115  0.00  0.00    +0.000 C 
BRANCH  18  19
ATOM     19  C   UNL     1       7.502   5.481  15.018  0.00  0.00    +0.000 C 
ATOM     20  O   UNL     1       7.787   6.249  15.934  0.00  0.00    +0.000 OA
BRANCH  19  21
ATOM     21  O   UNL     1       8.086   5.581  13.805  0.00  0.00    +0.000 OA
ATOM     22  H   UNL     1       7.530   5.252  13.074  0.00  0.00    +0.000 HD
ENDBRANCH  19  21
ENDBRANCH  18  19
ENDBRANCH   1  18
BRANCH   3  23
ATOM     23  O   UNL     1       3.819   7.787  17.415  0.00  0.00    +0.000 OA
ATOM     24  H   UNL     1       3.341   7.894  18.255  0.00  0.00    +0.000 HD
ENDBRANCH   3  23
TORSDOF 4
ENDMDL
MODEL 3
REMARK VINA RESULT:      -8.2      2.048      2.838
REMARK  Name = 
REMARK  5 active torsions:
REMARK  status: ('A' for Active; 'I' for Inactive)
REMARK    1  A    between atoms: C_1  and  C_2
REMARK    2  A    between atoms: C_2  and  C_3
REMARK    3  A    between atoms: C_2  and  C_6
REMARK    4  A    between atoms: C_3  and  O_5
REMARK    5  A    between atoms: C_8  and  O_9
REMARK                            x       y       z     vdW  Elec       q    Type
REMARK                         _______ _______ _______ _____ _____    ______ ____
ROOT
ATOM      1  C   UNL     1       6.116   4.371  15.206  0.00  0.00    +0.000 A 
ATOM      2  C   UNL     1       7.144   4.480  16.157  0.00  0.00    +0.000 A 
ATOM      3  C   UNL     1       6.845   4.643  17.512  0.00  0.00    +0.000 A 
ATOM      4  C   UNL     1       5.518   4.704  17.941  0.00  0.00    +0.000 A 
ATOM      5  C   UNL     1       5.147   4.429  19.386  0.00  0.00    +0.000 A 
ATOM      6  O   UNL     1       5.977   4.333  20.280  0.00  0.00    +0.000 OA
ATOM      7  C   UNL     1       3.725   4.153  19.766  0.00  0.00    +0.000 A 
ATOM      8  C   UNL     1       3.357   2.877  20.183  0.00  0.00    +0.000 A 
ATOM      9  C   UNL     1       2.011   2.608  20.441  0.00  0.00    +0.000 A 
ATOM     10  C   UNL     1       1.061   3.633  20.397  0.00  0.00    +0.000 A 
ATOM     11  C   UNL     1       1.417   4.906  19.952  0.00  0.00    +0.000 A 
ATOM     12  C   UNL     1       2.726   5.124  19.529  0.00  0.00    +0.000 A 
ATOM     13  C   UNL     1       3.006   6.060  18.427  0.00  0.00    +0.000 A 
ATOM     14  C   UNL     1       3.135   5.298  17.315  0.00  0.00    +0.000 A 
ATOM     15  C   UNL     1       4.515   4.895  16.962  0.00  0.00    +0.000 A 
ATOM     16  C   UNL     1       4.801   4.621  15.619  0.00  0.00    +0.000 A 
ENDROOT
BRANCH   1  18
ATOM     17  C   UNL     1       5.170   3.706  12.981  0.00  0.00    +0.000 C 
ATOM     18  C   UNL     1       6.459   3.918  13.788  0.00  0.00    +0.000 C 
BRANCH  18  19
ATOM     19  C   UNL     1       7.418   4.839  13.046  0.00  0.00    +0.000 C 
ATOM     20  O   UNL     1       8.097   5.712  13.583  0.00  0.00    +0.000 OA
BRANCH  19  21
ATOM     21  O   UNL     1       7.444   4.647  11.711  0.00  0.00    +0.000 OA
ATOM     22  H   UNL     1       8.139   4.029  11.417  0.00  0.00    +0.000 HD
ENDBRANCH  19  21
ENDBRANCH  18  19
ENDBRANCH   1  18
BRANCH   3  23
ATOM     23  O   UNL     1       7.884   4.726  18.392  0.00  0.00    +0.000 OA
ATOM     24  H   UNL     1       7.622   5.271  19.153  0.00  0.00    +0.000 HD
ENDBRANCH   3  23
TORSDOF 4
ENDMDL
MODEL 4
REMARK VINA RESULT:      -8.0      0.982      1.080
REMARK  Name = 
REMARK  5 active torsions:
REMARK  status: ('A' for Active; 'I' for Inactive)
REMARK    1  A    between atoms: C_1  and  C_2
REMARK    2  A    between atoms: C_2  and  C_3
REMARK    3  A    between atoms: C_2  and  C_6
REMARK    4  A    between atoms: C_3  and  O_5
REMARK    5  A    between atoms: C_8  and  O_9
REMARK                            x       y       z     vdW  Elec       q    Type
REMARK                         _______ _______ _______ _____ _____    ______ ____
ROOT
ATOM      1  C   UNL     1       5.208   6.218  16.602  0.00  0.00    +0.000 A 
ATOM      2  C   UNL     1       4.567   7.407  16.985  0.00  0.00    +0.000 A 
ATOM      3  C   UNL     1       3.438   7.375  17.807  0.00  0.00    +0.000 A 
ATOM      4  C   UNL     1       2.926   6.155  18.258  0.00  0.00    +0.000 A 
ATOM      5  C   UNL     1       2.019   6.086  19.472  0.00  0.00    +0.000 A 
ATOM      6  O   UNL     1       1.535   7.078  19.999  0.00  0.00    +0.000 OA
ATOM      7  C   UNL     1       1.761   4.777  20.152  0.00  0.00    +0.000 A 
ATOM      8  C   UNL     1       2.279   4.546  21.424  0.00  0.00    +0.000 A 
ATOM      9  C   UNL     1       2.113   3.288  22.007  0.00  0.00    +0.000 A 
ATOM     10  C   UNL     1       1.337   2.310  21.377  0.00  0.00    +0.000 A 
ATOM     11  C   UNL     1       0.841   2.524  20.091  0.00  0.00    +0.000 A 
ATOM     12  C   UNL     1       1.156   3.716  19.443  0.00  0.00    +0.000 A 
ATOM     13  C   UNL     1       1.355   3.739  17.984  0.00  0.00    +0.000 A 
ATOM     14  C   UNL     1       2.693   3.676  17.790  0.00  0.00    +0.000 A 
ATOM     15  C   UNL     1       3.387   4.974  17.632  0.00  0.00    +0.000 A 
ATOM     16  C   UNL     1       4.582   5.000  16.901  0.00  0.00    +0.000 A 
ENDROOT
BRANCH   1  18
ATOM     17  C   UNL     1       7.567   7.025  16.871  0.00  0.00    +0.000 C 
ATOM     18  C   UNL     1       6.585   6.293  15.946  0.00  0.00    +0.000 C 
BRANCH  18  19
ATOM     19  C   UNL     1       7.150   4.946  15.512  0.00  0.00    +0.000 C 
ATOM     20  O   UNL     1       6.915   4.411  14.431  0.00  0.00    +0.000 OA
BRANCH  19  21
ATOM     21  O   UNL     1       7.921   4.347  16.443  0.00  0.00    +0.000 OA
ATOM     22  H   UNL     1       7.536   4.360  17.339  0.00  0.00    +0.000 HD
ENDBRANCH  19  21
ENDBRANCH  18  19
ENDBRANCH   1  18
BRANCH   3  23
ATOM     23  O   UNL     1       2.866   8.561  18.160  0.00  0.00    +0.000 OA
ATOM     24  H   UNL     1       2.076   8.716  17.616  0.00  0.00    +0.000 HD
ENDBRANCH   3  23
TORSDOF 4
ENDMDL
MODEL 5
REMARK VINA RESULT:      -7.9      2.183      3.074
REMARK  Name = 
REMARK  5 active torsions:
REMARK  status: ('A' for Active; 'I' for Inactive)
REMARK    1  A    between atoms: C_1  and  C_2
REMARK    2  A    between atoms: C_2  and  C_3
REMARK    3  A    between atoms: C_2  and  C_6
REMARK    4  A    between atoms: C_3  and  O_5
REMARK    5  A    between atoms: C_8  and  O_9
REMARK                            x       y       z     vdW  Elec       q    Type
REMARK                         _______ _______ _______ _____ _____    ______ ____
ROOT
ATOM      1  C   UNL     1       6.150   5.049  14.903  0.00  0.00    +0.000 A 
ATOM      2  C   UNL     1       7.174   4.641  15.774  0.00  0.00    +0.000 A 
ATOM      3  C   UNL     1       6.922   4.463  17.137  0.00  0.00    +0.000 A 
ATOM      4  C   UNL     1       5.645   4.692  17.655  0.00  0.00    +0.000 A 
ATOM      5  C   UNL     1       5.220   4.098  18.984  0.00  0.00    +0.000 A 
ATOM      6  O   UNL     1       6.004   3.560  19.754  0.00  0.00    +0.000 OA
ATOM      7  C   UNL     1       3.772   4.050  19.366  0.00  0.00    +0.000 A 
ATOM      8  C   UNL     1       3.115   2.824  19.427  0.00  0.00    +0.000 A 
ATOM      9  C   UNL     1       1.744   2.801  19.689  0.00  0.00    +0.000 A 
ATOM     10  C   UNL     1       1.061   3.979  20.003  0.00  0.00    +0.000 A 
ATOM     11  C   UNL     1       1.706   5.212  19.914  0.00  0.00    +0.000 A 
ATOM     12  C   UNL     1       3.030   5.245  19.483  0.00  0.00    +0.000 A 
ATOM     13  C   UNL     1       3.521   6.375  18.676  0.00  0.00    +0.000 A 
ATOM     14  C   UNL     1       3.469   5.962  17.388  0.00  0.00    +0.000 A 
ATOM     15  C   UNL     1       4.716   5.382  16.841  0.00  0.00    +0.000 A 
ATOM     16  C   UNL     1       4.930   5.456  15.459  0.00  0.00    +0.000 A 
ENDROOT
BRANCH   1  18
ATOM     17  C   UNL     1       7.872   5.125  13.082  0.00  0.00    +0.000 C 
ATOM     18  C   UNL     1       6.377   4.965  13.396  0.00  0.00    +0.000 C 
BRANCH  18  19
ATOM     19  C   UNL     1       5.818   3.707  12.743  0.00  0.00    +0.000 C 
ATOM     20  O   UNL     1       4.634   3.542  12.458  0.00  0.00    +0.000 OA
BRANCH  19  21
ATOM     21  O   UNL     1       6.737   2.743  12.528  0.00  0.00    +0.000 OA
ATOM     22  H   UNL     1       7.412   2.680  13.230  0.00  0.00    +0.000 HD
ENDBRANCH  19  21
ENDBRANCH  18  19
ENDBRANCH   1  18
BRANCH   3  23
ATOM     23  O   UNL     1       7.950   4.050  17.931  0.00  0.00    +0.000 OA
ATOM     24  H   UNL     1       8.497   3.408  17.448  0.00  0.00    +0.000 HD
ENDBRANCH   3  23
TORSDOF 4
ENDMDL
MODEL 6
REMARK VINA RESULT:      -7.4      2.047      6.435
REMARK  Name = 
REMARK  5 active torsions:
REMARK  status: ('A' for Active; 'I' for Inactive)
REMARK    1  A    between atoms: C_1  and  C_2
REMARK    2  A    between atoms: C_2  and  C_3
REMARK    3  A    between atoms: C_2  and  C_6
REMARK    4  A    between atoms: C_3  and  O_5
REMARK    5  A    between atoms: C_8  and  O_9
REMARK                            x       y       z     vdW  Elec       q    Type
REMARK                         _______ _______ _______ _____ _____    ______ ____
ROOT
ATOM      1  C   UNL     1       2.180   4.376  20.102  0.00  0.00    +0.000 A 
ATOM      2  C   UNL     1       1.865   5.736  19.951  0.00  0.00    +0.000 A 
ATOM      3  C   UNL     1       2.675   6.573  19.179  0.00  0.00    +0.000 A 
ATOM      4  C   UNL     1       3.814   6.069  18.547  0.00  0.00    +0.000 A 
ATOM      5  C   UNL     1       4.446   6.794  17.374  0.00  0.00    +0.000 A 
ATOM      6  O   UNL     1       4.127   7.927  17.042  0.00  0.00    +0.000 OA
ATOM      7  C   UNL     1       5.433   6.093  16.492  0.00  0.00    +0.000 A 
ATOM      8  C   UNL     1       5.085   5.779  15.181  0.00  0.00    +0.000 A 
ATOM      9  C   UNL     1       5.976   5.041  14.400  0.00  0.00    +0.000 A 
ATOM     10  C   UNL     1       7.249   4.723  14.883  0.00  0.00    +0.000 A 
ATOM     11  C   UNL     1       7.592   5.008  16.204  0.00  0.00    +0.000 A 
ATOM     12  C   UNL     1       6.636   5.590  17.033  0.00  0.00    +0.000 A 
ATOM     13  C   UNL     1       6.591   5.254  18.466  0.00  0.00    +0.000 A 
ATOM     14  C   UNL     1       5.633   4.306  18.596  0.00  0.00    +0.000 A 
ATOM     15  C   UNL     1       4.280   4.795  18.946  0.00  0.00    +0.000 A 
ATOM     16  C   UNL     1       3.418   3.925  19.625  0.00  0.00    +0.000 A 
ENDROOT
BRANCH   1  18
ATOM     17  C   UNL     1       0.573   2.512  19.622  0.00  0.00    +0.000 C 
ATOM     18  C   UNL     1       1.142   3.435  20.710  0.00  0.00    +0.000 C 
BRANCH  18  19
ATOM     19  C   UNL     1       1.645   2.626  21.899  0.00  0.00    +0.000 C 
ATOM     20  O   UNL     1       2.818   2.304  22.073  0.00  0.00    +0.000 OA
BRANCH  19  21
ATOM     21  O   UNL     1       0.674   2.246  22.756  0.00  0.00    +0.000 OA
ATOM     22  H   UNL     1       0.783   1.337  23.093  0.00  0.00    +0.000 HD
ENDBRANCH  19  21
ENDBRANCH  18  19
ENDBRANCH   1  18
BRANCH   3  23
ATOM     23  O   UNL     1       2.311   7.882  19.054  0.00  0.00    +0.000 OA
ATOM     24  H   UNL     1       3.023   8.377  18.618  0.00  0.00    +0.000 HD
ENDBRANCH   3  23
TORSDOF 4
ENDMDL
MODEL 7
REMARK VINA RESULT:      -7.4      2.203      3.549
REMARK  Name = 
REMARK  5 active torsions:
REMARK  status: ('A' for Active; 'I' for Inactive)
REMARK    1  A    between atoms: C_1  and  C_2
REMARK    2  A    between atoms: C_2  and  C_3
REMARK    3  A    between atoms: C_2  and  C_6
REMARK    4  A    between atoms: C_3  and  O_5
REMARK    5  A    between atoms: C_8  and  O_9
REMARK                            x       y       z     vdW  Elec       q    Type
REMARK                         _______ _______ _______ _____ _____    ______ ____
ROOT
ATOM      1  C   UNL     1       5.908   4.125  14.500  0.00  0.00    +0.000 A 
ATOM      2  C   UNL     1       7.057   3.982  15.295  0.00  0.00    +0.000 A 
ATOM      3  C   UNL     1       7.048   4.372  16.637  0.00  0.00    +0.000 A 
ATOM      4  C   UNL     1       5.894   4.916  17.207  0.00  0.00    +0.000 A 
ATOM      5  C   UNL     1       5.694   4.930  18.710  0.00  0.00    +0.000 A 
ATOM      6  O   UNL     1       6.584   4.654  19.503  0.00  0.00    +0.000 OA
ATOM      7  C   UNL     1       4.338   5.185  19.293  0.00  0.00    +0.000 A 
ATOM      8  C   UNL     1       3.659   4.155  19.937  0.00  0.00    +0.000 A 
ATOM      9  C   UNL     1       2.357   4.378  20.390  0.00  0.00    +0.000 A 
ATOM     10  C   UNL     1       1.785   5.651  20.307  0.00  0.00    +0.000 A 
ATOM     11  C   UNL     1       2.448   6.679  19.637  0.00  0.00    +0.000 A 
ATOM     12  C   UNL     1       3.673   6.404  19.034  0.00  0.00    +0.000 A 
ATOM     13  C   UNL     1       4.052   7.075  17.780  0.00  0.00    +0.000 A 
ATOM     14  C   UNL     1       3.753   6.204  16.787  0.00  0.00    +0.000 A 
ATOM     15  C   UNL     1       4.860   5.330  16.336  0.00  0.00    +0.000 A 
ATOM     16  C   UNL     1       4.824   4.841  15.024  0.00  0.00    +0.000 A 
ENDROOT
BRANCH   1  18
ATOM     17  C   UNL     1       4.550   3.804  12.417  0.00  0.00    +0.000 C 
ATOM     18  C   UNL     1       5.857   3.441  13.135  0.00  0.00    +0.000 C 
BRANCH  18  19
ATOM     19  C   UNL     1       7.061   3.721  12.245  0.00  0.00    +0.000 C 
ATOM     20  O   UNL     1       7.571   4.829  12.095  0.00  0.00    +0.000 OA
BRANCH  19  21
ATOM     21  O   UNL     1       7.520   2.637  11.584  0.00  0.00    +0.000 OA
ATOM     22  H   UNL     1       7.994   2.853  10.759  0.00  0.00    +0.000 HD
ENDBRANCH  19  21
ENDBRANCH  18  19
ENDBRANCH   1  18
BRANCH   3  23
ATOM     23  O   UNL     1       8.187   4.193  17.365  0.00  0.00    +0.000 OA
ATOM     24  H   UNL     1       8.736   4.993  17.310  0.00  0.00    +0.000 HD
ENDBRANCH   3  23
TORSDOF 4
ENDMDL
MODEL 8
REMARK VINA RESULT:      -7.2      3.087      6.945
REMARK  Name = 
REMARK  5 active torsions:
REMARK  status: ('A' for Active; 'I' for Inactive)
REMARK    1  A    between atoms: C_1  and  C_2
REMARK    2  A    between atoms: C_2  and  C_3
REMARK    3  A    between atoms: C_2  and  C_6
REMARK    4  A    between atoms: C_3  and  O_5
REMARK    5  A    between atoms: C_8  and  O_9
REMARK                            x       y       z     vdW  Elec       q    Type
REMARK                         _______ _______ _______ _____ _____    ______ ____
ROOT
ATOM      1  C   UNL     1       1.329   8.019  20.573  0.00  0.00    +0.000 A 
ATOM      2  C   UNL     1       1.128   6.715  21.055  0.00  0.00    +0.000 A 
ATOM      3  C   UNL     1       1.905   5.654  20.582  0.00  0.00    +0.000 A 
ATOM      4  C   UNL     1       2.891   5.874  19.619  0.00  0.00    +0.000 A 
ATOM      5  C   UNL     1       4.024   4.885  19.415  0.00  0.00    +0.000 A 
ATOM      6  O   UNL     1       4.038   3.774  19.928  0.00  0.00    +0.000 OA
ATOM      7  C   UNL     1       5.248   5.280  18.647  0.00  0.00    +0.000 A 
ATOM      8  C   UNL     1       6.461   5.431  19.312  0.00  0.00    +0.000 A 
ATOM      9  C   UNL     1       7.572   5.893  18.603  0.00  0.00    +0.000 A 
ATOM     10  C   UNL     1       7.500   6.088  17.221  0.00  0.00    +0.000 A 
ATOM     11  C   UNL     1       6.282   5.968  16.554  0.00  0.00    +0.000 A 
ATOM     12  C   UNL     1       5.140   5.676  17.296  0.00  0.00    +0.000 A 
ATOM     13  C   UNL     1       3.835   6.238  16.905  0.00  0.00    +0.000 A 
ATOM     14  C   UNL     1       3.651   7.328  17.687  0.00  0.00    +0.000 A 
ATOM     15  C   UNL     1       2.880   7.110  18.932  0.00  0.00    +0.000 A 
ATOM     16  C   UNL     1       2.185   8.197  19.478  0.00  0.00    +0.000 A 
ENDROOT
BRANCH   1  18
ATOM     17  C   UNL     1      -0.857   9.053  21.237  0.00  0.00    +0.000 C 
ATOM     18  C   UNL     1       0.671   9.190  21.299  0.00  0.00    +0.000 C 
BRANCH  18  19
ATOM     19  C   UNL     1       1.140   9.385  22.735  0.00  0.00    +0.000 C 
ATOM     20  O   UNL     1       0.395   9.624  23.682  0.00  0.00    +0.000 OA
BRANCH  19  21
ATOM     21  O   UNL     1       2.479   9.308  22.892  0.00  0.00    +0.000 OA
ATOM     22  H   UNL     1       2.799   9.704  23.724  0.00  0.00    +0.000 HD
ENDBRANCH  19  21
ENDBRANCH  18  19
ENDBRANCH   1  18
BRANCH   3  23
ATOM     23  O   UNL     1       1.677   4.412  21.098  0.00  0.00    +0.000 OA
ATOM     24  H   UNL     1       1.309   3.836  20.407  0.00  0.00    +0.000 HD
ENDBRANCH   3  23
TORSDOF 4
ENDMDL
MODEL 9
REMARK VINA RESULT:      -7.2      2.280      6.558
REMARK  Name = 
REMARK  5 active torsions:
REMARK  status: ('A' for Active; 'I' for Inactive)
REMARK    1  A    between atoms: C_1  and  C_2
REMARK    2  A    between atoms: C_2  and  C_3
REMARK    3  A    between atoms: C_2  and  C_6
REMARK    4  A    between atoms: C_3  and  O_5
REMARK    5  A    between atoms: C_8  and  O_9
REMARK                            x       y       z     vdW  Elec       q    Type
REMARK                         _______ _______ _______ _____ _____    ______ ____
ROOT
ATOM      1  C   UNL     1       2.296   4.047  18.679  0.00  0.00    +0.000 A 
ATOM      2  C   UNL     1       2.943   3.030  17.958  0.00  0.00    +0.000 A 
ATOM      3  C   UNL     1       4.155   3.277  17.309  0.00  0.00    +0.000 A 
ATOM      4  C   UNL     1       4.741   4.544  17.364  0.00  0.00    +0.000 A 
ATOM      5  C   UNL     1       6.218   4.739  17.078  0.00  0.00    +0.000 A 
ATOM      6  O   UNL     1       6.926   3.860  16.605  0.00  0.00    +0.000 OA
ATOM      7  C   UNL     1       6.906   6.010  17.471  0.00  0.00    +0.000 A 
ATOM      8  C   UNL     1       7.845   5.996  18.498  0.00  0.00    +0.000 A 
ATOM      9  C   UNL     1       8.408   7.202  18.920  0.00  0.00    +0.000 A 
ATOM     10  C   UNL     1       8.125   8.393  18.244  0.00  0.00    +0.000 A 
ATOM     11  C   UNL     1       7.163   8.418  17.234  0.00  0.00    +0.000 A 
ATOM     12  C   UNL     1       6.478   7.244  16.934  0.00  0.00    +0.000 A 
ATOM     13  C   UNL     1       5.067   7.293  16.514  0.00  0.00    +0.000 A 
ATOM     14  C   UNL     1       4.338   7.033  17.625  0.00  0.00    +0.000 A 
ATOM     15  C   UNL     1       3.947   5.619  17.827  0.00  0.00    +0.000 A 
ATOM     16  C   UNL     1       2.791   5.353  18.572  0.00  0.00    +0.000 A 
ENDROOT
BRANCH   1  18
ATOM     17  C   UNL     1       0.398   2.451  19.053  0.00  0.00    +0.000 C 
ATOM     18  C   UNL     1       1.134   3.682  19.601  0.00  0.00    +0.000 C 
BRANCH  18  19
ATOM     19  C   UNL     1       1.527   3.476  21.058  0.00  0.00    +0.000 C 
ATOM     20  O   UNL     1       1.190   2.509  21.737  0.00  0.00    +0.000 OA
BRANCH  19  21
ATOM     21  O   UNL     1       2.266   4.479  21.576  0.00  0.00    +0.000 OA
ATOM     22  H   UNL     1       2.141   4.604  22.536  0.00  0.00    +0.000 HD
ENDBRANCH  19  21
ENDBRANCH  18  19
ENDBRANCH   1  18
BRANCH   3  23
ATOM     23  O   UNL     1       4.746   2.247  16.638  0.00  0.00    +0.000 OA
ATOM     24  H   UNL     1       4.234   1.433  16.776  0.00  0.00    +0.000 HD
ENDBRANCH   3  23
TORSDOF 4
ENDMDL
