MODEL 1
REMARK VINA RESULT:      -6.3      0.000      0.000
REMARK  Name = 
REMARK  9 active torsions:
REMARK  status: ('A' for Active; 'I' for Inactive)
REMARK    1  A    between atoms: C_1  and  C_2
REMARK    2  A    between atoms: C_2  and  O_3
REMARK    3  A    between atoms: O_3  and  C_4
REMARK    4  A    between atoms: C_4  and  C_6
REMARK    5  A    between atoms: C_6  and  N_7
REMARK    6  A    between atoms: C_10  and  O_11
REMARK    7  A    between atoms: C_13  and  C_14
REMARK    8  A    between atoms: C_14  and  O_16
REMARK    9  A    between atoms: O_16  and  C_17
REMARK                            x       y       z     vdW  Elec       q    Type
REMARK                         _______ _______ _______ _____ _____    ______ ____
ROOT
ATOM      1  N   UNL     1       5.889   6.031  16.873  0.00  0.00    +0.000 NA
ATOM      2  C   UNL     1       7.299   6.463  16.952  0.00  0.00    +0.000 C 
ATOM      3  C   UNL     1       7.740   6.671  18.396  0.00  0.00    +0.000 C 
ATOM      4  C   UNL     1       7.553   5.395  19.204  0.00  0.00    +0.000 C 
ATOM      5  C   UNL     1       6.122   4.896  19.091  0.00  0.00    +0.000 C 
ATOM      6  C   UNL     1       5.703   4.752  17.622  0.00  0.00    +0.000 C 
ENDROOT
BRANCH   4   7
ATOM      7  O   UNL     1       7.877   5.630  20.572  0.00  0.00    +0.000 OA
ATOM      8  H   UNL     1       8.282   6.514  20.634  0.00  0.00    +0.000 HD
ENDBRANCH   4   7
BRANCH   6   9
ATOM      9  C   UNL     1       4.255   4.245  17.578  0.00  0.00    +0.000 C 
ATOM     10  O   UNL     1       3.282   4.976  17.744  0.00  0.00    +0.000 OA
BRANCH   9  11
ATOM     11  O   UNL     1       4.183   2.899  17.377  0.00  0.00    +0.000 OA
ATOM     12  C   UNL     1       2.940   2.316  17.770  0.00  0.00    +0.000 C 
ENDBRANCH   9  11
ENDBRANCH   6   9
BRANCH   1  13
ATOM     13  C   UNL     1       5.471   5.878  15.450  0.00  0.00    +0.000 C 
BRANCH  13  14
ATOM     14  C   UNL     1       6.440   5.042  14.608  0.00  0.00    +0.000 C 
ATOM     15  O   UNL     1       7.613   5.290  14.363  0.00  0.00    +0.000 OA
BRANCH  14  16
ATOM     16  O   UNL     1       5.754   3.971  14.099  0.00  0.00    +0.000 OA
BRANCH  16  18
ATOM     17  C   UNL     1       4.934   3.322  11.944  0.00  0.00    +0.000 C 
ATOM     18  C   UNL     1       6.171   3.545  12.796  0.00  0.00    +0.000 C 
ENDBRANCH  16  18
ENDBRANCH  14  16
ENDBRANCH  13  14
ENDBRANCH   1  13
TORSDOF 7
ENDMDL
MODEL 2
REMARK VINA RESULT:      -6.2      1.503      3.469
REMARK  Name = 
REMARK  9 active torsions:
REMARK  status: ('A' for Active; 'I' for Inactive)
REMARK    1  A    between atoms: C_1  and  C_2
REMARK    2  A    between atoms: C_2  and  O_3
REMARK    3  A    between atoms: O_3  and  C_4
REMARK    4  A    between atoms: C_4  and  C_6
REMARK    5  A    between atoms: C_6  and  N_7
REMARK    6  A    between atoms: C_10  and  O_11
REMARK    7  A    between atoms: C_13  and  C_14
REMARK    8  A    between atoms: C_14  and  O_16
REMARK    9  A    between atoms: O_16  and  C_17
REMARK                            x       y       z     vdW  Elec       q    Type
REMARK                         _______ _______ _______ _____ _____    ______ ____
ROOT
ATOM      1  N   UNL     1       5.351   4.427  16.656  0.00  0.00    +0.000 NA
ATOM      2  C   UNL     1       3.887   4.245  16.726  0.00  0.00    +0.000 C 
ATOM      3  C   UNL     1       3.501   3.230  17.796  0.00  0.00    +0.000 C 
ATOM      4  C   UNL     1       4.027   3.658  19.159  0.00  0.00    +0.000 C 
ATOM      5  C   UNL     1       5.525   3.910  19.098  0.00  0.00    +0.000 C 
ATOM      6  C   UNL     1       5.873   4.896  17.975  0.00  0.00    +0.000 C 
ENDROOT
BRANCH   4   7
ATOM      7  O   UNL     1       3.744   2.655  20.130  0.00  0.00    +0.000 OA
ATOM      8  H   UNL     1       3.095   2.040  19.742  0.00  0.00    +0.000 HD
ENDBRANCH   4   7
BRANCH   6   9
ATOM      9  C   UNL     1       7.393   5.107  17.969  0.00  0.00    +0.000 C 
ATOM     10  O   UNL     1       8.187   4.268  17.552  0.00  0.00    +0.000 OA
BRANCH   9  11
ATOM     11  O   UNL     1       7.752   6.304  18.513  0.00  0.00    +0.000 OA
ATOM     12  C   UNL     1       7.648   7.409  17.614  0.00  0.00    +0.000 C 
ENDBRANCH   9  11
ENDBRANCH   6   9
BRANCH   1  13
ATOM     13  C   UNL     1       5.703   5.390  15.573  0.00  0.00    +0.000 C 
BRANCH  13  14
ATOM     14  C   UNL     1       6.747   4.856  14.587  0.00  0.00    +0.000 C 
ATOM     15  O   UNL     1       7.785   5.402  14.240  0.00  0.00    +0.000 OA
BRANCH  14  16
ATOM     16  O   UNL     1       6.294   3.665  14.085  0.00  0.00    +0.000 OA
BRANCH  16  18
ATOM     17  C   UNL     1       5.853   2.748  11.916  0.00  0.00    +0.000 C 
ATOM     18  C   UNL     1       5.425   3.775  12.950  0.00  0.00    +0.000 C 
ENDBRANCH  16  18
ENDBRANCH  14  16
ENDBRANCH  13  14
ENDBRANCH   1  13
TORSDOF 7
ENDMDL
MODEL 3
REMARK VINA RESULT:      -6.1      3.050      5.223
REMARK  Name = 
REMARK  9 active torsions:
REMARK  status: ('A' for Active; 'I' for Inactive)
REMARK    1  A    between atoms: C_1  and  C_2
REMARK    2  A    between atoms: C_2  and  O_3
REMARK    3  A    between atoms: O_3  and  C_4
REMARK    4  A    between atoms: C_4  and  C_6
REMARK    5  A    between atoms: C_6  and  N_7
REMARK    6  A    between atoms: C_10  and  O_11
REMARK    7  A    between atoms: C_13  and  C_14
REMARK    8  A    between atoms: C_14  and  O_16
REMARK    9  A    between atoms: O_16  and  C_17
REMARK                            x       y       z     vdW  Elec       q    Type
REMARK                         _______ _______ _______ _____ _____    ______ ____
ROOT
ATOM      1  N   UNL     1       4.280   4.871  18.469  0.00  0.00    +0.000 NA
ATOM      2  C   UNL     1       4.576   3.545  17.891  0.00  0.00    +0.000 C 
ATOM      3  C   UNL     1       3.547   2.505  18.321  0.00  0.00    +0.000 C 
ATOM      4  C   UNL     1       2.145   2.935  17.915  0.00  0.00    +0.000 C 
ATOM      5  C   UNL     1       1.837   4.325  18.449  0.00  0.00    +0.000 C 
ATOM      6  C   UNL     1       2.924   5.327  18.036  0.00  0.00    +0.000 C 
ENDROOT
BRANCH   4   7
ATOM      7  O   UNL     1       1.186   2.005  18.408  0.00  0.00    +0.000 OA
ATOM      8  H   UNL     1       0.904   1.445  17.662  0.00  0.00    +0.000 HD
ENDBRANCH   4   7
BRANCH   6   9
ATOM      9  C   UNL     1       2.554   6.705  18.604  0.00  0.00    +0.000 C 
ATOM     10  O   UNL     1       2.451   6.931  19.806  0.00  0.00    +0.000 OA
BRANCH   9  11
ATOM     11  O   UNL     1       2.317   7.621  17.623  0.00  0.00    +0.000 OA
ATOM     12  C   UNL     1       2.076   8.943  18.106  0.00  0.00    +0.000 C 
ENDBRANCH   9  11
ENDBRANCH   6   9
BRANCH   1  13
ATOM     13  C   UNL     1       5.324   5.857  18.069  0.00  0.00    +0.000 C 
BRANCH  13  14
ATOM     14  C   UNL     1       6.652   5.687  18.813  0.00  0.00    +0.000 C 
ATOM     15  O   UNL     1       6.822   5.202  19.924  0.00  0.00    +0.000 OA
BRANCH  14  16
ATOM     16  O   UNL     1       7.646   6.240  18.050  0.00  0.00    +0.000 OA
BRANCH  16  18
ATOM     17  C   UNL     1       8.027   8.595  17.834  0.00  0.00    +0.000 C 
ATOM     18  C   UNL     1       7.262   7.398  17.297  0.00  0.00    +0.000 C 
ENDBRANCH  16  18
ENDBRANCH  14  16
ENDBRANCH  13  14
ENDBRANCH   1  13
TORSDOF 7
ENDMDL
MODEL 4
REMARK VINA RESULT:      -6.1      2.195      2.771
REMARK  Name = 
REMARK  9 active torsions:
REMARK  status: ('A' for Active; 'I' for Inactive)
REMARK    1  A    between atoms: C_1  and  C_2
REMARK    2  A    between atoms: C_2  and  O_3
REMARK    3  A    between atoms: O_3  and  C_4
REMARK    4  A    between atoms: C_4  and  C_6
REMARK    5  A    between atoms: C_6  and  N_7
REMARK    6  A    between atoms: C_10  and  O_11
REMARK    7  A    between atoms: C_13  and  C_14
REMARK    8  A    between atoms: C_14  and  O_16
REMARK    9  A    between atoms: O_16  and  C_17
REMARK                            x       y       z     vdW  Elec       q    Type
REMARK                         _______ _______ _______ _____ _____    ______ ____
ROOT
ATOM      1  N   UNL     1       4.507   4.958  16.790  0.00  0.00    +0.000 NA
ATOM      2  C   UNL     1       5.071   6.294  17.068  0.00  0.00    +0.000 C 
ATOM      3  C   UNL     1       3.975   7.321  17.329  0.00  0.00    +0.000 C 
ATOM      4  C   UNL     1       3.098   6.887  18.494  0.00  0.00    +0.000 C 
ATOM      5  C   UNL     1       2.552   5.488  18.260  0.00  0.00    +0.000 C 
ATOM      6  C   UNL     1       3.683   4.499  17.949  0.00  0.00    +0.000 C 
ENDROOT
BRANCH   4   7
ATOM      7  O   UNL     1       2.022   7.804  18.665  0.00  0.00    +0.000 OA
ATOM      8  H   UNL     1       1.533   7.848  17.824  0.00  0.00    +0.000 HD
ENDBRANCH   4   7
BRANCH   6   9
ATOM      9  C   UNL     1       3.067   3.111  17.725  0.00  0.00    +0.000 C 
ATOM     10  O   UNL     1       2.119   2.911  16.970  0.00  0.00    +0.000 OA
BRANCH   9  11
ATOM     11  O   UNL     1       3.664   2.151  18.485  0.00  0.00    +0.000 OA
ATOM     12  C   UNL     1       4.180   2.628  19.729  0.00  0.00    +0.000 C 
ENDBRANCH   9  11
ENDBRANCH   6   9
BRANCH   1  13
ATOM     13  C   UNL     1       5.597   3.984  16.495  0.00  0.00    +0.000 C 
BRANCH  13  14
ATOM     14  C   UNL     1       6.419   4.336  15.251  0.00  0.00    +0.000 C 
ATOM     15  O   UNL     1       7.557   4.782  15.217  0.00  0.00    +0.000 OA
BRANCH  14  16
ATOM     16  O   UNL     1       5.636   4.130  14.146  0.00  0.00    +0.000 OA
BRANCH  16  18
ATOM     17  C   UNL     1       5.397   3.105  11.994  0.00  0.00    +0.000 C 
ATOM     18  C   UNL     1       6.350   3.806  12.947  0.00  0.00    +0.000 C 
ENDBRANCH  16  18
ENDBRANCH  14  16
ENDBRANCH  13  14
ENDBRANCH   1  13
TORSDOF 7
ENDMDL
MODEL 5
REMARK VINA RESULT:      -6.0      2.509      4.963
REMARK  Name = 
REMARK  9 active torsions:
REMARK  status: ('A' for Active; 'I' for Inactive)
REMARK    1  A    between atoms: C_1  and  C_2
REMARK    2  A    between atoms: C_2  and  O_3
REMARK    3  A    between atoms: O_3  and  C_4
REMARK    4  A    between atoms: C_4  and  C_6
REMARK    5  A    between atoms: C_6  and  N_7
REMARK    6  A    between atoms: C_10  and  O_11
REMARK    7  A    between atoms: C_13  and  C_14
REMARK    8  A    between atoms: C_14  and  O_16
REMARK    9  A    between atoms: O_16  and  C_17
REMARK                            x       y       z     vdW  Elec       q    Type
REMARK                         _______ _______ _______ _____ _____    ______ ____
ROOT
ATOM      1  N   UNL     1       4.117   5.748  17.801  0.00  0.00    +0.000 NA
ATOM      2  C   UNL     1       4.978   6.819  17.260  0.00  0.00    +0.000 C 
ATOM      3  C   UNL     1       6.421   6.353  17.108  0.00  0.00    +0.000 C 
ATOM      4  C   UNL     1       6.499   5.133  16.202  0.00  0.00    +0.000 C 
ATOM      5  C   UNL     1       5.576   4.035  16.704  0.00  0.00    +0.000 C 
ATOM      6  C   UNL     1       4.147   4.561  16.894  0.00  0.00    +0.000 C 
ENDROOT
BRANCH   4   7
ATOM      7  O   UNL     1       7.839   4.650  16.146  0.00  0.00    +0.000 OA
ATOM      8  H   UNL     1       7.867   3.929  15.492  0.00  0.00    +0.000 HD
ENDBRANCH   4   7
BRANCH   6   9
ATOM      9  C   UNL     1       3.268   3.408  17.399  0.00  0.00    +0.000 C 
ATOM     10  O   UNL     1       2.189   3.113  16.893  0.00  0.00    +0.000 OA
BRANCH   9  11
ATOM     11  O   UNL     1       3.805   2.788  18.488  0.00  0.00    +0.000 OA
ATOM     12  C   UNL     1       3.577   1.379  18.528  0.00  0.00    +0.000 C 
ENDBRANCH   9  11
ENDBRANCH   6   9
BRANCH   1  13
ATOM     13  C   UNL     1       2.723   6.243  17.982  0.00  0.00    +0.000 C 
BRANCH  13  14
ATOM     14  C   UNL     1       2.275   6.308  19.446  0.00  0.00    +0.000 C 
ATOM     15  O   UNL     1       2.395   7.251  20.216  0.00  0.00    +0.000 OA
BRANCH  14  16
ATOM     16  O   UNL     1       1.764   5.086  19.793  0.00  0.00    +0.000 OA
BRANCH  16  18
ATOM     17  C   UNL     1       1.598   3.204  21.267  0.00  0.00    +0.000 C 
ATOM     18  C   UNL     1       2.191   4.588  21.068  0.00  0.00    +0.000 C 
ENDBRANCH  16  18
ENDBRANCH  14  16
ENDBRANCH  13  14
ENDBRANCH   1  13
TORSDOF 7
ENDMDL
MODEL 6
REMARK VINA RESULT:      -5.9      2.538      5.149
REMARK  Name = 
REMARK  9 active torsions:
REMARK  status: ('A' for Active; 'I' for Inactive)
REMARK    1  A    between atoms: C_1  and  C_2
REMARK    2  A    between atoms: C_2  and  O_3
REMARK    3  A    between atoms: O_3  and  C_4
REMARK    4  A    between atoms: C_4  and  C_6
REMARK    5  A    between atoms: C_6  and  N_7
REMARK    6  A    between atoms: C_10  and  O_11
REMARK    7  A    between atoms: C_13  and  C_14
REMARK    8  A    between atoms: C_14  and  O_16
REMARK    9  A    between atoms: O_16  and  C_17
REMARK                            x       y       z     vdW  Elec       q    Type
REMARK                         _______ _______ _______ _____ _____    ______ ____
ROOT
ATOM      1  N   UNL     1       3.965   5.610  17.807  0.00  0.00    +0.000 NA
ATOM      2  C   UNL     1       4.523   6.712  16.997  0.00  0.00    +0.000 C 
ATOM      3  C   UNL     1       5.975   6.445  16.616  0.00  0.00    +0.000 C 
ATOM      4  C   UNL     1       6.098   5.138  15.848  0.00  0.00    +0.000 C 
ATOM      5  C   UNL     1       5.476   3.995  16.635  0.00  0.00    +0.000 C 
ATOM      6  C   UNL     1       4.034   4.328  17.043  0.00  0.00    +0.000 C 
ENDROOT
BRANCH   4   7
ATOM      7  O   UNL     1       7.468   4.852  15.583  0.00  0.00    +0.000 OA
ATOM      8  H   UNL     1       7.683   4.004  16.011  0.00  0.00    +0.000 HD
ENDBRANCH   4   7
BRANCH   6   9
ATOM      9  C   UNL     1       3.466   3.139  17.830  0.00  0.00    +0.000 C 
ATOM     10  O   UNL     1       4.055   2.611  18.770  0.00  0.00    +0.000 OA
BRANCH   9  11
ATOM     11  O   UNL     1       2.266   2.719  17.339  0.00  0.00    +0.000 OA
ATOM     12  C   UNL     1       1.413   2.121  18.315  0.00  0.00    +0.000 C 
ENDBRANCH   9  11
ENDBRANCH   6   9
BRANCH   1  13
ATOM     13  C   UNL     1       2.560   5.916  18.203  0.00  0.00    +0.000 C 
BRANCH  13  14
ATOM     14  C   UNL     1       2.424   6.452  19.631  0.00  0.00    +0.000 C 
ATOM     15  O   UNL     1       2.165   7.598  19.971  0.00  0.00    +0.000 OA
BRANCH  14  16
ATOM     16  O   UNL     1       2.712   5.434  20.501  0.00  0.00    +0.000 OA
BRANCH  16  18
ATOM     17  C   UNL     1       2.127   3.417  21.655  0.00  0.00    +0.000 C 
ATOM     18  C   UNL     1       1.609   4.575  20.818  0.00  0.00    +0.000 C 
ENDBRANCH  16  18
ENDBRANCH  14  16
ENDBRANCH  13  14
ENDBRANCH   1  13
TORSDOF 7
ENDMDL
MODEL 7
REMARK VINA RESULT:      -5.9      3.032      4.928
REMARK  Name = 
REMARK  9 active torsions:
REMARK  status: ('A' for Active; 'I' for Inactive)
REMARK    1  A    between atoms: C_1  and  C_2
REMARK    2  A    between atoms: C_2  and  O_3
REMARK    3  A    between atoms: O_3  and  C_4
REMARK    4  A    between atoms: C_4  and  C_6
REMARK    5  A    between atoms: C_6  and  N_7
REMARK    6  A    between atoms: C_10  and  O_11
REMARK    7  A    between atoms: C_13  and  C_14
REMARK    8  A    between atoms: C_14  and  O_16
REMARK    9  A    between atoms: O_16  and  C_17
REMARK                            x       y       z     vdW  Elec       q    Type
REMARK                         _______ _______ _______ _____ _____    ______ ____
ROOT
ATOM      1  N   UNL     1       3.952   4.645  19.641  0.00  0.00    +0.000 NA
ATOM      2  C   UNL     1       4.039   3.176  19.765  0.00  0.00    +0.000 C 
ATOM      3  C   UNL     1       3.203   2.663  20.932  0.00  0.00    +0.000 C 
ATOM      4  C   UNL     1       1.747   3.074  20.773  0.00  0.00    +0.000 C 
ATOM      5  C   UNL     1       1.634   4.579  20.585  0.00  0.00    +0.000 C 
ATOM      6  C   UNL     1       2.530   5.058  19.435  0.00  0.00    +0.000 C 
ENDROOT
BRANCH   4   7
ATOM      7  O   UNL     1       0.998   2.673  21.917  0.00  0.00    +0.000 OA
ATOM      8  H   UNL     1       0.475   3.440  22.214  0.00  0.00    +0.000 HD
ENDBRANCH   4   7
BRANCH   6   9
ATOM      9  C   UNL     1       2.370   6.578  19.297  0.00  0.00    +0.000 C 
ATOM     10  O   UNL     1       2.340   7.342  20.258  0.00  0.00    +0.000 OA
BRANCH   9  11
ATOM     11  O   UNL     1       2.223   6.967  17.999  0.00  0.00    +0.000 OA
ATOM     12  C   UNL     1       2.424   8.364  17.782  0.00  0.00    +0.000 C 
ENDBRANCH   9  11
ENDBRANCH   6   9
BRANCH   1  13
ATOM     13  C   UNL     1       4.811   5.125  18.521  0.00  0.00    +0.000 C 
BRANCH  13  14
ATOM     14  C   UNL     1       6.312   5.036  18.814  0.00  0.00    +0.000 C 
ATOM     15  O   UNL     1       6.889   5.379  19.837  0.00  0.00    +0.000 OA
BRANCH  14  16
ATOM     16  O   UNL     1       6.941   4.562  17.693  0.00  0.00    +0.000 OA
BRANCH  16  18
ATOM     17  C   UNL     1       6.946   4.685  15.301  0.00  0.00    +0.000 C 
ATOM     18  C   UNL     1       6.999   5.480  16.594  0.00  0.00    +0.000 C 
ENDBRANCH  16  18
ENDBRANCH  14  16
ENDBRANCH  13  14
ENDBRANCH   1  13
TORSDOF 7
ENDMDL
MODEL 8
REMARK VINA RESULT:      -5.8      2.940      5.326
REMARK  Name = 
REMARK  9 active torsions:
REMARK  status: ('A' for Active; 'I' for Inactive)
REMARK    1  A    between atoms: C_1  and  C_2
REMARK    2  A    between atoms: C_2  and  O_3
REMARK    3  A    between atoms: O_3  and  C_4
REMARK    4  A    between atoms: C_4  and  C_6
REMARK    5  A    between atoms: C_6  and  N_7
REMARK    6  A    between atoms: C_10  and  O_11
REMARK    7  A    between atoms: C_13  and  C_14
REMARK    8  A    between atoms: C_14  and  O_16
REMARK    9  A    between atoms: O_16  and  C_17
REMARK                            x       y       z     vdW  Elec       q    Type
REMARK                         _______ _______ _______ _____ _____    ______ ____
ROOT
ATOM      1  N   UNL     1       3.982   3.949  18.363  0.00  0.00    +0.000 NA
ATOM      2  C   UNL     1       3.712   2.540  18.012  0.00  0.00    +0.000 C 
ATOM      3  C   UNL     1       2.514   1.993  18.780  0.00  0.00    +0.000 C 
ATOM      4  C   UNL     1       1.273   2.832  18.511  0.00  0.00    +0.000 C 
ATOM      5  C   UNL     1       1.544   4.298  18.809  0.00  0.00    +0.000 C 
ATOM      6  C   UNL     1       2.787   4.792  18.056  0.00  0.00    +0.000 C 
ENDROOT
BRANCH   4   7
ATOM      7  O   UNL     1       0.188   2.369  19.309  0.00  0.00    +0.000 OA
ATOM      8  H   UNL     1       0.236   2.824  20.170  0.00  0.00    +0.000 HD
ENDBRANCH   4   7
BRANCH   6   9
ATOM      9  C   UNL     1       3.003   6.273  18.398  0.00  0.00    +0.000 C 
ATOM     10  O   UNL     1       3.502   7.077  17.616  0.00  0.00    +0.000 OA
BRANCH   9  11
ATOM     11  O   UNL     1       2.620   6.572  19.671  0.00  0.00    +0.000 OA
ATOM     12  C   UNL     1       2.003   7.852  19.810  0.00  0.00    +0.000 C 
ENDBRANCH   9  11
ENDBRANCH   6   9
BRANCH   1  13
ATOM     13  C   UNL     1       5.183   4.446  17.632  0.00  0.00    +0.000 C 
BRANCH  13  14
ATOM     14  C   UNL     1       6.278   5.000  18.547  0.00  0.00    +0.000 C 
ATOM     15  O   UNL     1       6.332   4.927  19.767  0.00  0.00    +0.000 OA
BRANCH  14  16
ATOM     16  O   UNL     1       7.187   5.672  17.773  0.00  0.00    +0.000 OA
BRANCH  16  18
ATOM     17  C   UNL     1       7.732   7.993  17.544  0.00  0.00    +0.000 C 
ATOM     18  C   UNL     1       7.853   6.762  18.424  0.00  0.00    +0.000 C 
ENDBRANCH  16  18
ENDBRANCH  14  16
ENDBRANCH  13  14
ENDBRANCH   1  13
TORSDOF 7
ENDMDL
MODEL 9
REMARK VINA RESULT:      -5.8      1.699      3.653
REMARK  Name = 
REMARK  9 active torsions:
REMARK  status: ('A' for Active; 'I' for Inactive)
REMARK    1  A    between atoms: C_1  and  C_2
REMARK    2  A    between atoms: C_2  and  O_3
REMARK    3  A    between atoms: O_3  and  C_4
REMARK    4  A    between atoms: C_4  and  C_6
REMARK    5  A    between atoms: C_6  and  N_7
REMARK    6  A    between atoms: C_10  and  O_11
REMARK    7  A    between atoms: C_13  and  C_14
REMARK    8  A    between atoms: C_14  and  O_16
REMARK    9  A    between atoms: O_16  and  C_17
REMARK                            x       y       z     vdW  Elec       q    Type
REMARK                         _______ _______ _______ _____ _____    ______ ____
ROOT
ATOM      1  N   UNL     1       5.883   4.405  17.347  0.00  0.00    +0.000 NA
ATOM      2  C   UNL     1       4.515   3.861  17.226  0.00  0.00    +0.000 C 
ATOM      3  C   UNL     1       3.819   3.793  18.580  0.00  0.00    +0.000 C 
ATOM      4  C   UNL     1       3.763   5.169  19.227  0.00  0.00    +0.000 C 
ATOM      5  C   UNL     1       5.154   5.777  19.310  0.00  0.00    +0.000 C 
ATOM      6  C   UNL     1       5.837   5.778  17.936  0.00  0.00    +0.000 C 
ENDROOT
BRANCH   4   7
ATOM      7  O   UNL     1       3.198   5.074  20.531  0.00  0.00    +0.000 OA
ATOM      8  H   UNL     1       3.389   4.182  20.874  0.00  0.00    +0.000 HD
ENDBRANCH   4   7
BRANCH   6   9
ATOM      9  C   UNL     1       7.231   6.403  18.088  0.00  0.00    +0.000 C 
ATOM     10  O   UNL     1       8.043   6.038  18.933  0.00  0.00    +0.000 OA
BRANCH   9  11
ATOM     11  O   UNL     1       7.437   7.427  17.212  0.00  0.00    +0.000 OA
ATOM     12  C   UNL     1       8.001   8.598  17.803  0.00  0.00    +0.000 C 
ENDBRANCH   9  11
ENDBRANCH   6   9
BRANCH   1  13
ATOM     13  C   UNL     1       6.556   4.421  16.017  0.00  0.00    +0.000 C 
BRANCH  13  14
ATOM     14  C   UNL     1       5.740   5.112  14.920  0.00  0.00    +0.000 C 
ATOM     15  O   UNL     1       5.447   6.297  14.850  0.00  0.00    +0.000 OA
BRANCH  14  16
ATOM     16  O   UNL     1       5.317   4.157  14.034  0.00  0.00    +0.000 OA
BRANCH  16  18
ATOM     17  C   UNL     1       5.600   3.116  11.895  0.00  0.00    +0.000 C 
ATOM     18  C   UNL     1       6.308   3.714  13.098  0.00  0.00    +0.000 C 
ENDBRANCH  16  18
ENDBRANCH  14  16
ENDBRANCH  13  14
ENDBRANCH   1  13
TORSDOF 7
ENDMDL
