MODEL 1
REMARK VINA RESULT:      -7.6      0.000      0.000
REMARK  Name = 
REMARK  5 active torsions:
REMARK  status: ('A' for Active; 'I' for Inactive)
REMARK    1  A    between atoms: C_1  and  C_2
REMARK    2  A    between atoms: C_2  and  C_3
REMARK    3  A    between atoms: C_6  and  C_7
REMARK    4  A    between atoms: N_17  and  C_18
REMARK    5  A    between atoms: N_22  and  C_23
REMARK                            x       y       z     vdW  Elec       q    Type
REMARK                         _______ _______ _______ _____ _____    ______ ____
ROOT
ATOM      1  C   UNL     1       6.730   5.325  17.830  0.00  0.00    +0.000 A 
ATOM      2  C   UNL     1       6.545   4.695  16.580  0.00  0.00    +0.000 A 
ATOM      3  C   UNL     1       5.434   3.883  16.339  0.00  0.00    +0.000 A 
ATOM      4  C   UNL     1       4.533   3.680  17.370  0.00  0.00    +0.000 A 
ATOM      5  C   UNL     1       4.908   3.971  18.706  0.00  0.00    +0.000 A 
ATOM      6  C   UNL     1       5.989   4.832  18.921  0.00  0.00    +0.000 A 
ATOM      7  C   UNL     1       3.910   3.760  19.756  0.00  0.00    +0.000 A 
ATOM      8  C   UNL     1       2.586   4.078  19.554  0.00  0.00    +0.000 A 
ATOM      9  C   UNL     1       1.854   3.503  20.593  0.00  0.00    +0.000 A 
ATOM     10  N   UNL     1       2.656   2.740  21.351  0.00  0.00    +0.000 NA
ATOM     11  N   UNL     1       3.850   2.765  20.704  0.00  0.00    +0.000 N 
ATOM     12  C   UNL     1       4.712   1.604  20.777  0.00  0.00    +0.000 C 
ATOM     13  S   UNL     1       2.089   4.497  17.958  0.00  0.00    +0.000 S 
ATOM     14  O   UNL     1       2.531   5.867  17.788  0.00  0.00    +0.000 OA
ATOM     15  O   UNL     1       0.710   4.097  17.860  0.00  0.00    +0.000 OA
ATOM     16  N   UNL     1       3.131   3.394  17.035  0.00  0.00    +0.000 N 
ATOM     17  C   UNL     1       2.718   1.973  17.188  0.00  0.00    +0.000 C 
ENDROOT
BRANCH   1  21
ATOM     18  C   UNL     1       8.444   9.278  18.326  0.00  0.00    +0.000 A 
ATOM     19  C   UNL     1       7.546   9.008  17.293  0.00  0.00    +0.000 A 
ATOM     20  C   UNL     1       7.056   7.711  17.104  0.00  0.00    +0.000 A 
ATOM     21  C   UNL     1       7.446   6.631  17.926  0.00  0.00    +0.000 A 
ATOM     22  C   UNL     1       8.380   6.918  18.935  0.00  0.00    +0.000 A 
ATOM     23  C   UNL     1       8.862   8.221  19.139  0.00  0.00    +0.000 A 
BRANCH  18  25
ATOM     24  C   UNL     1       9.471  10.844  19.994  0.00  0.00    +0.000 C 
ATOM     25  C   UNL     1       8.888  10.692  18.595  0.00  0.00    +0.000 C 
ENDBRANCH  18  25
ENDBRANCH   1  21
TORSDOF 2
ENDMDL
MODEL 2
REMARK VINA RESULT:      -7.2      6.591      8.902
REMARK  Name = 
REMARK  5 active torsions:
REMARK  status: ('A' for Active; 'I' for Inactive)
REMARK    1  A    between atoms: C_1  and  C_2
REMARK    2  A    between atoms: C_2  and  C_3
REMARK    3  A    between atoms: C_6  and  C_7
REMARK    4  A    between atoms: N_17  and  C_18
REMARK    5  A    between atoms: N_22  and  C_23
REMARK                            x       y       z     vdW  Elec       q    Type
REMARK                         _______ _______ _______ _____ _____    ______ ____
ROOT
ATOM      1  C   UNL     1       1.560   8.308  20.580  0.00  0.00    +0.000 A 
ATOM      2  C   UNL     1       0.730   8.269  21.724  0.00  0.00    +0.000 A 
ATOM      3  C   UNL     1      -0.147   9.316  22.015  0.00  0.00    +0.000 A 
ATOM      4  C   UNL     1      -0.160  10.415  21.173  0.00  0.00    +0.000 A 
ATOM      5  C   UNL     1       0.919  10.636  20.280  0.00  0.00    +0.000 A 
ATOM      6  C   UNL     1       1.749   9.558  19.960  0.00  0.00    +0.000 A 
ATOM      7  C   UNL     1       0.844  11.801  19.395  0.00  0.00    +0.000 A 
ATOM      8  C   UNL     1      -0.344  12.172  18.807  0.00  0.00    +0.000 A 
ATOM      9  C   UNL     1      -0.167  13.451  18.279  0.00  0.00    +0.000 A 
ATOM     10  N   UNL     1       1.037  13.929  18.629  0.00  0.00    +0.000 NA
ATOM     11  N   UNL     1       1.542  12.983  19.463  0.00  0.00    +0.000 N 
ATOM     12  C   UNL     1       2.422  13.393  20.537  0.00  0.00    +0.000 C 
ATOM     13  S   UNL     1      -1.787  11.388  19.330  0.00  0.00    +0.000 S 
ATOM     14  O   UNL     1      -1.762  10.101  18.663  0.00  0.00    +0.000 OA
ATOM     15  O   UNL     1      -2.842  12.349  19.149  0.00  0.00    +0.000 OA
ATOM     16  N   UNL     1      -1.400  11.195  21.052  0.00  0.00    +0.000 N 
ATOM     17  C   UNL     1      -1.404  12.495  21.777  0.00  0.00    +0.000 C 
ENDROOT
BRANCH   1  21
ATOM     18  C   UNL     1       2.313   4.598  18.466  0.00  0.00    +0.000 A 
ATOM     19  C   UNL     1       1.820   4.594  19.771  0.00  0.00    +0.000 A 
ATOM     20  C   UNL     1       1.649   5.797  20.464  0.00  0.00    +0.000 A 
ATOM     21  C   UNL     1       1.969   7.048  19.894  0.00  0.00    +0.000 A 
ATOM     22  C   UNL     1       2.499   7.025  18.593  0.00  0.00    +0.000 A 
ATOM     23  C   UNL     1       2.658   5.822  17.887  0.00  0.00    +0.000 A 
BRANCH  18  25
ATOM     24  C   UNL     1       2.056   2.104  18.544  0.00  0.00    +0.000 C 
ATOM     25  C   UNL     1       2.396   3.313  17.683  0.00  0.00    +0.000 C 
ENDBRANCH  18  25
ENDBRANCH   1  21
TORSDOF 2
ENDMDL
MODEL 3
REMARK VINA RESULT:      -7.1      7.164      9.027
REMARK  Name = 
REMARK  5 active torsions:
REMARK  status: ('A' for Active; 'I' for Inactive)
REMARK    1  A    between atoms: C_1  and  C_2
REMARK    2  A    between atoms: C_2  and  C_3
REMARK    3  A    between atoms: C_6  and  C_7
REMARK    4  A    between atoms: N_17  and  C_18
REMARK    5  A    between atoms: N_22  and  C_23
REMARK                            x       y       z     vdW  Elec       q    Type
REMARK                         _______ _______ _______ _____ _____    ______ ____
ROOT
ATOM      1  C   UNL     1       1.536   9.170  18.507  0.00  0.00    +0.000 A 
ATOM      2  C   UNL     1       2.424  10.159  18.027  0.00  0.00    +0.000 A 
ATOM      3  C   UNL     1       2.131  11.518  18.163  0.00  0.00    +0.000 A 
ATOM      4  C   UNL     1       0.930  11.876  18.750  0.00  0.00    +0.000 A 
ATOM      5  C   UNL     1      -0.114  10.923  18.866  0.00  0.00    +0.000 A 
ATOM      6  C   UNL     1       0.213   9.565  18.783  0.00  0.00    +0.000 A 
ATOM      7  C   UNL     1      -1.356  11.347  19.515  0.00  0.00    +0.000 A 
ATOM      8  C   UNL     1      -1.337  12.168  20.620  0.00  0.00    +0.000 A 
ATOM      9  C   UNL     1      -2.640  12.625  20.823  0.00  0.00    +0.000 A 
ATOM     10  N   UNL     1      -3.429  12.222  19.816  0.00  0.00    +0.000 NA
ATOM     11  N   UNL     1      -2.579  11.615  18.947  0.00  0.00    +0.000 N 
ATOM     12  C   UNL     1      -2.867  11.672  17.529  0.00  0.00    +0.000 C 
ATOM     13  S   UNL     1       0.163  12.885  21.070  0.00  0.00    +0.000 S 
ATOM     14  O   UNL     1       0.885  11.822  21.743  0.00  0.00    +0.000 OA
ATOM     15  O   UNL     1      -0.174  14.132  21.704  0.00  0.00    +0.000 OA
ATOM     16  N   UNL     1       0.844  13.163  19.454  0.00  0.00    +0.000 N 
ATOM     17  C   UNL     1       0.127  14.241  18.722  0.00  0.00    +0.000 C 
ENDROOT
BRANCH   1  21
ATOM     18  C   UNL     1       2.603   5.185  19.844  0.00  0.00    +0.000 A 
ATOM     19  C   UNL     1       2.049   6.115  20.725  0.00  0.00    +0.000 A 
ATOM     20  C   UNL     1       1.776   7.418  20.295  0.00  0.00    +0.000 A 
ATOM     21  C   UNL     1       2.050   7.852  18.980  0.00  0.00    +0.000 A 
ATOM     22  C   UNL     1       2.642   6.911  18.122  0.00  0.00    +0.000 A 
ATOM     23  C   UNL     1       2.904   5.597  18.543  0.00  0.00    +0.000 A 
BRANCH  18  25
ATOM     24  C   UNL     1       2.042   3.443  21.559  0.00  0.00    +0.000 C 
ATOM     25  C   UNL     1       2.798   3.754  20.275  0.00  0.00    +0.000 C 
ENDBRANCH  18  25
ENDBRANCH   1  21
TORSDOF 2
ENDMDL
MODEL 4
REMARK VINA RESULT:      -7.0      6.572      8.724
REMARK  Name = 
REMARK  5 active torsions:
REMARK  status: ('A' for Active; 'I' for Inactive)
REMARK    1  A    between atoms: C_1  and  C_2
REMARK    2  A    between atoms: C_2  and  C_3
REMARK    3  A    between atoms: C_6  and  C_7
REMARK    4  A    between atoms: N_17  and  C_18
REMARK    5  A    between atoms: N_22  and  C_23
REMARK                            x       y       z     vdW  Elec       q    Type
REMARK                         _______ _______ _______ _____ _____    ______ ____
ROOT
ATOM      1  C   UNL     1       1.522   8.269  20.489  0.00  0.00    +0.000 A 
ATOM      2  C   UNL     1       0.707   8.221  21.642  0.00  0.00    +0.000 A 
ATOM      3  C   UNL     1      -0.160   9.269  21.958  0.00  0.00    +0.000 A 
ATOM      4  C   UNL     1      -0.178  10.378  21.130  0.00  0.00    +0.000 A 
ATOM      5  C   UNL     1       0.891  10.604  20.225  0.00  0.00    +0.000 A 
ATOM      6  C   UNL     1       1.711   9.525  19.881  0.00  0.00    +0.000 A 
ATOM      7  C   UNL     1       0.811  11.780  19.356  0.00  0.00    +0.000 A 
ATOM      8  C   UNL     1      -0.383  12.165  18.788  0.00  0.00    +0.000 A 
ATOM      9  C   UNL     1      -0.205  13.450  18.273  0.00  0.00    +0.000 A 
ATOM     10  N   UNL     1       1.006  13.917  18.614  0.00  0.00    +0.000 NA
ATOM     11  N   UNL     1       1.517  12.957  19.429  0.00  0.00    +0.000 N 
ATOM     12  C   UNL     1       2.414  13.349  20.496  0.00  0.00    +0.000 C 
ATOM     13  S   UNL     1      -1.822  11.384  19.320  0.00  0.00    +0.000 S 
ATOM     14  O   UNL     1      -1.814  10.104  18.637  0.00  0.00    +0.000 OA
ATOM     15  O   UNL     1      -2.875  12.353  19.165  0.00  0.00    +0.000 OA
ATOM     16  N   UNL     1      -1.414  11.167  21.035  0.00  0.00    +0.000 N 
ATOM     17  C   UNL     1      -1.402  12.457  21.775  0.00  0.00    +0.000 C 
ENDROOT
BRANCH   1  21
ATOM     18  C   UNL     1       3.092   4.721  18.552  0.00  0.00    +0.000 A 
ATOM     19  C   UNL     1       3.134   5.964  17.920  0.00  0.00    +0.000 A 
ATOM     20  C   UNL     1       2.560   7.085  18.528  0.00  0.00    +0.000 A 
ATOM     21  C   UNL     1       1.915   7.016  19.782  0.00  0.00    +0.000 A 
ATOM     22  C   UNL     1       1.850   5.747  20.383  0.00  0.00    +0.000 A 
ATOM     23  C   UNL     1       2.439   4.621  19.784  0.00  0.00    +0.000 A 
BRANCH  18  25
ATOM     24  C   UNL     1       2.888   2.322  17.847  0.00  0.00    +0.000 C 
ATOM     25  C   UNL     1       3.801   3.537  17.948  0.00  0.00    +0.000 C 
ENDBRANCH  18  25
ENDBRANCH   1  21
TORSDOF 2
ENDMDL
MODEL 5
REMARK VINA RESULT:      -7.0      6.446      8.293
REMARK  Name = 
REMARK  5 active torsions:
REMARK  status: ('A' for Active; 'I' for Inactive)
REMARK    1  A    between atoms: C_1  and  C_2
REMARK    2  A    between atoms: C_2  and  C_3
REMARK    3  A    between atoms: C_6  and  C_7
REMARK    4  A    between atoms: N_17  and  C_18
REMARK    5  A    between atoms: N_22  and  C_23
REMARK                            x       y       z     vdW  Elec       q    Type
REMARK                         _______ _______ _______ _____ _____    ______ ____
ROOT
ATOM      1  C   UNL     1       1.912   8.235  19.740  0.00  0.00    +0.000 A 
ATOM      2  C   UNL     1       1.132   7.956  20.885  0.00  0.00    +0.000 A 
ATOM      3  C   UNL     1       0.179   8.865  21.348  0.00  0.00    +0.000 A 
ATOM      4  C   UNL     1       0.038  10.068  20.678  0.00  0.00    +0.000 A 
ATOM      5  C   UNL     1       1.060  10.514  19.801  0.00  0.00    +0.000 A 
ATOM      6  C   UNL     1       1.969   9.573  19.306  0.00  0.00    +0.000 A 
ATOM      7  C   UNL     1       0.851  11.782  19.099  0.00  0.00    +0.000 A 
ATOM      8  C   UNL     1      -0.386  12.124  18.601  0.00  0.00    +0.000 A 
ATOM      9  C   UNL     1      -0.341  13.477  18.262  0.00  0.00    +0.000 A 
ATOM     10  N   UNL     1       0.829  14.007  18.651  0.00  0.00    +0.000 NA
ATOM     11  N   UNL     1       1.445  13.001  19.323  0.00  0.00    +0.000 N 
ATOM     12  C   UNL     1       2.326  13.331  20.424  0.00  0.00    +0.000 C 
ATOM     13  S   UNL     1      -1.734  11.144  19.038  0.00  0.00    +0.000 S 
ATOM     14  O   UNL     1      -1.623   9.975  18.188  0.00  0.00    +0.000 OA
ATOM     15  O   UNL     1      -2.876  12.021  19.026  0.00  0.00    +0.000 OA
ATOM     16  N   UNL     1      -1.268  10.741  20.703  0.00  0.00    +0.000 N 
ATOM     17  C   UNL     1      -1.359  11.916  21.611  0.00  0.00    +0.000 C 
ENDROOT
BRANCH   1  21
ATOM     18  C   UNL     1       3.728   5.043  17.436  0.00  0.00    +0.000 A 
ATOM     19  C   UNL     1       3.998   6.381  17.148  0.00  0.00    +0.000 A 
ATOM     20  C   UNL     1       3.350   7.399  17.854  0.00  0.00    +0.000 A 
ATOM     21  C   UNL     1       2.403   7.131  18.866  0.00  0.00    +0.000 A 
ATOM     22  C   UNL     1       2.119   5.777  19.114  0.00  0.00    +0.000 A 
ATOM     23  C   UNL     1       2.778   4.751  18.418  0.00  0.00    +0.000 A 
BRANCH  18  25
ATOM     24  C   UNL     1       5.501   4.506  15.744  0.00  0.00    +0.000 C 
ATOM     25  C   UNL     1       4.503   3.947  16.750  0.00  0.00    +0.000 C 
ENDBRANCH  18  25
ENDBRANCH   1  21
TORSDOF 2
ENDMDL
MODEL 6
REMARK VINA RESULT:      -6.9      0.328      1.009
REMARK  Name = 
REMARK  5 active torsions:
REMARK  status: ('A' for Active; 'I' for Inactive)
REMARK    1  A    between atoms: C_1  and  C_2
REMARK    2  A    between atoms: C_2  and  C_3
REMARK    3  A    between atoms: C_6  and  C_7
REMARK    4  A    between atoms: N_17  and  C_18
REMARK    5  A    between atoms: N_22  and  C_23
REMARK                            x       y       z     vdW  Elec       q    Type
REMARK                         _______ _______ _______ _____ _____    ______ ____
ROOT
ATOM      1  C   UNL     1       6.488   5.543  18.020  0.00  0.00    +0.000 A 
ATOM      2  C   UNL     1       6.379   4.941  16.746  0.00  0.00    +0.000 A 
ATOM      3  C   UNL     1       5.350   4.041  16.459  0.00  0.00    +0.000 A 
ATOM      4  C   UNL     1       4.456   3.722  17.467  0.00  0.00    +0.000 A 
ATOM      5  C   UNL     1       4.784   3.999  18.819  0.00  0.00    +0.000 A 
ATOM      6  C   UNL     1       5.778   4.947  19.081  0.00  0.00    +0.000 A 
ATOM      7  C   UNL     1       3.794   3.663  19.843  0.00  0.00    +0.000 A 
ATOM      8  C   UNL     1       2.449   3.867  19.628  0.00  0.00    +0.000 A 
ATOM      9  C   UNL     1       1.758   3.193  20.635  0.00  0.00    +0.000 A 
ATOM     10  N   UNL     1       2.615   2.479  21.381  0.00  0.00    +0.000 NA
ATOM     11  N   UNL     1       3.811   2.635  20.756  0.00  0.00    +0.000 N 
ATOM     12  C   UNL     1       4.774   1.555  20.806  0.00  0.00    +0.000 C 
ATOM     13  S   UNL     1       1.939   4.293  18.039  0.00  0.00    +0.000 S 
ATOM     14  O   UNL     1       2.258   5.703  17.921  0.00  0.00    +0.000 OA
ATOM     15  O   UNL     1       0.604   3.774  17.903  0.00  0.00    +0.000 OA
ATOM     16  N   UNL     1       3.091   3.322  17.098  0.00  0.00    +0.000 N 
ATOM     17  C   UNL     1       2.808   1.865  17.197  0.00  0.00    +0.000 C 
ENDROOT
BRANCH   1  21
ATOM     18  C   UNL     1       8.545   9.356  18.188  0.00  0.00    +0.000 A 
ATOM     19  C   UNL     1       8.934   8.293  19.002  0.00  0.00    +0.000 A 
ATOM     20  C   UNL     1       8.217   7.093  18.987  0.00  0.00    +0.000 A 
ATOM     21  C   UNL     1       7.080   6.904  18.171  0.00  0.00    +0.000 A 
ATOM     22  C   UNL     1       6.683   8.000  17.388  0.00  0.00    +0.000 A 
ATOM     23  C   UNL     1       7.409   9.202  17.387  0.00  0.00    +0.000 A 
BRANCH  18  25
ATOM     24  C   UNL     1       9.782  11.090  19.513  0.00  0.00    +0.000 C 
ATOM     25  C   UNL     1       9.379  10.610  18.125  0.00  0.00    +0.000 C 
ENDBRANCH  18  25
ENDBRANCH   1  21
TORSDOF 2
ENDMDL
MODEL 7
REMARK VINA RESULT:      -6.9      9.150     10.605
REMARK  Name = 
REMARK  5 active torsions:
REMARK  status: ('A' for Active; 'I' for Inactive)
REMARK    1  A    between atoms: C_1  and  C_2
REMARK    2  A    between atoms: C_2  and  C_3
REMARK    3  A    between atoms: C_6  and  C_7
REMARK    4  A    between atoms: N_17  and  C_18
REMARK    5  A    between atoms: N_22  and  C_23
REMARK                            x       y       z     vdW  Elec       q    Type
REMARK                         _______ _______ _______ _____ _____    ______ ____
ROOT
ATOM      1  C   UNL     1      -0.034  11.315  19.264  0.00  0.00    +0.000 A 
ATOM      2  C   UNL     1       0.458  12.568  18.834  0.00  0.00    +0.000 A 
ATOM      3  C   UNL     1      -0.058  13.761  19.346  0.00  0.00    +0.000 A 
ATOM      4  C   UNL     1      -1.094  13.688  20.262  0.00  0.00    +0.000 A 
ATOM      5  C   UNL     1      -1.842  12.490  20.391  0.00  0.00    +0.000 A 
ATOM      6  C   UNL     1      -1.279  11.300  19.922  0.00  0.00    +0.000 A 
ATOM      7  C   UNL     1      -2.912  12.459  21.391  0.00  0.00    +0.000 A 
ATOM      8  C   UNL     1      -2.754  13.057  22.621  0.00  0.00    +0.000 A 
ATOM      9  C   UNL     1      -4.012  13.118  23.221  0.00  0.00    +0.000 A 
ATOM     10  N   UNL     1      -4.952  12.700  22.358  0.00  0.00    +0.000 NA
ATOM     11  N   UNL     1      -4.273  12.493  21.200  0.00  0.00    +0.000 N 
ATOM     12  C   UNL     1      -4.953  12.712  19.941  0.00  0.00    +0.000 C 
ATOM     13  S   UNL     1      -1.370  14.052  22.866  0.00  0.00    +0.000 S 
ATOM     14  O   UNL     1      -0.284  13.117  23.088  0.00  0.00    +0.000 OA
ATOM     15  O   UNL     1      -1.765  15.043  23.832  0.00  0.00    +0.000 OA
ATOM     16  N   UNL     1      -1.242  14.769  21.246  0.00  0.00    +0.000 N 
ATOM     17  C   UNL     1      -2.343  15.731  20.971  0.00  0.00    +0.000 C 
ENDROOT
BRANCH   1  21
ATOM     18  C   UNL     1       2.165   7.578  19.296  0.00  0.00    +0.000 A 
ATOM     19  C   UNL     1       1.580   8.078  20.459  0.00  0.00    +0.000 A 
ATOM     20  C   UNL     1       0.934   9.319  20.448  0.00  0.00    +0.000 A 
ATOM     21  C   UNL     1       0.852  10.116  19.285  0.00  0.00    +0.000 A 
ATOM     22  C   UNL     1       1.481   9.610  18.134  0.00  0.00    +0.000 A 
ATOM     23  C   UNL     1       2.116   8.358  18.137  0.00  0.00    +0.000 A 
BRANCH  18  25
ATOM     24  C   UNL     1       2.121   5.289  20.320  0.00  0.00    +0.000 C 
ATOM     25  C   UNL     1       2.766   6.196  19.281  0.00  0.00    +0.000 C 
ENDBRANCH  18  25
ENDBRANCH   1  21
TORSDOF 2
ENDMDL
MODEL 8
REMARK VINA RESULT:      -6.8      9.051     10.543
REMARK  Name = 
REMARK  5 active torsions:
REMARK  status: ('A' for Active; 'I' for Inactive)
REMARK    1  A    between atoms: C_1  and  C_2
REMARK    2  A    between atoms: C_2  and  C_3
REMARK    3  A    between atoms: C_6  and  C_7
REMARK    4  A    between atoms: N_17  and  C_18
REMARK    5  A    between atoms: N_22  and  C_23
REMARK                            x       y       z     vdW  Elec       q    Type
REMARK                         _______ _______ _______ _____ _____    ______ ____
ROOT
ATOM      1  C   UNL     1      -0.107  10.864  19.697  0.00  0.00    +0.000 A 
ATOM      2  C   UNL     1      -0.097  11.789  18.629  0.00  0.00    +0.000 A 
ATOM      3  C   UNL     1      -0.441  13.128  18.831  0.00  0.00    +0.000 A 
ATOM      4  C   UNL     1      -0.829  13.522  20.100  0.00  0.00    +0.000 A 
ATOM      5  C   UNL     1      -1.219  12.549  21.056  0.00  0.00    +0.000 A 
ATOM      6  C   UNL     1      -0.813  11.225  20.860  0.00  0.00    +0.000 A 
ATOM      7  C   UNL     1      -1.599  13.018  22.390  0.00  0.00    +0.000 A 
ATOM      8  C   UNL     1      -0.915  14.043  23.005  0.00  0.00    +0.000 A 
ATOM      9  C   UNL     1      -1.674  14.451  24.103  0.00  0.00    +0.000 A 
ATOM     10  N   UNL     1      -2.852  13.808  24.110  0.00  0.00    +0.000 NA
ATOM     11  N   UNL     1      -2.849  13.093  22.955  0.00  0.00    +0.000 N 
ATOM     12  C   UNL     1      -4.106  12.849  22.280  0.00  0.00    +0.000 C 
ATOM     13  S   UNL     1       0.234  14.924  22.073  0.00  0.00    +0.000 S 
ATOM     14  O   UNL     1       1.400  14.064  22.025  0.00  0.00    +0.000 OA
ATOM     15  O   UNL     1       0.257  16.250  22.631  0.00  0.00    +0.000 OA
ATOM     16  N   UNL     1      -0.602  14.916  20.506  0.00  0.00    +0.000 N 
ATOM     17  C   UNL     1      -1.812  15.781  20.511  0.00  0.00    +0.000 C 
ENDROOT
BRANCH   1  21
ATOM     18  C   UNL     1       2.238   7.217  19.666  0.00  0.00    +0.000 A 
ATOM     19  C   UNL     1       1.594   7.647  20.825  0.00  0.00    +0.000 A 
ATOM     20  C   UNL     1       0.900   8.862  20.838  0.00  0.00    +0.000 A 
ATOM     21  C   UNL     1       0.825   9.700  19.704  0.00  0.00    +0.000 A 
ATOM     22  C   UNL     1       1.513   9.265  18.559  0.00  0.00    +0.000 A 
ATOM     23  C   UNL     1       2.198   8.039  18.536  0.00  0.00    +0.000 A 
BRANCH  18  25
ATOM     24  C   UNL     1       2.212   4.871  20.554  0.00  0.00    +0.000 C 
ATOM     25  C   UNL     1       2.894   5.861  19.620  0.00  0.00    +0.000 C 
ENDBRANCH  18  25
ENDBRANCH   1  21
TORSDOF 2
ENDMDL
MODEL 9
REMARK VINA RESULT:      -6.8      4.510      5.849
REMARK  Name = 
REMARK  5 active torsions:
REMARK  status: ('A' for Active; 'I' for Inactive)
REMARK    1  A    between atoms: C_1  and  C_2
REMARK    2  A    between atoms: C_2  and  C_3
REMARK    3  A    between atoms: C_6  and  C_7
REMARK    4  A    between atoms: N_17  and  C_18
REMARK    5  A    between atoms: N_22  and  C_23
REMARK                            x       y       z     vdW  Elec       q    Type
REMARK                         _______ _______ _______ _____ _____    ______ ____
ROOT
ATOM      1  C   UNL     1       1.948   7.942  19.494  0.00  0.00    +0.000 A 
ATOM      2  C   UNL     1       1.458   7.854  18.171  0.00  0.00    +0.000 A 
ATOM      3  C   UNL     1       1.559   6.668  17.441  0.00  0.00    +0.000 A 
ATOM      4  C   UNL     1       2.186   5.584  18.033  0.00  0.00    +0.000 A 
ATOM      5  C   UNL     1       3.012   5.777  19.169  0.00  0.00    +0.000 A 
ATOM      6  C   UNL     1       2.852   6.948  19.917  0.00  0.00    +0.000 A 
ATOM      7  C   UNL     1       3.634   4.595  19.769  0.00  0.00    +0.000 A 
ATOM      8  C   UNL     1       2.946   3.407  19.878  0.00  0.00    +0.000 A 
ATOM      9  C   UNL     1       3.872   2.417  20.206  0.00  0.00    +0.000 A 
ATOM     10  N   UNL     1       5.114   2.923  20.177  0.00  0.00    +0.000 NA
ATOM     11  N   UNL     1       4.947   4.192  19.723  0.00  0.00    +0.000 N 
ATOM     12  C   UNL     1       5.997   4.797  18.930  0.00  0.00    +0.000 C 
ATOM     13  S   UNL     1       1.431   3.272  19.069  0.00  0.00    +0.000 S 
ATOM     14  O   UNL     1       0.500   3.986  19.921  0.00  0.00    +0.000 OA
ATOM     15  O   UNL     1       1.287   1.879  18.737  0.00  0.00    +0.000 OA
ATOM     16  N   UNL     1       1.794   4.230  17.618  0.00  0.00    +0.000 N 
ATOM     17  C   UNL     1       2.755   3.539  16.717  0.00  0.00    +0.000 C 
ENDROOT
BRANCH   1  21
ATOM     18  C   UNL     1      -0.298  10.482  22.197  0.00  0.00    +0.000 A 
ATOM     19  C   UNL     1      -0.039  10.880  20.886  0.00  0.00    +0.000 A 
ATOM     20  C   UNL     1       0.747  10.081  20.048  0.00  0.00    +0.000 A 
ATOM     21  C   UNL     1       1.313   8.862  20.481  0.00  0.00    +0.000 A 
ATOM     22  C   UNL     1       1.071   8.500  21.817  0.00  0.00    +0.000 A 
ATOM     23  C   UNL     1       0.270   9.290  22.657  0.00  0.00    +0.000 A 
BRANCH  18  25
ATOM     24  C   UNL     1      -1.112  12.780  22.786  0.00  0.00    +0.000 C 
ATOM     25  C   UNL     1      -1.229  11.288  23.065  0.00  0.00    +0.000 C 
ENDBRANCH  18  25
ENDBRANCH   1  21
TORSDOF 2
ENDMDL
