MODEL 1
REMARK VINA RESULT:      -7.7      0.000      0.000
REMARK  Name = 
REMARK  9 active torsions:
REMARK  status: ('A' for Active; 'I' for Inactive)
REMARK    1  A    between atoms: C_1  and  C_2
REMARK    2  A    between atoms: C_5  and  C_6
REMARK    3  A    between atoms: C_6  and  C_19
REMARK    4  A    between atoms: C_7  and  C_8
REMARK    5  A    between atoms: C_8  and  C_9
REMARK    6  A    between atoms: C_9  and  N_10
REMARK    7  A    between atoms: C_15  and  C_16
REMARK    8  A    between atoms: C_16  and  O_18
REMARK    9  A    between atoms: C_22  and  C_23
REMARK                            x       y       z     vdW  Elec       q    Type
REMARK                         _______ _______ _______ _____ _____    ______ ____
ROOT
ATOM      1  C   UNL     1       3.194   6.113  18.868  0.00  0.00    +0.000 C 
ATOM      2  C   UNL     1       4.510   6.029  18.560  0.00  0.00    +0.000 C 
ENDROOT
BRANCH   1   7
ATOM      3  C   UNL     1       0.567  10.607  19.850  0.00  0.00    +0.000 C 
ATOM      4  C   UNL     1       1.342   9.508  19.206  0.00  0.00    +0.000 A 
ATOM      5  C   UNL     1       1.844   9.459  17.923  0.00  0.00    +0.000 A 
ATOM      6  C   UNL     1       2.541   8.245  17.666  0.00  0.00    +0.000 A 
ATOM      7  C   UNL     1       2.552   7.387  18.754  0.00  0.00    +0.000 A 
ATOM      8  S   UNL     1       1.711   8.084  20.082  0.00  0.00    +0.000 S 
ENDBRANCH   1   7
BRANCH   1   9
ATOM      9  C   UNL     1       2.489   4.955  19.345  0.00  0.00    +0.000 A 
ATOM     10  C   UNL     1       1.694   4.069  18.640  0.00  0.00    +0.000 A 
ATOM     11  C   UNL     1       1.128   3.053  19.466  0.00  0.00    +0.000 A 
ATOM     12  C   UNL     1       1.499   3.188  20.786  0.00  0.00    +0.000 A 
ATOM     13  C   UNL     1       1.112   2.342  21.950  0.00  0.00    +0.000 C 
ATOM     14  S   UNL     1       2.522   4.539  21.015  0.00  0.00    +0.000 S 
ENDBRANCH   1   9
BRANCH   2  15
ATOM     15  C   UNL     1       5.337   4.771  18.686  0.00  0.00    +0.000 C 
BRANCH  15  16
ATOM     16  C   UNL     1       6.717   4.789  17.992  0.00  0.00    +0.000 C 
BRANCH  16  17
ATOM     17  N   UNL     1       6.596   4.351  16.593  0.00  0.00    +0.000 NA
ATOM     18  C   UNL     1       5.227   3.948  16.231  0.00  0.00    +0.000 C 
ATOM     19  C   UNL     1       5.184   4.128  14.753  0.00  0.00    +0.000 C 
ATOM     20  C   UNL     1       6.331   4.977  14.359  0.00  0.00    +0.000 C 
ATOM     21  C   UNL     1       7.065   5.347  15.616  0.00  0.00    +0.000 C 
ATOM     22  C   UNL     1       6.251   3.548  13.845  0.00  0.00    +0.000 C 
BRANCH  22  23
ATOM     23  C   UNL     1       5.882   3.256  12.436  0.00  0.00    +0.000 C 
ATOM     24  O   UNL     1       4.778   3.507  11.975  0.00  0.00    +0.000 OA
BRANCH  23  25
ATOM     25  O   UNL     1       6.860   2.640  11.740  0.00  0.00    +0.000 OA
ATOM     26  H   UNL     1       6.522   1.986  11.103  0.00  0.00    +0.000 HD
ENDBRANCH  23  25
ENDBRANCH  22  23
ENDBRANCH  16  17
ENDBRANCH  15  16
ENDBRANCH   2  15
TORSDOF 7
ENDMDL
MODEL 2
REMARK VINA RESULT:      -7.7      4.909      8.179
REMARK  Name = 
REMARK  9 active torsions:
REMARK  status: ('A' for Active; 'I' for Inactive)
REMARK    1  A    between atoms: C_1  and  C_2
REMARK    2  A    between atoms: C_5  and  C_6
REMARK    3  A    between atoms: C_6  and  C_19
REMARK    4  A    between atoms: C_7  and  C_8
REMARK    5  A    between atoms: C_8  and  C_9
REMARK    6  A    between atoms: C_9  and  N_10
REMARK    7  A    between atoms: C_15  and  C_16
REMARK    8  A    between atoms: C_16  and  O_18
REMARK    9  A    between atoms: C_22  and  C_23
REMARK                            x       y       z     vdW  Elec       q    Type
REMARK                         _______ _______ _______ _____ _____    ______ ____
ROOT
ATOM      1  C   UNL     1       3.834   5.816  17.675  0.00  0.00    +0.000 C 
ATOM      2  C   UNL     1       3.539   7.137  17.677  0.00  0.00    +0.000 C 
ENDROOT
BRANCH   1   7
ATOM      3  C   UNL     1       7.576   4.912  14.036  0.00  0.00    +0.000 C 
ATOM      4  C   UNL     1       6.786   4.975  15.300  0.00  0.00    +0.000 A 
ATOM      5  C   UNL     1       7.149   4.527  16.553  0.00  0.00    +0.000 A 
ATOM      6  C   UNL     1       6.134   4.767  17.521  0.00  0.00    +0.000 A 
ATOM      7  C   UNL     1       5.014   5.385  16.990  0.00  0.00    +0.000 A 
ATOM      8  S   UNL     1       5.223   5.671  15.308  0.00  0.00    +0.000 S 
ENDBRANCH   1   7
BRANCH   1   9
ATOM      9  C   UNL     1       2.945   4.878  18.306  0.00  0.00    +0.000 A 
ATOM     10  C   UNL     1       1.891   4.172  17.755  0.00  0.00    +0.000 A 
ATOM     11  C   UNL     1       1.210   3.356  18.706  0.00  0.00    +0.000 A 
ATOM     12  C   UNL     1       1.756   3.462  19.967  0.00  0.00    +0.000 A 
ATOM     13  C   UNL     1       1.327   2.785  21.224  0.00  0.00    +0.000 C 
ATOM     14  S   UNL     1       3.080   4.544  19.990  0.00  0.00    +0.000 S 
ENDBRANCH   1   9
BRANCH   2  15
ATOM     15  C   UNL     1       2.302   7.735  18.305  0.00  0.00    +0.000 C 
BRANCH  15  16
ATOM     16  C   UNL     1       1.924   9.161  17.846  0.00  0.00    +0.000 C 
BRANCH  16  17
ATOM     17  N   UNL     1       1.261   9.893  18.936  0.00  0.00    +0.000 NA
ATOM     18  C   UNL     1      -0.055  10.429  18.554  0.00  0.00    +0.000 C 
ATOM     19  C   UNL     1      -0.771  10.572  19.854  0.00  0.00    +0.000 C 
ATOM     20  C   UNL     1      -0.047   9.771  20.867  0.00  0.00    +0.000 C 
ATOM     21  C   UNL     1       1.106   9.106  20.171  0.00  0.00    +0.000 C 
ATOM     22  C   UNL     1      -0.144  11.279  21.038  0.00  0.00    +0.000 C 
BRANCH  22  23
ATOM     23  C   UNL     1      -1.051  11.883  22.048  0.00  0.00    +0.000 C 
ATOM     24  O   UNL     1      -0.750  11.993  23.227  0.00  0.00    +0.000 OA
BRANCH  23  25
ATOM     25  O   UNL     1      -2.252  12.242  21.547  0.00  0.00    +0.000 OA
ATOM     26  H   UNL     1      -2.313  13.193  21.346  0.00  0.00    +0.000 HD
ENDBRANCH  23  25
ENDBRANCH  22  23
ENDBRANCH  16  17
ENDBRANCH  15  16
ENDBRANCH   2  15
TORSDOF 7
ENDMDL
MODEL 3
REMARK VINA RESULT:      -7.6      1.018      1.372
REMARK  Name = 
REMARK  9 active torsions:
REMARK  status: ('A' for Active; 'I' for Inactive)
REMARK    1  A    between atoms: C_1  and  C_2
REMARK    2  A    between atoms: C_5  and  C_6
REMARK    3  A    between atoms: C_6  and  C_19
REMARK    4  A    between atoms: C_7  and  C_8
REMARK    5  A    between atoms: C_8  and  C_9
REMARK    6  A    between atoms: C_9  and  N_10
REMARK    7  A    between atoms: C_15  and  C_16
REMARK    8  A    between atoms: C_16  and  O_18
REMARK    9  A    between atoms: C_22  and  C_23
REMARK                            x       y       z     vdW  Elec       q    Type
REMARK                         _______ _______ _______ _____ _____    ______ ____
ROOT
ATOM      1  C   UNL     1       2.757   7.048  18.521  0.00  0.00    +0.000 C 
ATOM      2  C   UNL     1       4.010   7.274  18.060  0.00  0.00    +0.000 C 
ENDROOT
BRANCH   1   7
ATOM      3  C   UNL     1      -0.170  10.819  20.817  0.00  0.00    +0.000 C 
ATOM      4  C   UNL     1       0.558   9.964  19.836  0.00  0.00    +0.000 A 
ATOM      5  C   UNL     1       0.679  10.145  18.475  0.00  0.00    +0.000 A 
ATOM      6  C   UNL     1       1.460   9.123  17.866  0.00  0.00    +0.000 A 
ATOM      7  C   UNL     1       1.914   8.177  18.771  0.00  0.00    +0.000 A 
ATOM      8  S   UNL     1       1.380   8.558  20.360  0.00  0.00    +0.000 S 
ENDBRANCH   1   7
BRANCH   1   9
ATOM      9  C   UNL     1       2.320   5.707  18.796  0.00  0.00    +0.000 A 
ATOM     10  C   UNL     1       1.802   4.765  17.925  0.00  0.00    +0.000 A 
ATOM     11  C   UNL     1       1.445   3.546  18.573  0.00  0.00    +0.000 A 
ATOM     12  C   UNL     1       1.692   3.585  19.928  0.00  0.00    +0.000 A 
ATOM     13  C   UNL     1       1.447   2.526  20.947  0.00  0.00    +0.000 C 
ATOM     14  S   UNL     1       2.350   5.091  20.403  0.00  0.00    +0.000 S 
ENDBRANCH   1   9
BRANCH   2  15
ATOM     15  C   UNL     1       5.033   6.192  17.805  0.00  0.00    +0.000 C 
BRANCH  15  16
ATOM     16  C   UNL     1       6.145   6.529  16.786  0.00  0.00    +0.000 C 
BRANCH  16  17
ATOM     17  N   UNL     1       5.970   5.743  15.555  0.00  0.00    +0.000 NA
ATOM     18  C   UNL     1       7.188   5.018  15.156  0.00  0.00    +0.000 C 
ATOM     19  C   UNL     1       6.674   3.890  14.329  0.00  0.00    +0.000 C 
ATOM     20  C   UNL     1       5.224   3.751  14.592  0.00  0.00    +0.000 C 
ATOM     21  C   UNL     1       4.854   4.785  15.617  0.00  0.00    +0.000 C 
ATOM     22  C   UNL     1       5.696   4.113  13.193  0.00  0.00    +0.000 C 
BRANCH  22  23
ATOM     23  C   UNL     1       5.672   3.118  12.090  0.00  0.00    +0.000 C 
ATOM     24  O   UNL     1       4.648   2.806  11.501  0.00  0.00    +0.000 OA
BRANCH  23  25
ATOM     25  O   UNL     1       6.875   2.557  11.845  0.00  0.00    +0.000 OA
ATOM     26  H   UNL     1       6.839   1.853  11.173  0.00  0.00    +0.000 HD
ENDBRANCH  23  25
ENDBRANCH  22  23
ENDBRANCH  16  17
ENDBRANCH  15  16
ENDBRANCH   2  15
TORSDOF 7
ENDMDL
MODEL 4
REMARK VINA RESULT:      -7.5      0.903      1.156
REMARK  Name = 
REMARK  9 active torsions:
REMARK  status: ('A' for Active; 'I' for Inactive)
REMARK    1  A    between atoms: C_1  and  C_2
REMARK    2  A    between atoms: C_5  and  C_6
REMARK    3  A    between atoms: C_6  and  C_19
REMARK    4  A    between atoms: C_7  and  C_8
REMARK    5  A    between atoms: C_8  and  C_9
REMARK    6  A    between atoms: C_9  and  N_10
REMARK    7  A    between atoms: C_15  and  C_16
REMARK    8  A    between atoms: C_16  and  O_18
REMARK    9  A    between atoms: C_22  and  C_23
REMARK                            x       y       z     vdW  Elec       q    Type
REMARK                         _______ _______ _______ _____ _____    ______ ____
ROOT
ATOM      1  C   UNL     1       2.911   6.524  18.937  0.00  0.00    +0.000 C 
ATOM      2  C   UNL     1       4.239   6.492  18.678  0.00  0.00    +0.000 C 
ENDROOT
BRANCH   1   7
ATOM      3  C   UNL     1       0.256  10.959  20.095  0.00  0.00    +0.000 C 
ATOM      4  C   UNL     1       1.013   9.878  19.400  0.00  0.00    +0.000 A 
ATOM      5  C   UNL     1       1.438   9.844  18.089  0.00  0.00    +0.000 A 
ATOM      6  C   UNL     1       2.143   8.645  17.786  0.00  0.00    +0.000 A 
ATOM      7  C   UNL     1       2.237   7.784  18.867  0.00  0.00    +0.000 A 
ATOM      8  S   UNL     1       1.463   8.460  20.246  0.00  0.00    +0.000 S 
ENDBRANCH   1   7
BRANCH   1   9
ATOM      9  C   UNL     1       2.222   5.322  19.321  0.00  0.00    +0.000 A 
ATOM     10  C   UNL     1       1.896   4.874  20.589  0.00  0.00    +0.000 A 
ATOM     11  C   UNL     1       1.239   3.608  20.579  0.00  0.00    +0.000 A 
ATOM     12  C   UNL     1       1.082   3.114  19.302  0.00  0.00    +0.000 A 
ATOM     13  C   UNL     1       0.460   1.829  18.874  0.00  0.00    +0.000 C 
ATOM     14  S   UNL     1       1.731   4.179  18.132  0.00  0.00    +0.000 S 
ENDBRANCH   1   9
BRANCH   2  15
ATOM     15  C   UNL     1       5.098   5.252  18.768  0.00  0.00    +0.000 C 
BRANCH  15  16
ATOM     16  C   UNL     1       6.456   5.306  18.035  0.00  0.00    +0.000 C 
BRANCH  16  17
ATOM     17  N   UNL     1       6.340   4.714  16.693  0.00  0.00    +0.000 NA
ATOM     18  C   UNL     1       5.049   4.999  16.047  0.00  0.00    +0.000 C 
ATOM     19  C   UNL     1       5.345   4.868  14.592  0.00  0.00    +0.000 C 
ATOM     20  C   UNL     1       6.814   4.914  14.415  0.00  0.00    +0.000 C 
ATOM     21  C   UNL     1       7.421   5.109  15.775  0.00  0.00    +0.000 C 
ATOM     22  C   UNL     1       6.056   3.654  14.027  0.00  0.00    +0.000 C 
BRANCH  22  23
ATOM     23  C   UNL     1       5.816   3.308  12.602  0.00  0.00    +0.000 C 
ATOM     24  O   UNL     1       4.769   3.565  12.026  0.00  0.00    +0.000 OA
BRANCH  23  25
ATOM     25  O   UNL     1       6.839   2.639  12.031  0.00  0.00    +0.000 OA
ATOM     26  H   UNL     1       6.867   2.737  11.063  0.00  0.00    +0.000 HD
ENDBRANCH  23  25
ENDBRANCH  22  23
ENDBRANCH  16  17
ENDBRANCH  15  16
ENDBRANCH   2  15
TORSDOF 7
ENDMDL
MODEL 5
REMARK VINA RESULT:      -7.4      1.167      1.644
REMARK  Name = 
REMARK  9 active torsions:
REMARK  status: ('A' for Active; 'I' for Inactive)
REMARK    1  A    between atoms: C_1  and  C_2
REMARK    2  A    between atoms: C_5  and  C_6
REMARK    3  A    between atoms: C_6  and  C_19
REMARK    4  A    between atoms: C_7  and  C_8
REMARK    5  A    between atoms: C_8  and  C_9
REMARK    6  A    between atoms: C_9  and  N_10
REMARK    7  A    between atoms: C_15  and  C_16
REMARK    8  A    between atoms: C_16  and  O_18
REMARK    9  A    between atoms: C_22  and  C_23
REMARK                            x       y       z     vdW  Elec       q    Type
REMARK                         _______ _______ _______ _____ _____    ______ ____
ROOT
ATOM      1  C   UNL     1       2.699   7.023  18.742  0.00  0.00    +0.000 C 
ATOM      2  C   UNL     1       3.949   7.133  18.235  0.00  0.00    +0.000 C 
ENDROOT
BRANCH   1   7
ATOM      3  C   UNL     1      -0.104  11.085  20.667  0.00  0.00    +0.000 C 
ATOM      4  C   UNL     1       0.622  10.135  19.775  0.00  0.00    +0.000 A 
ATOM      5  C   UNL     1       0.834  10.236  18.416  0.00  0.00    +0.000 A 
ATOM      6  C   UNL     1       1.580   9.136  17.908  0.00  0.00    +0.000 A 
ATOM      7  C   UNL     1       1.918   8.214  18.884  0.00  0.00    +0.000 A 
ATOM      8  S   UNL     1       1.319   8.711  20.418  0.00  0.00    +0.000 S 
ENDBRANCH   1   7
BRANCH   1   9
ATOM      9  C   UNL     1       2.205   5.743  19.170  0.00  0.00    +0.000 A 
ATOM     10  C   UNL     1       2.100   5.235  20.453  0.00  0.00    +0.000 A 
ATOM     11  C   UNL     1       1.591   3.903  20.484  0.00  0.00    +0.000 A 
ATOM     12  C   UNL     1       1.324   3.419  19.222  0.00  0.00    +0.000 A 
ATOM     13  C   UNL     1       0.797   2.080  18.833  0.00  0.00    +0.000 C 
ATOM     14  S   UNL     1       1.691   4.574  18.015  0.00  0.00    +0.000 S 
ENDBRANCH   1   9
BRANCH   2  15
ATOM     15  C   UNL     1       4.912   5.980  18.079  0.00  0.00    +0.000 C 
BRANCH  15  16
ATOM     16  C   UNL     1       6.085   6.196  17.097  0.00  0.00    +0.000 C 
BRANCH  16  17
ATOM     17  N   UNL     1       5.837   5.481  15.835  0.00  0.00    +0.000 NA
ATOM     18  C   UNL     1       7.038   5.364  14.992  0.00  0.00    +0.000 C 
ATOM     19  C   UNL     1       6.758   4.174  14.140  0.00  0.00    +0.000 C 
ATOM     20  C   UNL     1       5.644   3.419  14.756  0.00  0.00    +0.000 C 
ATOM     21  C   UNL     1       5.260   4.139  16.017  0.00  0.00    +0.000 C 
ATOM     22  C   UNL     1       5.459   4.027  13.374  0.00  0.00    +0.000 C 
BRANCH  22  23
ATOM     23  C   UNL     1       5.463   3.180  12.153  0.00  0.00    +0.000 C 
ATOM     24  O   UNL     1       4.476   3.031  11.448  0.00  0.00    +0.000 OA
BRANCH  23  25
ATOM     25  O   UNL     1       6.638   2.553  11.937  0.00  0.00    +0.000 OA
ATOM     26  H   UNL     1       7.373   3.169  11.764  0.00  0.00    +0.000 HD
ENDBRANCH  23  25
ENDBRANCH  22  23
ENDBRANCH  16  17
ENDBRANCH  15  16
ENDBRANCH   2  15
TORSDOF 7
ENDMDL
MODEL 6
REMARK VINA RESULT:      -7.3      1.246      1.566
REMARK  Name = 
REMARK  9 active torsions:
REMARK  status: ('A' for Active; 'I' for Inactive)
REMARK    1  A    between atoms: C_1  and  C_2
REMARK    2  A    between atoms: C_5  and  C_6
REMARK    3  A    between atoms: C_6  and  C_19
REMARK    4  A    between atoms: C_7  and  C_8
REMARK    5  A    between atoms: C_8  and  C_9
REMARK    6  A    between atoms: C_9  and  N_10
REMARK    7  A    between atoms: C_15  and  C_16
REMARK    8  A    between atoms: C_16  and  O_18
REMARK    9  A    between atoms: C_22  and  C_23
REMARK                            x       y       z     vdW  Elec       q    Type
REMARK                         _______ _______ _______ _____ _____    ______ ____
ROOT
ATOM      1  C   UNL     1       2.663   6.909  18.900  0.00  0.00    +0.000 C 
ATOM      2  C   UNL     1       3.948   6.989  18.483  0.00  0.00    +0.000 C 
ENDROOT
BRANCH   1   7
ATOM      3  C   UNL     1      -0.125  11.063  20.642  0.00  0.00    +0.000 C 
ATOM      4  C   UNL     1       0.615  10.082  19.797  0.00  0.00    +0.000 A 
ATOM      5  C   UNL     1       0.882  10.154  18.446  0.00  0.00    +0.000 A 
ATOM      6  C   UNL     1       1.624   9.030  17.986  0.00  0.00    +0.000 A 
ATOM      7  C   UNL     1       1.903   8.119  18.991  0.00  0.00    +0.000 A 
ATOM      8  S   UNL     1       1.256   8.655  20.490  0.00  0.00    +0.000 S 
ENDBRANCH   1   7
BRANCH   1   9
ATOM      9  C   UNL     1       2.109   5.641  19.288  0.00  0.00    +0.000 A 
ATOM     10  C   UNL     1       1.873   5.147  20.559  0.00  0.00    +0.000 A 
ATOM     11  C   UNL     1       1.342   3.823  20.550  0.00  0.00    +0.000 A 
ATOM     12  C   UNL     1       1.190   3.332  19.272  0.00  0.00    +0.000 A 
ATOM     13  C   UNL     1       0.682   1.997  18.845  0.00  0.00    +0.000 C 
ATOM     14  S   UNL     1       1.690   4.470  18.098  0.00  0.00    +0.000 S 
ENDBRANCH   1   9
BRANCH   2  15
ATOM     15  C   UNL     1       4.892   5.813  18.391  0.00  0.00    +0.000 C 
BRANCH  15  16
ATOM     16  C   UNL     1       6.320   6.120  17.890  0.00  0.00    +0.000 C 
BRANCH  16  17
ATOM     17  N   UNL     1       6.503   5.618  16.519  0.00  0.00    +0.000 NA
ATOM     18  C   UNL     1       6.635   4.153  16.454  0.00  0.00    +0.000 C 
ATOM     19  C   UNL     1       6.213   3.821  15.064  0.00  0.00    +0.000 C 
ATOM     20  C   UNL     1       5.491   4.989  14.511  0.00  0.00    +0.000 C 
ATOM     21  C   UNL     1       5.442   6.035  15.588  0.00  0.00    +0.000 C 
ATOM     22  C   UNL     1       6.790   4.540  13.860  0.00  0.00    +0.000 C 
BRANCH  22  23
ATOM     23  C   UNL     1       6.792   3.824  12.558  0.00  0.00    +0.000 C 
ATOM     24  O   UNL     1       7.277   4.300  11.542  0.00  0.00    +0.000 OA
BRANCH  23  25
ATOM     25  O   UNL     1       6.160   2.632  12.598  0.00  0.00    +0.000 OA
ATOM     26  H   UNL     1       5.346   2.613  12.064  0.00  0.00    +0.000 HD
ENDBRANCH  23  25
ENDBRANCH  22  23
ENDBRANCH  16  17
ENDBRANCH  15  16
ENDBRANCH   2  15
TORSDOF 7
ENDMDL
MODEL 7
REMARK VINA RESULT:      -7.3      4.936      8.109
REMARK  Name = 
REMARK  9 active torsions:
REMARK  status: ('A' for Active; 'I' for Inactive)
REMARK    1  A    between atoms: C_1  and  C_2
REMARK    2  A    between atoms: C_5  and  C_6
REMARK    3  A    between atoms: C_6  and  C_19
REMARK    4  A    between atoms: C_7  and  C_8
REMARK    5  A    between atoms: C_8  and  C_9
REMARK    6  A    between atoms: C_9  and  N_10
REMARK    7  A    between atoms: C_15  and  C_16
REMARK    8  A    between atoms: C_16  and  O_18
REMARK    9  A    between atoms: C_22  and  C_23
REMARK                            x       y       z     vdW  Elec       q    Type
REMARK                         _______ _______ _______ _____ _____    ______ ____
ROOT
ATOM      1  C   UNL     1       3.665   5.775  17.594  0.00  0.00    +0.000 C 
ATOM      2  C   UNL     1       3.540   7.119  17.705  0.00  0.00    +0.000 C 
ENDROOT
BRANCH   1   7
ATOM      3  C   UNL     1       7.395   5.246  13.870  0.00  0.00    +0.000 C 
ATOM      4  C   UNL     1       6.417   5.000  14.970  0.00  0.00    +0.000 A 
ATOM      5  C   UNL     1       6.187   3.827  15.657  0.00  0.00    +0.000 A 
ATOM      6  C   UNL     1       5.178   3.978  16.649  0.00  0.00    +0.000 A 
ATOM      7  C   UNL     1       4.652   5.258  16.696  0.00  0.00    +0.000 A 
ATOM      8  S   UNL     1       5.407   6.265  15.525  0.00  0.00    +0.000 S 
ENDBRANCH   1   7
BRANCH   1   9
ATOM      9  C   UNL     1       2.785   4.906  18.327  0.00  0.00    +0.000 A 
ATOM     10  C   UNL     1       1.590   4.338  17.924  0.00  0.00    +0.000 A 
ATOM     11  C   UNL     1       0.975   3.555  18.946  0.00  0.00    +0.000 A 
ATOM     12  C   UNL     1       1.712   3.547  20.110  0.00  0.00    +0.000 A 
ATOM     13  C   UNL     1       1.406   2.862  21.398  0.00  0.00    +0.000 C 
ATOM     14  S   UNL     1       3.134   4.485  19.960  0.00  0.00    +0.000 S 
ENDBRANCH   1   9
BRANCH   2  15
ATOM     15  C   UNL     1       2.509   7.813  18.564  0.00  0.00    +0.000 C 
BRANCH  15  16
ATOM     16  C   UNL     1       1.469   8.678  17.819  0.00  0.00    +0.000 C 
BRANCH  16  17
ATOM     17  N   UNL     1       0.835   9.631  18.743  0.00  0.00    +0.000 NA
ATOM     18  C   UNL     1       0.707   9.108  20.113  0.00  0.00    +0.000 C 
ATOM     19  C   UNL     1       0.633  10.335  20.955  0.00  0.00    +0.000 C 
ATOM     20  C   UNL     1       1.110  11.479  20.144  0.00  0.00    +0.000 C 
ATOM     21  C   UNL     1       1.510  10.938  18.801  0.00  0.00    +0.000 C 
ATOM     22  C   UNL     1      -0.328  11.464  20.640  0.00  0.00    +0.000 C 
BRANCH  22  23
ATOM     23  C   UNL     1      -0.766  12.338  21.759  0.00  0.00    +0.000 C 
ATOM     24  O   UNL     1      -0.541  12.074  22.931  0.00  0.00    +0.000 OA
BRANCH  23  25
ATOM     25  O   UNL     1      -1.477  13.412  21.357  0.00  0.00    +0.000 OA
ATOM     26  H   UNL     1      -2.002  13.243  20.554  0.00  0.00    +0.000 HD
ENDBRANCH  23  25
ENDBRANCH  22  23
ENDBRANCH  16  17
ENDBRANCH  15  16
ENDBRANCH   2  15
TORSDOF 7
ENDMDL
MODEL 8
REMARK VINA RESULT:      -7.1      4.537      7.836
REMARK  Name = 
REMARK  9 active torsions:
REMARK  status: ('A' for Active; 'I' for Inactive)
REMARK    1  A    between atoms: C_1  and  C_2
REMARK    2  A    between atoms: C_5  and  C_6
REMARK    3  A    between atoms: C_6  and  C_19
REMARK    4  A    between atoms: C_7  and  C_8
REMARK    5  A    between atoms: C_8  and  C_9
REMARK    6  A    between atoms: C_9  and  N_10
REMARK    7  A    between atoms: C_15  and  C_16
REMARK    8  A    between atoms: C_16  and  O_18
REMARK    9  A    between atoms: C_22  and  C_23
REMARK                            x       y       z     vdW  Elec       q    Type
REMARK                         _______ _______ _______ _____ _____    ______ ____
ROOT
ATOM      1  C   UNL     1       3.707   5.632  17.699  0.00  0.00    +0.000 C 
ATOM      2  C   UNL     1       3.282   6.914  17.602  0.00  0.00    +0.000 C 
ENDROOT
BRANCH   1   7
ATOM      3  C   UNL     1       7.651   4.948  14.229  0.00  0.00    +0.000 C 
ATOM      4  C   UNL     1       6.807   4.971  15.459  0.00  0.00    +0.000 A 
ATOM      5  C   UNL     1       7.148   4.568  16.733  0.00  0.00    +0.000 A 
ATOM      6  C   UNL     1       6.079   4.747  17.655  0.00  0.00    +0.000 A 
ATOM      7  C   UNL     1       4.942   5.277  17.069  0.00  0.00    +0.000 A 
ATOM      8  S   UNL     1       5.200   5.554  15.392  0.00  0.00    +0.000 S 
ENDBRANCH   1   7
BRANCH   1   9
ATOM      9  C   UNL     1       2.899   4.654  18.375  0.00  0.00    +0.000 A 
ATOM     10  C   UNL     1       1.951   3.795  17.850  0.00  0.00    +0.000 A 
ATOM     11  C   UNL     1       1.323   2.986  18.843  0.00  0.00    +0.000 A 
ATOM     12  C   UNL     1       1.802   3.249  20.107  0.00  0.00    +0.000 A 
ATOM     13  C   UNL     1       1.397   2.630  21.401  0.00  0.00    +0.000 C 
ATOM     14  S   UNL     1       3.000   4.470  20.084  0.00  0.00    +0.000 S 
ENDBRANCH   1   9
BRANCH   2  15
ATOM     15  C   UNL     1       1.976   7.425  18.161  0.00  0.00    +0.000 C 
BRANCH  15  16
ATOM     16  C   UNL     1       2.041   8.086  19.556  0.00  0.00    +0.000 C 
BRANCH  16  17
ATOM     17  N   UNL     1       1.355   9.387  19.541  0.00  0.00    +0.000 NA
ATOM     18  C   UNL     1       0.853   9.760  18.209  0.00  0.00    +0.000 C 
ATOM     19  C   UNL     1      -0.255  10.712  18.501  0.00  0.00    +0.000 C 
ATOM     20  C   UNL     1      -0.625  10.563  19.927  0.00  0.00    +0.000 C 
ATOM     21  C   UNL     1       0.246   9.484  20.504  0.00  0.00    +0.000 C 
ATOM     22  C   UNL     1      -0.070  11.891  19.436  0.00  0.00    +0.000 C 
BRANCH  22  23
ATOM     23  C   UNL     1      -0.952  13.072  19.248  0.00  0.00    +0.000 C 
ATOM     24  O   UNL     1      -1.561  13.596  20.169  0.00  0.00    +0.000 OA
BRANCH  23  25
ATOM     25  O   UNL     1      -1.055  13.469  17.962  0.00  0.00    +0.000 OA
ATOM     26  H   UNL     1      -1.296  14.408  17.870  0.00  0.00    +0.000 HD
ENDBRANCH  23  25
ENDBRANCH  22  23
ENDBRANCH  16  17
ENDBRANCH  15  16
ENDBRANCH   2  15
TORSDOF 7
ENDMDL
MODEL 9
REMARK VINA RESULT:      -7.1      1.226      1.638
REMARK  Name = 
REMARK  9 active torsions:
REMARK  status: ('A' for Active; 'I' for Inactive)
REMARK    1  A    between atoms: C_1  and  C_2
REMARK    2  A    between atoms: C_5  and  C_6
REMARK    3  A    between atoms: C_6  and  C_19
REMARK    4  A    between atoms: C_7  and  C_8
REMARK    5  A    between atoms: C_8  and  C_9
REMARK    6  A    between atoms: C_9  and  N_10
REMARK    7  A    between atoms: C_15  and  C_16
REMARK    8  A    between atoms: C_16  and  O_18
REMARK    9  A    between atoms: C_22  and  C_23
REMARK                            x       y       z     vdW  Elec       q    Type
REMARK                         _______ _______ _______ _____ _____    ______ ____
ROOT
ATOM      1  C   UNL     1       3.034   6.444  19.094  0.00  0.00    +0.000 C 
ATOM      2  C   UNL     1       4.383   6.441  18.975  0.00  0.00    +0.000 C 
ENDROOT
BRANCH   1   7
ATOM      3  C   UNL     1       0.229  10.883  19.794  0.00  0.00    +0.000 C 
ATOM      4  C   UNL     1       1.046   9.776  19.219  0.00  0.00    +0.000 A 
ATOM      5  C   UNL     1       1.544   9.662  17.938  0.00  0.00    +0.000 A 
ATOM      6  C   UNL     1       2.288   8.463  17.758  0.00  0.00    +0.000 A 
ATOM      7  C   UNL     1       2.340   7.680  18.900  0.00  0.00    +0.000 A 
ATOM      8  S   UNL     1       1.477   8.430  20.184  0.00  0.00    +0.000 S 
ENDBRANCH   1   7
BRANCH   1   9
ATOM      9  C   UNL     1       2.339   5.239  19.457  0.00  0.00    +0.000 A 
ATOM     10  C   UNL     1       2.115   4.710  20.715  0.00  0.00    +0.000 A 
ATOM     11  C   UNL     1       1.413   3.469  20.679  0.00  0.00    +0.000 A 
ATOM     12  C   UNL     1       1.120   3.074  19.392  0.00  0.00    +0.000 A 
ATOM     13  C   UNL     1       0.413   1.844  18.936  0.00  0.00    +0.000 C 
ATOM     14  S   UNL     1       1.697   4.201  18.242  0.00  0.00    +0.000 S 
ENDBRANCH   1   9
BRANCH   2  15
ATOM     15  C   UNL     1       5.257   5.231  19.206  0.00  0.00    +0.000 C 
BRANCH  15  16
ATOM     16  C   UNL     1       4.934   3.981  18.359  0.00  0.00    +0.000 C 
BRANCH  16  17
ATOM     17  N   UNL     1       5.571   4.076  17.037  0.00  0.00    +0.000 NA
ATOM     18  C   UNL     1       4.781   4.857  16.071  0.00  0.00    +0.000 C 
ATOM     19  C   UNL     1       5.794   5.328  15.084  0.00  0.00    +0.000 C 
ATOM     20  C   UNL     1       7.135   5.167  15.689  0.00  0.00    +0.000 C 
ATOM     21  C   UNL     1       6.938   4.622  17.075  0.00  0.00    +0.000 C 
ATOM     22  C   UNL     1       6.782   4.378  14.438  0.00  0.00    +0.000 C 
BRANCH  22  23
ATOM     23  C   UNL     1       7.338   4.749  13.111  0.00  0.00    +0.000 C 
ATOM     24  O   UNL     1       8.055   5.725  12.943  0.00  0.00    +0.000 OA
BRANCH  23  25
ATOM     25  O   UNL     1       6.931   3.940  12.111  0.00  0.00    +0.000 OA
ATOM     26  H   UNL     1       6.013   4.109  11.833  0.00  0.00    +0.000 HD
ENDBRANCH  23  25
ENDBRANCH  22  23
ENDBRANCH  16  17
ENDBRANCH  15  16
ENDBRANCH   2  15
TORSDOF 7
ENDMDL
