MODEL 1
REMARK VINA RESULT:      -7.4      0.000      0.000
REMARK  Name = 
REMARK  7 active torsions:
REMARK  status: ('A' for Active; 'I' for Inactive)
REMARK    1  A    between atoms: O_1  and  C_2
REMARK    2  A    between atoms: C_2  and  C_3
REMARK    3  A    between atoms: C_5  and  S_6
REMARK    4  A    between atoms: S_6  and  C_7
REMARK    5  A    between atoms: C_17  and  O_18
REMARK    6  A    between atoms: C_19  and  O_20
REMARK    7  A    between atoms: C_21  and  O_22
REMARK                            x       y       z     vdW  Elec       q    Type
REMARK                         _______ _______ _______ _____ _____    ______ ____
ROOT
ATOM      1  C   UNL     1       6.109   4.981  14.773  0.00  0.00    +0.000 C 
ATOM      2  O   UNL     1       5.056   5.740  15.387  0.00  0.00    +0.000 OA
ATOM      3  C   UNL     1       5.515   6.564  16.464  0.00  0.00    +0.000 C 
ATOM      4  C   UNL     1       6.254   5.782  17.578  0.00  0.00    +0.000 C 
ATOM      5  C   UNL     1       7.317   4.856  16.942  0.00  0.00    +0.000 C 
ATOM      6  C   UNL     1       6.714   4.023  15.809  0.00  0.00    +0.000 C 
ENDROOT
BRANCH   4   7
ATOM      7  O   UNL     1       6.879   6.687  18.508  0.00  0.00    +0.000 OA
ATOM      8  H   UNL     1       6.257   7.404  18.716  0.00  0.00    +0.000 HD
ENDBRANCH   4   7
BRANCH   5   9
ATOM      9  O   UNL     1       7.883   3.988  17.930  0.00  0.00    +0.000 OA
ATOM     10  H   UNL     1       8.783   3.777  17.605  0.00  0.00    +0.000 HD
ENDBRANCH   5   9
BRANCH   6  11
ATOM     11  O   UNL     1       5.734   3.153  16.394  0.00  0.00    +0.000 OA
ATOM     12  H   UNL     1       4.856   3.564  16.229  0.00  0.00    +0.000 HD
ENDBRANCH   6  11
BRANCH   1  13
ATOM     13  C   UNL     1       5.535   4.251  13.550  0.00  0.00    +0.000 C 
BRANCH  13  14
ATOM     14  O   UNL     1       6.265   3.055  13.275  0.00  0.00    +0.000 OA
ATOM     15  H   UNL     1       6.295   2.550  14.109  0.00  0.00    +0.000 HD
ENDBRANCH  13  14
ENDBRANCH   1  13
BRANCH   3  16
ATOM     16  S   UNL     1       4.154   7.633  17.100  0.00  0.00    +0.000 S 
BRANCH  16  17
ATOM     17  C   UNL     1       3.204   6.517  18.117  0.00  0.00    +0.000 A 
ATOM     18  C   UNL     1       2.818   6.850  19.416  0.00  0.00    +0.000 A 
ATOM     19  C   UNL     1       2.145   5.922  20.218  0.00  0.00    +0.000 A 
ATOM     20  C   UNL     1       1.860   4.634  19.741  0.00  0.00    +0.000 A 
ATOM     21  C   UNL     1       1.190   3.689  20.539  0.00  0.00    +0.000 A 
ATOM     22  C   UNL     1       0.928   2.406  20.056  0.00  0.00    +0.000 A 
ATOM     23  C   UNL     1       1.335   2.049  18.774  0.00  0.00    +0.000 A 
ATOM     24  C   UNL     1       2.000   2.978  17.971  0.00  0.00    +0.000 A 
ATOM     25  C   UNL     1       2.263   4.277  18.437  0.00  0.00    +0.000 A 
ATOM     26  C   UNL     1       2.935   5.227  17.641  0.00  0.00    +0.000 A 
ENDBRANCH  16  17
ENDBRANCH   3  16
TORSDOF 7
ENDMDL
MODEL 2
REMARK VINA RESULT:      -7.4      3.206      5.202
REMARK  Name = 
REMARK  7 active torsions:
REMARK  status: ('A' for Active; 'I' for Inactive)
REMARK    1  A    between atoms: O_1  and  C_2
REMARK    2  A    between atoms: C_2  and  C_3
REMARK    3  A    between atoms: C_5  and  S_6
REMARK    4  A    between atoms: S_6  and  C_7
REMARK    5  A    between atoms: C_17  and  O_18
REMARK    6  A    between atoms: C_19  and  O_20
REMARK    7  A    between atoms: C_21  and  O_22
REMARK                            x       y       z     vdW  Elec       q    Type
REMARK                         _______ _______ _______ _____ _____    ______ ____
ROOT
ATOM      1  C   UNL     1       2.084   2.758  18.599  0.00  0.00    +0.000 C 
ATOM      2  O   UNL     1       2.422   4.121  18.301  0.00  0.00    +0.000 OA
ATOM      3  C   UNL     1       3.785   4.284  17.894  0.00  0.00    +0.000 C 
ATOM      4  C   UNL     1       4.812   3.751  18.924  0.00  0.00    +0.000 C 
ATOM      5  C   UNL     1       4.409   2.324  19.364  0.00  0.00    +0.000 C 
ATOM      6  C   UNL     1       2.937   2.271  19.779  0.00  0.00    +0.000 C 
ENDROOT
BRANCH   4   7
ATOM      7  O   UNL     1       6.138   3.738  18.363  0.00  0.00    +0.000 OA
ATOM      8  H   UNL     1       6.667   3.060  18.817  0.00  0.00    +0.000 HD
ENDBRANCH   4   7
BRANCH   5   9
ATOM      9  O   UNL     1       5.232   1.883  20.450  0.00  0.00    +0.000 OA
ATOM     10  H   UNL     1       5.046   2.504  21.185  0.00  0.00    +0.000 HD
ENDBRANCH   5   9
BRANCH   6  11
ATOM     11  O   UNL     1       2.792   3.098  20.943  0.00  0.00    +0.000 OA
ATOM     12  H   UNL     1       2.200   3.842  20.690  0.00  0.00    +0.000 HD
ENDBRANCH   6  11
BRANCH   1  13
ATOM     13  C   UNL     1       0.577   2.679  18.881  0.00  0.00    +0.000 C 
BRANCH  13  14
ATOM     14  O   UNL     1       0.241   3.370  20.085  0.00  0.00    +0.000 OA
ATOM     15  H   UNL     1       1.030   3.885  20.338  0.00  0.00    +0.000 HD
ENDBRANCH  13  14
ENDBRANCH   1  13
BRANCH   3  16
ATOM     16  S   UNL     1       4.112   6.020  17.366  0.00  0.00    +0.000 S 
BRANCH  16  17
ATOM     17  C   UNL     1       3.065   6.976  18.450  0.00  0.00    +0.000 A 
ATOM     18  C   UNL     1       2.752   6.547  19.739  0.00  0.00    +0.000 A 
ATOM     19  C   UNL     1       1.862   7.277  20.535  0.00  0.00    +0.000 A 
ATOM     20  C   UNL     1       1.254   8.444  20.048  0.00  0.00    +0.000 A 
ATOM     21  C   UNL     1       0.353   9.185  20.834  0.00  0.00    +0.000 A 
ATOM     22  C   UNL     1      -0.256  10.335  20.329  0.00  0.00    +0.000 A 
ATOM     23  C   UNL     1       0.023  10.757  19.033  0.00  0.00    +0.000 A 
ATOM     24  C   UNL     1       0.917  10.032  18.241  0.00  0.00    +0.000 A 
ATOM     25  C   UNL     1       1.547   8.877  18.737  0.00  0.00    +0.000 A 
ATOM     26  C   UNL     1       2.450   8.132  17.952  0.00  0.00    +0.000 A 
ENDBRANCH  16  17
ENDBRANCH   3  16
TORSDOF 7
ENDMDL
MODEL 3
REMARK VINA RESULT:      -7.4      2.069      4.306
REMARK  Name = 
REMARK  7 active torsions:
REMARK  status: ('A' for Active; 'I' for Inactive)
REMARK    1  A    between atoms: O_1  and  C_2
REMARK    2  A    between atoms: C_2  and  C_3
REMARK    3  A    between atoms: C_5  and  S_6
REMARK    4  A    between atoms: S_6  and  C_7
REMARK    5  A    between atoms: C_17  and  O_18
REMARK    6  A    between atoms: C_19  and  O_20
REMARK    7  A    between atoms: C_21  and  O_22
REMARK                            x       y       z     vdW  Elec       q    Type
REMARK                         _______ _______ _______ _____ _____    ______ ____
ROOT
ATOM      1  C   UNL     1       7.189   5.134  18.292  0.00  0.00    +0.000 C 
ATOM      2  O   UNL     1       5.772   4.917  18.373  0.00  0.00    +0.000 OA
ATOM      3  C   UNL     1       5.273   4.078  17.325  0.00  0.00    +0.000 C 
ATOM      4  C   UNL     1       5.596   4.598  15.902  0.00  0.00    +0.000 C 
ATOM      5  C   UNL     1       7.096   4.962  15.813  0.00  0.00    +0.000 C 
ATOM      6  C   UNL     1       7.515   5.861  16.979  0.00  0.00    +0.000 C 
ENDROOT
BRANCH   4   7
ATOM      7  O   UNL     1       5.268   3.606  14.911  0.00  0.00    +0.000 OA
ATOM      8  H   UNL     1       4.635   2.975  15.293  0.00  0.00    +0.000 HD
ENDBRANCH   4   7
BRANCH   5   9
ATOM      9  O   UNL     1       7.381   5.617  14.573  0.00  0.00    +0.000 OA
ATOM     10  H   UNL     1       6.666   5.340  13.963  0.00  0.00    +0.000 HD
ENDBRANCH   5   9
BRANCH   6  11
ATOM     11  O   UNL     1       6.801   7.099  16.841  0.00  0.00    +0.000 OA
ATOM     12  H   UNL     1       7.273   7.761  17.393  0.00  0.00    +0.000 HD
ENDBRANCH   6  11
BRANCH   1  13
ATOM     13  C   UNL     1       7.634   5.920  19.533  0.00  0.00    +0.000 C 
BRANCH  13  14
ATOM     14  O   UNL     1       8.530   5.150  20.336  0.00  0.00    +0.000 OA
ATOM     15  H   UNL     1       7.989   4.730  21.031  0.00  0.00    +0.000 HD
ENDBRANCH  13  14
ENDBRANCH   1  13
BRANCH   3  16
ATOM     16  S   UNL     1       3.486   3.701  17.579  0.00  0.00    +0.000 S 
BRANCH  16  17
ATOM     17  C   UNL     1       2.907   5.100  18.524  0.00  0.00    +0.000 A 
ATOM     18  C   UNL     1       2.536   4.981  19.863  0.00  0.00    +0.000 A 
ATOM     19  C   UNL     1       2.007   6.077  20.554  0.00  0.00    +0.000 A 
ATOM     20  C   UNL     1       1.824   7.311  19.912  0.00  0.00    +0.000 A 
ATOM     21  C   UNL     1       1.288   8.419  20.593  0.00  0.00    +0.000 A 
ATOM     22  C   UNL     1       1.097   9.636  19.935  0.00  0.00    +0.000 A 
ATOM     23  C   UNL     1       1.433   9.759  18.590  0.00  0.00    +0.000 A 
ATOM     24  C   UNL     1       1.967   8.668  17.903  0.00  0.00    +0.000 A 
ATOM     25  C   UNL     1       2.176   7.438  18.552  0.00  0.00    +0.000 A 
ATOM     26  C   UNL     1       2.712   6.325  17.873  0.00  0.00    +0.000 A 
ENDBRANCH  16  17
ENDBRANCH   3  16
TORSDOF 7
ENDMDL
MODEL 4
REMARK VINA RESULT:      -7.2      3.246      5.628
REMARK  Name = 
REMARK  7 active torsions:
REMARK  status: ('A' for Active; 'I' for Inactive)
REMARK    1  A    between atoms: O_1  and  C_2
REMARK    2  A    between atoms: C_2  and  C_3
REMARK    3  A    between atoms: C_5  and  S_6
REMARK    4  A    between atoms: S_6  and  C_7
REMARK    5  A    between atoms: C_17  and  O_18
REMARK    6  A    between atoms: C_19  and  O_20
REMARK    7  A    between atoms: C_21  and  O_22
REMARK                            x       y       z     vdW  Elec       q    Type
REMARK                         _______ _______ _______ _____ _____    ______ ____
ROOT
ATOM      1  C   UNL     1       1.885   3.519  19.751  0.00  0.00    +0.000 C 
ATOM      2  O   UNL     1       2.588   4.750  19.521  0.00  0.00    +0.000 OA
ATOM      3  C   UNL     1       3.065   4.879  18.178  0.00  0.00    +0.000 C 
ATOM      4  C   UNL     1       3.981   3.714  17.726  0.00  0.00    +0.000 C 
ATOM      5  C   UNL     1       3.309   2.365  18.072  0.00  0.00    +0.000 C 
ATOM      6  C   UNL     1       2.844   2.340  19.529  0.00  0.00    +0.000 C 
ENDROOT
BRANCH   4   7
ATOM      7  O   UNL     1       4.239   3.789  16.311  0.00  0.00    +0.000 OA
ATOM      8  H   UNL     1       4.862   3.083  16.067  0.00  0.00    +0.000 HD
ENDBRANCH   4   7
BRANCH   5   9
ATOM      9  O   UNL     1       4.213   1.280  17.836  0.00  0.00    +0.000 OA
ATOM     10  H   UNL     1       4.360   1.271  16.867  0.00  0.00    +0.000 HD
ENDBRANCH   5   9
BRANCH   6  11
ATOM     11  O   UNL     1       4.016   2.419  20.353  0.00  0.00    +0.000 OA
ATOM     12  H   UNL     1       4.302   3.360  20.350  0.00  0.00    +0.000 HD
ENDBRANCH   6  11
BRANCH   1  13
ATOM     13  C   UNL     1       1.298   3.550  21.170  0.00  0.00    +0.000 C 
BRANCH  13  14
ATOM     14  O   UNL     1       1.808   2.476  21.962  0.00  0.00    +0.000 OA
ATOM     15  H   UNL     1       1.304   1.681  21.708  0.00  0.00    +0.000 HD
ENDBRANCH  13  14
ENDBRANCH   1  13
BRANCH   3  16
ATOM     16  S   UNL     1       3.808   6.544  17.901  0.00  0.00    +0.000 S 
BRANCH  16  17
ATOM     17  C   UNL     1       2.552   7.655  18.512  0.00  0.00    +0.000 A 
ATOM     18  C   UNL     1       1.962   8.619  17.696  0.00  0.00    +0.000 A 
ATOM     19  C   UNL     1       1.040   9.530  18.224  0.00  0.00    +0.000 A 
ATOM     20  C   UNL     1       0.704   9.503  19.586  0.00  0.00    +0.000 A 
ATOM     21  C   UNL     1      -0.216  10.417  20.132  0.00  0.00    +0.000 A 
ATOM     22  C   UNL     1      -0.527  10.389  21.492  0.00  0.00    +0.000 A 
ATOM     23  C   UNL     1       0.078   9.452  22.324  0.00  0.00    +0.000 A 
ATOM     24  C   UNL     1       0.992   8.538  21.796  0.00  0.00    +0.000 A 
ATOM     25  C   UNL     1       1.310   8.546  20.426  0.00  0.00    +0.000 A 
ATOM     26  C   UNL     1       2.232   7.633  19.876  0.00  0.00    +0.000 A 
ENDBRANCH  16  17
ENDBRANCH   3  16
TORSDOF 7
ENDMDL
MODEL 5
REMARK VINA RESULT:      -7.1      2.311      4.556
REMARK  Name = 
REMARK  7 active torsions:
REMARK  status: ('A' for Active; 'I' for Inactive)
REMARK    1  A    between atoms: O_1  and  C_2
REMARK    2  A    between atoms: C_2  and  C_3
REMARK    3  A    between atoms: C_5  and  S_6
REMARK    4  A    between atoms: S_6  and  C_7
REMARK    5  A    between atoms: C_17  and  O_18
REMARK    6  A    between atoms: C_19  and  O_20
REMARK    7  A    between atoms: C_21  and  O_22
REMARK                            x       y       z     vdW  Elec       q    Type
REMARK                         _______ _______ _______ _____ _____    ______ ____
ROOT
ATOM      1  C   UNL     1       7.092   5.799  17.927  0.00  0.00    +0.000 C 
ATOM      2  O   UNL     1       5.836   5.763  18.621  0.00  0.00    +0.000 OA
ATOM      3  C   UNL     1       5.190   4.488  18.545  0.00  0.00    +0.000 C 
ATOM      4  C   UNL     1       4.950   3.996  17.096  0.00  0.00    +0.000 C 
ATOM      5  C   UNL     1       6.256   4.136  16.280  0.00  0.00    +0.000 C 
ATOM      6  C   UNL     1       6.853   5.537  16.433  0.00  0.00    +0.000 C 
ENDROOT
BRANCH   4   7
ATOM      7  O   UNL     1       4.509   2.625  17.090  0.00  0.00    +0.000 OA
ATOM      8  H   UNL     1       4.261   2.369  17.995  0.00  0.00    +0.000 HD
ENDBRANCH   4   7
BRANCH   5   9
ATOM      9  O   UNL     1       6.013   3.865  14.894  0.00  0.00    +0.000 OA
ATOM     10  H   UNL     1       6.844   4.106  14.434  0.00  0.00    +0.000 HD
ENDBRANCH   5   9
BRANCH   6  11
ATOM     11  O   UNL     1       5.923   6.463  15.852  0.00  0.00    +0.000 OA
ATOM     12  H   UNL     1       5.258   6.670  16.546  0.00  0.00    +0.000 HD
ENDBRANCH   6  11
BRANCH   1  13
ATOM     13  C   UNL     1       7.759   7.156  18.194  0.00  0.00    +0.000 C 
BRANCH  13  14
ATOM     14  O   UNL     1       7.870   7.921  16.993  0.00  0.00    +0.000 OA
ATOM     15  H   UNL     1       8.634   8.516  17.113  0.00  0.00    +0.000 HD
ENDBRANCH  13  14
ENDBRANCH   1  13
BRANCH   3  16
ATOM     16  S   UNL     1       3.672   4.456  19.590  0.00  0.00    +0.000 S 
BRANCH  16  17
ATOM     17  C   UNL     1       2.909   6.032  19.245  0.00  0.00    +0.000 A 
ATOM     18  C   UNL     1       3.072   6.677  18.019  0.00  0.00    +0.000 A 
ATOM     19  C   UNL     1       2.530   7.950  17.808  0.00  0.00    +0.000 A 
ATOM     20  C   UNL     1       1.829   8.610  18.828  0.00  0.00    +0.000 A 
ATOM     21  C   UNL     1       1.285   9.893  18.632  0.00  0.00    +0.000 A 
ATOM     22  C   UNL     1       0.605  10.544  19.662  0.00  0.00    +0.000 A 
ATOM     23  C   UNL     1       0.463   9.926  20.901  0.00  0.00    +0.000 A 
ATOM     24  C   UNL     1       0.997   8.652  21.109  0.00  0.00    +0.000 A 
ATOM     25  C   UNL     1       1.676   7.978  20.080  0.00  0.00    +0.000 A 
ATOM     26  C   UNL     1       2.224   6.693  20.273  0.00  0.00    +0.000 A 
ENDBRANCH  16  17
ENDBRANCH   3  16
TORSDOF 7
ENDMDL
MODEL 6
REMARK VINA RESULT:      -7.1      3.307      5.609
REMARK  Name = 
REMARK  7 active torsions:
REMARK  status: ('A' for Active; 'I' for Inactive)
REMARK    1  A    between atoms: O_1  and  C_2
REMARK    2  A    between atoms: C_2  and  C_3
REMARK    3  A    between atoms: C_5  and  S_6
REMARK    4  A    between atoms: S_6  and  C_7
REMARK    5  A    between atoms: C_17  and  O_18
REMARK    6  A    between atoms: C_19  and  O_20
REMARK    7  A    between atoms: C_21  and  O_22
REMARK                            x       y       z     vdW  Elec       q    Type
REMARK                         _______ _______ _______ _____ _____    ______ ____
ROOT
ATOM      1  C   UNL     1       3.644   2.755  20.106  0.00  0.00    +0.000 C 
ATOM      2  O   UNL     1       4.123   3.864  19.331  0.00  0.00    +0.000 OA
ATOM      3  C   UNL     1       3.071   4.615  18.717  0.00  0.00    +0.000 C 
ATOM      4  C   UNL     1       2.142   3.765  17.814  0.00  0.00    +0.000 C 
ATOM      5  C   UNL     1       1.703   2.493  18.575  0.00  0.00    +0.000 C 
ATOM      6  C   UNL     1       2.908   1.772  19.184  0.00  0.00    +0.000 C 
ENDROOT
BRANCH   4   7
ATOM      7  O   UNL     1       0.986   4.525  17.413  0.00  0.00    +0.000 OA
ATOM      8  H   UNL     1       1.061   5.426  17.771  0.00  0.00    +0.000 HD
ENDBRANCH   4   7
BRANCH   5   9
ATOM      9  O   UNL     1       1.000   1.603  17.701  0.00  0.00    +0.000 OA
ATOM     10  H   UNL     1       0.196   1.338  18.194  0.00  0.00    +0.000 HD
ENDBRANCH   5   9
BRANCH   6  11
ATOM     11  O   UNL     1       3.727   1.317  18.096  0.00  0.00    +0.000 OA
ATOM     12  H   UNL     1       3.209   1.461  17.272  0.00  0.00    +0.000 HD
ENDBRANCH   6  11
BRANCH   1  13
ATOM     13  C   UNL     1       4.837   2.113  20.829  0.00  0.00    +0.000 C 
BRANCH  13  14
ATOM     14  O   UNL     1       5.330   0.984  20.107  0.00  0.00    +0.000 OA
ATOM     15  H   UNL     1       6.055   0.608  20.641  0.00  0.00    +0.000 HD
ENDBRANCH  13  14
ENDBRANCH   1  13
BRANCH   3  16
ATOM     16  S   UNL     1       3.735   6.116  17.878  0.00  0.00    +0.000 S 
BRANCH  16  17
ATOM     17  C   UNL     1       2.650   7.413  18.448  0.00  0.00    +0.000 A 
ATOM     18  C   UNL     1       2.339   8.515  17.653  0.00  0.00    +0.000 A 
ATOM     19  C   UNL     1       1.552   9.556  18.158  0.00  0.00    +0.000 A 
ATOM     20  C   UNL     1       1.075   9.522  19.477  0.00  0.00    +0.000 A 
ATOM     21  C   UNL     1       0.289  10.565  20.000  0.00  0.00    +0.000 A 
ATOM     22  C   UNL     1      -0.164  10.523  21.320  0.00  0.00    +0.000 A 
ATOM     23  C   UNL     1       0.166   9.444  22.134  0.00  0.00    +0.000 A 
ATOM     24  C   UNL     1       0.945   8.402  21.628  0.00  0.00    +0.000 A 
ATOM     25  C   UNL     1       1.401   8.422  20.298  0.00  0.00    +0.000 A 
ATOM     26  C   UNL     1       2.190   7.379  19.771  0.00  0.00    +0.000 A 
ENDBRANCH  16  17
ENDBRANCH   3  16
TORSDOF 7
ENDMDL
MODEL 7
REMARK VINA RESULT:      -7.0      3.094      5.010
REMARK  Name = 
REMARK  7 active torsions:
REMARK  status: ('A' for Active; 'I' for Inactive)
REMARK    1  A    between atoms: O_1  and  C_2
REMARK    2  A    between atoms: C_2  and  C_3
REMARK    3  A    between atoms: C_5  and  S_6
REMARK    4  A    between atoms: S_6  and  C_7
REMARK    5  A    between atoms: C_17  and  O_18
REMARK    6  A    between atoms: C_19  and  O_20
REMARK    7  A    between atoms: C_21  and  O_22
REMARK                            x       y       z     vdW  Elec       q    Type
REMARK                         _______ _______ _______ _____ _____    ______ ____
ROOT
ATOM      1  C   UNL     1       2.138   3.284  18.461  0.00  0.00    +0.000 C 
ATOM      2  O   UNL     1       2.614   4.621  18.244  0.00  0.00    +0.000 OA
ATOM      3  C   UNL     1       4.000   4.671  17.888  0.00  0.00    +0.000 C 
ATOM      4  C   UNL     1       4.934   3.993  18.921  0.00  0.00    +0.000 C 
ATOM      5  C   UNL     1       4.383   2.592  19.275  0.00  0.00    +0.000 C 
ATOM      6  C   UNL     1       2.899   2.661  19.641  0.00  0.00    +0.000 C 
ENDROOT
BRANCH   4   7
ATOM      7  O   UNL     1       6.273   3.880  18.401  0.00  0.00    +0.000 OA
ATOM      8  H   UNL     1       6.870   3.617  19.121  0.00  0.00    +0.000 HD
ENDBRANCH   4   7
BRANCH   5   9
ATOM      9  O   UNL     1       5.121   2.022  20.361  0.00  0.00    +0.000 OA
ATOM     10  H   UNL     1       4.725   2.404  21.172  0.00  0.00    +0.000 HD
ENDBRANCH   5   9
BRANCH   6  11
ATOM     11  O   UNL     1       2.791   3.441  20.841  0.00  0.00    +0.000 OA
ATOM     12  H   UNL     1       2.670   2.805  21.582  0.00  0.00    +0.000 HD
ENDBRANCH   6  11
BRANCH   1  13
ATOM     13  C   UNL     1       0.621   3.337  18.692  0.00  0.00    +0.000 C 
BRANCH  13  14
ATOM     14  O   UNL     1       0.284   2.891  20.006  0.00  0.00    +0.000 OA
ATOM     15  H   UNL     1       0.738   3.490  20.627  0.00  0.00    +0.000 HD
ENDBRANCH  13  14
ENDBRANCH   1  13
BRANCH   3  16
ATOM     16  S   UNL     1       4.508   6.391  17.461  0.00  0.00    +0.000 S 
BRANCH  16  17
ATOM     17  C   UNL     1       3.164   7.380  18.096  0.00  0.00    +0.000 A 
ATOM     18  C   UNL     1       2.594   8.412  17.352  0.00  0.00    +0.000 A 
ATOM     19  C   UNL     1       1.598   9.223  17.908  0.00  0.00    +0.000 A 
ATOM     20  C   UNL     1       1.166   9.026  19.228  0.00  0.00    +0.000 A 
ATOM     21  C   UNL     1       0.170   9.838  19.802  0.00  0.00    +0.000 A 
ATOM     22  C   UNL     1      -0.238   9.640  21.122  0.00  0.00    +0.000 A 
ATOM     23  C   UNL     1       0.345   8.634  21.886  0.00  0.00    +0.000 A 
ATOM     24  C   UNL     1       1.334   7.820  21.329  0.00  0.00    +0.000 A 
ATOM     25  C   UNL     1       1.749   7.998  19.998  0.00  0.00    +0.000 A 
ATOM     26  C   UNL     1       2.748   7.188  19.420  0.00  0.00    +0.000 A 
ENDBRANCH  16  17
ENDBRANCH   3  16
TORSDOF 7
ENDMDL
MODEL 8
REMARK VINA RESULT:      -7.0      2.605      5.024
REMARK  Name = 
REMARK  7 active torsions:
REMARK  status: ('A' for Active; 'I' for Inactive)
REMARK    1  A    between atoms: O_1  and  C_2
REMARK    2  A    between atoms: C_2  and  C_3
REMARK    3  A    between atoms: C_5  and  S_6
REMARK    4  A    between atoms: S_6  and  C_7
REMARK    5  A    between atoms: C_17  and  O_18
REMARK    6  A    between atoms: C_19  and  O_20
REMARK    7  A    between atoms: C_21  and  O_22
REMARK                            x       y       z     vdW  Elec       q    Type
REMARK                         _______ _______ _______ _____ _____    ______ ____
ROOT
ATOM      1  C   UNL     1       6.648   4.985  18.657  0.00  0.00    +0.000 C 
ATOM      2  O   UNL     1       5.416   5.260  19.340  0.00  0.00    +0.000 OA
ATOM      3  C   UNL     1       4.360   4.367  18.970  0.00  0.00    +0.000 C 
ATOM      4  C   UNL     1       4.068   4.341  17.449  0.00  0.00    +0.000 C 
ATOM      5  C   UNL     1       5.394   4.170  16.672  0.00  0.00    +0.000 C 
ATOM      6  C   UNL     1       6.445   5.176  17.147  0.00  0.00    +0.000 C 
ENDROOT
BRANCH   4   7
ATOM      7  O   UNL     1       3.163   3.270  17.121  0.00  0.00    +0.000 OA
ATOM      8  H   UNL     1       2.494   3.601  16.498  0.00  0.00    +0.000 HD
ENDBRANCH   4   7
BRANCH   5   9
ATOM      9  O   UNL     1       5.176   4.330  15.266  0.00  0.00    +0.000 OA
ATOM     10  H   UNL     1       6.024   4.083  14.842  0.00  0.00    +0.000 HD
ENDBRANCH   5   9
BRANCH   6  11
ATOM     11  O   UNL     1       5.960   6.487  16.817  0.00  0.00    +0.000 OA
ATOM     12  H   UNL     1       5.458   6.400  15.976  0.00  0.00    +0.000 HD
ENDBRANCH   6  11
BRANCH   1  13
ATOM     13  C   UNL     1       7.739   5.901  19.231  0.00  0.00    +0.000 C 
BRANCH  13  14
ATOM     14  O   UNL     1       8.152   5.461  20.526  0.00  0.00    +0.000 OA
ATOM     15  H   UNL     1       8.279   4.496  20.463  0.00  0.00    +0.000 HD
ENDBRANCH  13  14
ENDBRANCH   1  13
BRANCH   3  16
ATOM     16  S   UNL     1       2.858   4.661  19.998  0.00  0.00    +0.000 S 
BRANCH  16  17
ATOM     17  C   UNL     1       2.344   6.298  19.504  0.00  0.00    +0.000 A 
ATOM     18  C   UNL     1       2.580   6.788  18.220  0.00  0.00    +0.000 A 
ATOM     19  C   UNL     1       2.239   8.104  17.888  0.00  0.00    +0.000 A 
ATOM     20  C   UNL     1       1.672   8.962  18.842  0.00  0.00    +0.000 A 
ATOM     21  C   UNL     1       1.331  10.289  18.524  0.00  0.00    +0.000 A 
ATOM     22  C   UNL     1       0.783  11.135  19.489  0.00  0.00    +0.000 A 
ATOM     23  C   UNL     1       0.572  10.669  20.783  0.00  0.00    +0.000 A 
ATOM     24  C   UNL     1       0.904   9.353  21.113  0.00  0.00    +0.000 A 
ATOM     25  C   UNL     1       1.448   8.484  20.151  0.00  0.00    +0.000 A 
ATOM     26  C   UNL     1       1.792   7.154  20.466  0.00  0.00    +0.000 A 
ENDBRANCH  16  17
ENDBRANCH   3  16
TORSDOF 7
ENDMDL
MODEL 9
REMARK VINA RESULT:      -7.0      2.350      3.921
REMARK  Name = 
REMARK  7 active torsions:
REMARK  status: ('A' for Active; 'I' for Inactive)
REMARK    1  A    between atoms: O_1  and  C_2
REMARK    2  A    between atoms: C_2  and  C_3
REMARK    3  A    between atoms: C_5  and  S_6
REMARK    4  A    between atoms: S_6  and  C_7
REMARK    5  A    between atoms: C_17  and  O_18
REMARK    6  A    between atoms: C_19  and  O_20
REMARK    7  A    between atoms: C_21  and  O_22
REMARK                            x       y       z     vdW  Elec       q    Type
REMARK                         _______ _______ _______ _____ _____    ______ ____
ROOT
ATOM      1  C   UNL     1       5.630   5.346  15.638  0.00  0.00    +0.000 C 
ATOM      2  O   UNL     1       4.551   5.007  16.522  0.00  0.00    +0.000 OA
ATOM      3  C   UNL     1       4.843   5.286  17.896  0.00  0.00    +0.000 C 
ATOM      4  C   UNL     1       6.124   4.589  18.416  0.00  0.00    +0.000 C 
ATOM      5  C   UNL     1       7.284   4.829  17.421  0.00  0.00    +0.000 C 
ATOM      6  C   UNL     1       6.859   4.494  15.990  0.00  0.00    +0.000 C 
ENDROOT
BRANCH   4   7
ATOM      7  O   UNL     1       6.481   5.085  19.720  0.00  0.00    +0.000 OA
ATOM      8  H   UNL     1       6.560   6.053  19.678  0.00  0.00    +0.000 HD
ENDBRANCH   4   7
BRANCH   5   9
ATOM      9  O   UNL     1       8.425   4.042  17.782  0.00  0.00    +0.000 OA
ATOM     10  H   UNL     1       9.084   4.683  18.122  0.00  0.00    +0.000 HD
ENDBRANCH   5   9
BRANCH   6  11
ATOM     11  O   UNL     1       6.586   3.086  15.944  0.00  0.00    +0.000 OA
ATOM     12  H   UNL     1       5.614   2.989  15.821  0.00  0.00    +0.000 HD
ENDBRANCH   6  11
BRANCH   1  13
ATOM     13  C   UNL     1       5.159   5.142  14.192  0.00  0.00    +0.000 C 
BRANCH  13  14
ATOM     14  O   UNL     1       5.924   4.129  13.538  0.00  0.00    +0.000 OA
ATOM     15  H   UNL     1       6.825   4.180  13.908  0.00  0.00    +0.000 HD
ENDBRANCH  13  14
ENDBRANCH   1  13
BRANCH   3  16
ATOM     16  S   UNL     1       3.365   4.988  18.957  0.00  0.00    +0.000 S 
BRANCH  16  17
ATOM     17  C   UNL     1       2.575   6.588  19.010  0.00  0.00    +0.000 A 
ATOM     18  C   UNL     1       2.619   7.468  17.929  0.00  0.00    +0.000 A 
ATOM     19  C   UNL     1       2.062   8.747  18.031  0.00  0.00    +0.000 A 
ATOM     20  C   UNL     1       1.465   9.178  19.225  0.00  0.00    +0.000 A 
ATOM     21  C   UNL     1       0.907  10.464  19.344  0.00  0.00    +0.000 A 
ATOM     22  C   UNL     1       0.332  10.884  20.545  0.00  0.00    +0.000 A 
ATOM     23  C   UNL     1       0.311  10.028  21.641  0.00  0.00    +0.000 A 
ATOM     24  C   UNL     1       0.860   8.749  21.538  0.00  0.00    +0.000 A 
ATOM     25  C   UNL     1       1.434   8.306  20.333  0.00  0.00    +0.000 A 
ATOM     26  C   UNL     1       1.995   7.018  20.211  0.00  0.00    +0.000 A 
ENDBRANCH  16  17
ENDBRANCH   3  16
TORSDOF 7
ENDMDL
