MODEL 1
REMARK VINA RESULT:      -7.8      0.000      0.000
REMARK  Name = 
REMARK  5 active torsions:
REMARK  status: ('A' for Active; 'I' for Inactive)
REMARK    1  A    between atoms: C_4  and  C_5
REMARK    2  A    between atoms: C_4  and  C_11
REMARK    3  A    between atoms: N_18  and  C_19
REMARK    4  A    between atoms: N_22  and  C_23
REMARK    5  A    between atoms: C_23  and  C_24
REMARK                            x       y       z     vdW  Elec       q    Type
REMARK                         _______ _______ _______ _____ _____    ______ ____
ROOT
ATOM      1  O   UNL     1       5.135   3.490  15.393  0.00  0.00    +0.000 OA
ATOM      2  C   UNL     1       5.001   3.751  16.570  0.00  0.00    +0.000 C 
ATOM      3  N   UNL     1       3.761   3.794  17.179  0.00  0.00    +0.000 N 
ATOM      4  C   UNL     1       3.799   4.437  18.486  0.00  0.00    +0.000 C 
ATOM      5  C   UNL     1       5.313   4.278  18.804  0.00  0.00    +0.000 C 
ATOM      6  N   UNL     1       5.957   4.109  17.511  0.00  0.00    +0.000 N 
ATOM      7  H   UNL     1       2.936   3.723  16.604  0.00  0.00    +0.000 HD
ENDROOT
BRANCH   4   8
ATOM      8  C   UNL     1       2.856   3.655  19.415  0.00  0.00    +0.000 A 
ATOM      9  C   UNL     1       1.534   3.342  19.059  0.00  0.00    +0.000 A 
ATOM     10  C   UNL     1       0.644   2.816  19.997  0.00  0.00    +0.000 A 
ATOM     11  C   UNL     1       1.070   2.551  21.294  0.00  0.00    +0.000 A 
ATOM     12  C   UNL     1       2.402   2.759  21.640  0.00  0.00    +0.000 A 
ATOM     13  C   UNL     1       3.290   3.293  20.705  0.00  0.00    +0.000 A 
ENDBRANCH   4   8
BRANCH   4  14
ATOM     14  C   UNL     1       3.425   5.938  18.404  0.00  0.00    +0.000 A 
ATOM     15  C   UNL     1       3.930   6.795  17.405  0.00  0.00    +0.000 A 
ATOM     16  C   UNL     1       3.525   8.133  17.321  0.00  0.00    +0.000 A 
ATOM     17  C   UNL     1       2.619   8.648  18.241  0.00  0.00    +0.000 A 
ATOM     18  C   UNL     1       2.139   7.836  19.264  0.00  0.00    +0.000 A 
ATOM     19  C   UNL     1       2.542   6.498  19.348  0.00  0.00    +0.000 A 
ENDBRANCH   4  14
BRANCH   6  20
ATOM     20  C   UNL     1       7.319   4.607  17.291  0.00  0.00    +0.000 C 
ATOM     21  C   UNL     1       7.892   5.241  18.554  0.00  0.00    +0.000 C 
ATOM     22  C   UNL     1       7.393   6.667  18.751  0.00  0.00    +0.000 C 
ATOM     23  N   UNL     1       7.756   7.527  17.613  0.00  0.00    +0.000 NA
ATOM     24  C   UNL     1       7.225   6.997  16.340  0.00  0.00    +0.000 C 
ATOM     25  C   UNL     1       7.530   5.522  16.085  0.00  0.00    +0.000 C 
BRANCH  23  26
ATOM     26  C   UNL     1       7.203   8.888  17.805  0.00  0.00    +0.000 C 
BRANCH  26  27
ATOM     27  C   UNL     1       8.224   9.939  18.188  0.00  0.00    +0.000 A 
ATOM     28  C   UNL     1       9.157   9.697  19.206  0.00  0.00    +0.000 A 
ATOM     29  C   UNL     1      10.112  10.660  19.533  0.00  0.00    +0.000 A 
ATOM     30  C   UNL     1      10.149  11.871  18.845  0.00  0.00    +0.000 A 
ATOM     31  C   UNL     1       9.223  12.127  17.837  0.00  0.00    +0.000 A 
ATOM     32  C   UNL     1       8.262  11.169  17.510  0.00  0.00    +0.000 A 
ENDBRANCH  26  27
ENDBRANCH  23  26
ENDBRANCH   6  20
TORSDOF 5
ENDMDL
MODEL 2
REMARK VINA RESULT:      -7.7      8.752     12.631
REMARK  Name = 
REMARK  5 active torsions:
REMARK  status: ('A' for Active; 'I' for Inactive)
REMARK    1  A    between atoms: C_4  and  C_5
REMARK    2  A    between atoms: C_4  and  C_11
REMARK    3  A    between atoms: N_18  and  C_19
REMARK    4  A    between atoms: N_22  and  C_23
REMARK    5  A    between atoms: C_23  and  C_24
REMARK                            x       y       z     vdW  Elec       q    Type
REMARK                         _______ _______ _______ _____ _____    ______ ____
ROOT
ATOM      1  O   UNL     1      -0.617  10.895  23.366  0.00  0.00    +0.000 OA
ATOM      2  C   UNL     1      -1.184  11.405  22.422  0.00  0.00    +0.000 C 
ATOM      3  N   UNL     1      -0.871  11.086  21.115  0.00  0.00    +0.000 N 
ATOM      4  C   UNL     1      -1.426  12.034  20.157  0.00  0.00    +0.000 C 
ATOM      5  C   UNL     1      -2.560  12.643  21.030  0.00  0.00    +0.000 C 
ATOM      6  N   UNL     1      -2.155  12.397  22.405  0.00  0.00    +0.000 N 
ATOM      7  H   UNL     1      -0.069  10.502  20.937  0.00  0.00    +0.000 HD
ENDROOT
BRANCH   4   8
ATOM      8  C   UNL     1      -1.907  11.233  18.937  0.00  0.00    +0.000 A 
ATOM      9  C   UNL     1      -1.086  10.310  18.267  0.00  0.00    +0.000 A 
ATOM     10  C   UNL     1      -1.477   9.754  17.048  0.00  0.00    +0.000 A 
ATOM     11  C   UNL     1      -2.714  10.073  16.498  0.00  0.00    +0.000 A 
ATOM     12  C   UNL     1      -3.585  10.906  17.194  0.00  0.00    +0.000 A 
ATOM     13  C   UNL     1      -3.191  11.469  18.409  0.00  0.00    +0.000 A 
ENDBRANCH   4   8
BRANCH   4  14
ATOM     14  C   UNL     1      -0.404  13.131  19.769  0.00  0.00    +0.000 A 
ATOM     15  C   UNL     1       0.989  12.918  19.797  0.00  0.00    +0.000 A 
ATOM     16  C   UNL     1       1.886  13.910  19.381  0.00  0.00    +0.000 A 
ATOM     17  C   UNL     1       1.411  15.141  18.941  0.00  0.00    +0.000 A 
ATOM     18  C   UNL     1       0.043  15.393  18.945  0.00  0.00    +0.000 A 
ATOM     19  C   UNL     1      -0.854  14.402  19.359  0.00  0.00    +0.000 A 
ENDBRANCH   4  14
BRANCH   6  20
ATOM     20  C   UNL     1      -2.518  13.344  23.465  0.00  0.00    +0.000 C 
ATOM     21  C   UNL     1      -3.569  12.755  24.402  0.00  0.00    +0.000 C 
ATOM     22  C   UNL     1      -4.972  12.857  23.819  0.00  0.00    +0.000 C 
ATOM     23  N   UNL     1      -5.343  14.255  23.549  0.00  0.00    +0.000 NA
ATOM     24  C   UNL     1      -4.386  14.906  22.630  0.00  0.00    +0.000 C 
ATOM     25  C   UNL     1      -2.918  14.751  23.024  0.00  0.00    +0.000 C 
BRANCH  23  26
ATOM     26  C   UNL     1      -6.686  14.315  22.924  0.00  0.00    +0.000 C 
BRANCH  26  27
ATOM     27  C   UNL     1      -6.950  13.246  21.885  0.00  0.00    +0.000 A 
ATOM     28  C   UNL     1      -6.439  13.365  20.585  0.00  0.00    +0.000 A 
ATOM     29  C   UNL     1      -6.663  12.362  19.642  0.00  0.00    +0.000 A 
ATOM     30  C   UNL     1      -7.394  11.228  19.987  0.00  0.00    +0.000 A 
ATOM     31  C   UNL     1      -7.915  11.100  21.273  0.00  0.00    +0.000 A 
ATOM     32  C   UNL     1      -7.698  12.104  22.218  0.00  0.00    +0.000 A 
ENDBRANCH  26  27
ENDBRANCH  23  26
ENDBRANCH   6  20
TORSDOF 5
ENDMDL
MODEL 3
REMARK VINA RESULT:      -7.7      8.418     11.013
REMARK  Name = 
REMARK  5 active torsions:
REMARK  status: ('A' for Active; 'I' for Inactive)
REMARK    1  A    between atoms: C_4  and  C_5
REMARK    2  A    between atoms: C_4  and  C_11
REMARK    3  A    between atoms: N_18  and  C_19
REMARK    4  A    between atoms: N_22  and  C_23
REMARK    5  A    between atoms: C_23  and  C_24
REMARK                            x       y       z     vdW  Elec       q    Type
REMARK                         _______ _______ _______ _____ _____    ______ ____
ROOT
ATOM      1  O   UNL     1       9.907  17.163  20.380  0.00  0.00    +0.000 OA
ATOM      2  C   UNL     1       9.308  16.115  20.500  0.00  0.00    +0.000 C 
ATOM      3  N   UNL     1       9.717  15.127  21.375  0.00  0.00    +0.000 N 
ATOM      4  C   UNL     1       9.063  13.849  21.126  0.00  0.00    +0.000 C 
ATOM      5  C   UNL     1       7.815  14.350  20.343  0.00  0.00    +0.000 C 
ATOM      6  N   UNL     1       8.199  15.647  19.808  0.00  0.00    +0.000 N 
ATOM      7  H   UNL     1      10.604  15.230  21.842  0.00  0.00    +0.000 HD
ENDROOT
BRANCH   4   8
ATOM      8  C   UNL     1       8.757  13.210  22.491  0.00  0.00    +0.000 A 
ATOM      9  C   UNL     1       8.420  11.853  22.630  0.00  0.00    +0.000 A 
ATOM     10  C   UNL     1       7.949  11.352  23.845  0.00  0.00    +0.000 A 
ATOM     11  C   UNL     1       7.851  12.186  24.955  0.00  0.00    +0.000 A 
ATOM     12  C   UNL     1       8.274  13.509  24.865  0.00  0.00    +0.000 A 
ATOM     13  C   UNL     1       8.737  14.012  23.648  0.00  0.00    +0.000 A 
ENDBRANCH   4   8
BRANCH   4  14
ATOM     14  C   UNL     1       9.921  12.924  20.228  0.00  0.00    +0.000 A 
ATOM     15  C   UNL     1       9.412  12.305  19.068  0.00  0.00    +0.000 A 
ATOM     16  C   UNL     1      10.229  11.524  18.242  0.00  0.00    +0.000 A 
ATOM     17  C   UNL     1      11.569  11.332  18.564  0.00  0.00    +0.000 A 
ATOM     18  C   UNL     1      12.085  11.894  19.727  0.00  0.00    +0.000 A 
ATOM     19  C   UNL     1      11.269  12.677  20.552  0.00  0.00    +0.000 A 
ENDBRANCH   4  14
BRANCH   6  20
ATOM     20  C   UNL     1       7.655  16.110  18.527  0.00  0.00    +0.000 C 
ATOM     21  C   UNL     1       6.791  17.355  18.706  0.00  0.00    +0.000 C 
ATOM     22  C   UNL     1       5.388  17.010  19.187  0.00  0.00    +0.000 C 
ATOM     23  N   UNL     1       4.698  16.117  18.242  0.00  0.00    +0.000 NA
ATOM     24  C   UNL     1       5.457  14.869  18.019  0.00  0.00    +0.000 C 
ATOM     25  C   UNL     1       6.931  15.071  17.671  0.00  0.00    +0.000 C 
BRANCH  23  26
ATOM     26  C   UNL     1       3.363  15.750  18.769  0.00  0.00    +0.000 C 
BRANCH  26  27
ATOM     27  C   UNL     1       2.215  16.565  18.211  0.00  0.00    +0.000 A 
ATOM     28  C   UNL     1       2.404  17.414  17.112  0.00  0.00    +0.000 A 
ATOM     29  C   UNL     1       1.335  18.140  16.587  0.00  0.00    +0.000 A 
ATOM     30  C   UNL     1       0.066  18.022  17.149  0.00  0.00    +0.000 A 
ATOM     31  C   UNL     1      -0.134  17.188  18.247  0.00  0.00    +0.000 A 
ATOM     32  C   UNL     1       0.934  16.464  18.779  0.00  0.00    +0.000 A 
ENDBRANCH  26  27
ENDBRANCH  23  26
ENDBRANCH   6  20
TORSDOF 5
ENDMDL
MODEL 4
REMARK VINA RESULT:      -7.6      2.591      6.635
REMARK  Name = 
REMARK  5 active torsions:
REMARK  status: ('A' for Active; 'I' for Inactive)
REMARK    1  A    between atoms: C_4  and  C_5
REMARK    2  A    between atoms: C_4  and  C_11
REMARK    3  A    between atoms: N_18  and  C_19
REMARK    4  A    between atoms: N_22  and  C_23
REMARK    5  A    between atoms: C_23  and  C_24
REMARK                            x       y       z     vdW  Elec       q    Type
REMARK                         _______ _______ _______ _____ _____    ______ ____
ROOT
ATOM      1  O   UNL     1       4.512   1.441  18.076  0.00  0.00    +0.000 OA
ATOM      2  C   UNL     1       4.487   2.462  17.420  0.00  0.00    +0.000 C 
ATOM      3  N   UNL     1       5.518   2.821  16.574  0.00  0.00    +0.000 N 
ATOM      4  C   UNL     1       5.436   4.211  16.146  0.00  0.00    +0.000 C 
ATOM      5  C   UNL     1       3.925   4.471  16.413  0.00  0.00    +0.000 C 
ATOM      6  N   UNL     1       3.538   3.475  17.399  0.00  0.00    +0.000 N 
ATOM      7  H   UNL     1       6.369   2.281  16.590  0.00  0.00    +0.000 HD
ENDROOT
BRANCH   4   8
ATOM      8  C   UNL     1       5.851   4.267  14.667  0.00  0.00    +0.000 A 
ATOM      9  C   UNL     1       5.137   3.601  13.657  0.00  0.00    +0.000 A 
ATOM     10  C   UNL     1       5.651   3.500  12.363  0.00  0.00    +0.000 A 
ATOM     11  C   UNL     1       6.863   4.102  12.042  0.00  0.00    +0.000 A 
ATOM     12  C   UNL     1       7.538   4.852  13.002  0.00  0.00    +0.000 A 
ATOM     13  C   UNL     1       7.029   4.945  14.298  0.00  0.00    +0.000 A 
ENDBRANCH   4   8
BRANCH   4  14
ATOM     14  C   UNL     1       6.302   5.142  17.031  0.00  0.00    +0.000 A 
ATOM     15  C   UNL     1       7.173   4.653  18.025  0.00  0.00    +0.000 A 
ATOM     16  C   UNL     1       7.989   5.516  18.768  0.00  0.00    +0.000 A 
ATOM     17  C   UNL     1       7.942   6.888  18.542  0.00  0.00    +0.000 A 
ATOM     18  C   UNL     1       7.058   7.401  17.598  0.00  0.00    +0.000 A 
ATOM     19  C   UNL     1       6.243   6.539  16.855  0.00  0.00    +0.000 A 
ENDBRANCH   4  14
BRANCH   6  20
ATOM     20  C   UNL     1       2.497   3.778  18.388  0.00  0.00    +0.000 C 
ATOM     21  C   UNL     1       1.367   4.598  17.774  0.00  0.00    +0.000 C 
ATOM     22  C   UNL     1       1.721   6.077  17.682  0.00  0.00    +0.000 C 
ATOM     23  N   UNL     1       2.019   6.643  19.007  0.00  0.00    +0.000 NA
ATOM     24  C   UNL     1       3.120   5.918  19.675  0.00  0.00    +0.000 C 
ATOM     25  C   UNL     1       2.960   4.399  19.705  0.00  0.00    +0.000 C 
BRANCH  23  26
ATOM     26  C   UNL     1       2.421   8.063  18.877  0.00  0.00    +0.000 C 
BRANCH  26  27
ATOM     27  C   UNL     1       1.319   9.063  19.158  0.00  0.00    +0.000 A 
ATOM     28  C   UNL     1       0.678   9.739  18.111  0.00  0.00    +0.000 A 
ATOM     29  C   UNL     1      -0.355  10.638  18.377  0.00  0.00    +0.000 A 
ATOM     30  C   UNL     1      -0.763  10.866  19.690  0.00  0.00    +0.000 A 
ATOM     31  C   UNL     1      -0.129  10.207  20.740  0.00  0.00    +0.000 A 
ATOM     32  C   UNL     1       0.909   9.312  20.479  0.00  0.00    +0.000 A 
ENDBRANCH  26  27
ENDBRANCH  23  26
ENDBRANCH   6  20
TORSDOF 5
ENDMDL
MODEL 5
REMARK VINA RESULT:      -7.5      0.123      1.230
REMARK  Name = 
REMARK  5 active torsions:
REMARK  status: ('A' for Active; 'I' for Inactive)
REMARK    1  A    between atoms: C_4  and  C_5
REMARK    2  A    between atoms: C_4  and  C_11
REMARK    3  A    between atoms: N_18  and  C_19
REMARK    4  A    between atoms: N_22  and  C_23
REMARK    5  A    between atoms: C_23  and  C_24
REMARK                            x       y       z     vdW  Elec       q    Type
REMARK                         _______ _______ _______ _____ _____    ______ ____
ROOT
ATOM      1  O   UNL     1       5.164   3.380  15.354  0.00  0.00    +0.000 OA
ATOM      2  C   UNL     1       5.020   3.685  16.520  0.00  0.00    +0.000 C 
ATOM      3  N   UNL     1       3.776   3.735  17.120  0.00  0.00    +0.000 N 
ATOM      4  C   UNL     1       3.798   4.428  18.402  0.00  0.00    +0.000 C 
ATOM      5  C   UNL     1       5.313   4.302  18.733  0.00  0.00    +0.000 C 
ATOM      6  N   UNL     1       5.966   4.091  17.451  0.00  0.00    +0.000 N 
ATOM      7  H   UNL     1       2.956   3.630  16.545  0.00  0.00    +0.000 HD
ENDROOT
BRANCH   4   8
ATOM      8  C   UNL     1       2.862   3.669  19.356  0.00  0.00    +0.000 A 
ATOM      9  C   UNL     1       1.549   3.316  19.002  0.00  0.00    +0.000 A 
ATOM     10  C   UNL     1       0.659   2.814  19.954  0.00  0.00    +0.000 A 
ATOM     11  C   UNL     1       1.078   2.614  21.265  0.00  0.00    +0.000 A 
ATOM     12  C   UNL     1       2.402   2.862  21.614  0.00  0.00    +0.000 A 
ATOM     13  C   UNL     1       3.290   3.371  20.664  0.00  0.00    +0.000 A 
ENDBRANCH   4   8
BRANCH   4  14
ATOM     14  C   UNL     1       3.405   5.919  18.261  0.00  0.00    +0.000 A 
ATOM     15  C   UNL     1       2.504   6.555  19.140  0.00  0.00    +0.000 A 
ATOM     16  C   UNL     1       2.216   7.920  19.024  0.00  0.00    +0.000 A 
ATOM     17  C   UNL     1       2.811   8.677  18.020  0.00  0.00    +0.000 A 
ATOM     18  C   UNL     1       3.669   8.065  17.113  0.00  0.00    +0.000 A 
ATOM     19  C   UNL     1       3.959   6.701  17.228  0.00  0.00    +0.000 A 
ENDBRANCH   4  14
BRANCH   6  20
ATOM     20  C   UNL     1       7.322   4.599  17.218  0.00  0.00    +0.000 C 
ATOM     21  C   UNL     1       7.906   5.228  18.479  0.00  0.00    +0.000 C 
ATOM     22  C   UNL     1       7.402   6.650  18.692  0.00  0.00    +0.000 C 
ATOM     23  N   UNL     1       7.746   7.519  17.556  0.00  0.00    +0.000 NA
ATOM     24  C   UNL     1       7.204   6.995  16.285  0.00  0.00    +0.000 C 
ATOM     25  C   UNL     1       7.514   5.523  16.017  0.00  0.00    +0.000 C 
BRANCH  23  26
ATOM     26  C   UNL     1       7.187   8.876  17.764  0.00  0.00    +0.000 C 
BRANCH  26  27
ATOM     27  C   UNL     1       8.206   9.930  18.144  0.00  0.00    +0.000 A 
ATOM     28  C   UNL     1       8.237  11.168  17.488  0.00  0.00    +0.000 A 
ATOM     29  C   UNL     1       9.160  12.145  17.863  0.00  0.00    +0.000 A 
ATOM     30  C   UNL     1      10.057  11.897  18.900  0.00  0.00    +0.000 A 
ATOM     31  C   UNL     1      10.042  10.668  19.555  0.00  0.00    +0.000 A 
ATOM     32  C   UNL     1       9.124   9.686  19.179  0.00  0.00    +0.000 A 
ENDBRANCH  26  27
ENDBRANCH  23  26
ENDBRANCH   6  20
TORSDOF 5
ENDMDL
MODEL 6
REMARK VINA RESULT:      -7.5      5.811      9.802
REMARK  Name = 
REMARK  5 active torsions:
REMARK  status: ('A' for Active; 'I' for Inactive)
REMARK    1  A    between atoms: C_4  and  C_5
REMARK    2  A    between atoms: C_4  and  C_11
REMARK    3  A    between atoms: N_18  and  C_19
REMARK    4  A    between atoms: N_22  and  C_23
REMARK    5  A    between atoms: C_23  and  C_24
REMARK                            x       y       z     vdW  Elec       q    Type
REMARK                         _______ _______ _______ _____ _____    ______ ____
ROOT
ATOM      1  O   UNL     1      -2.168  12.130  23.157  0.00  0.00    +0.000 OA
ATOM      2  C   UNL     1      -1.363  12.023  22.256  0.00  0.00    +0.000 C 
ATOM      3  N   UNL     1      -1.363  12.868  21.163  0.00  0.00    +0.000 N 
ATOM      4  C   UNL     1      -0.544  12.369  20.067  0.00  0.00    +0.000 C 
ATOM      5  C   UNL     1       0.373  11.392  20.858  0.00  0.00    +0.000 C 
ATOM      6  N   UNL     1      -0.368  11.073  22.068  0.00  0.00    +0.000 N 
ATOM      7  H   UNL     1      -2.126  13.517  21.053  0.00  0.00    +0.000 HD
ENDROOT
BRANCH   4   8
ATOM      8  C   UNL     1       0.180  13.573  19.442  0.00  0.00    +0.000 A 
ATOM      9  C   UNL     1       1.504  13.500  18.978  0.00  0.00    +0.000 A 
ATOM     10  C   UNL     1       2.200  14.653  18.609  0.00  0.00    +0.000 A 
ATOM     11  C   UNL     1       1.571  15.893  18.652  0.00  0.00    +0.000 A 
ATOM     12  C   UNL     1       0.229  15.975  19.013  0.00  0.00    +0.000 A 
ATOM     13  C   UNL     1      -0.464  14.824  19.390  0.00  0.00    +0.000 A 
ENDBRANCH   4   8
BRANCH   4  14
ATOM     14  C   UNL     1      -1.383  11.588  19.025  0.00  0.00    +0.000 A 
ATOM     15  C   UNL     1      -0.842  10.553  18.234  0.00  0.00    +0.000 A 
ATOM     16  C   UNL     1      -1.641   9.824  17.345  0.00  0.00    +0.000 A 
ATOM     17  C   UNL     1      -2.993  10.121  17.216  0.00  0.00    +0.000 A 
ATOM     18  C   UNL     1      -3.543  11.166  17.952  0.00  0.00    +0.000 A 
ATOM     19  C   UNL     1      -2.745  11.895  18.842  0.00  0.00    +0.000 A 
ENDBRANCH   4  14
BRANCH   6  20
ATOM     20  C   UNL     1      -0.228   9.755  22.697  0.00  0.00    +0.000 C 
ATOM     21  C   UNL     1       1.229   9.451  23.034  0.00  0.00    +0.000 C 
ATOM     22  C   UNL     1       2.004   8.962  21.817  0.00  0.00    +0.000 C 
ATOM     23  N   UNL     1       1.409   7.740  21.254  0.00  0.00    +0.000 NA
ATOM     24  C   UNL     1      -0.006   7.946  20.879  0.00  0.00    +0.000 C 
ATOM     25  C   UNL     1      -0.870   8.574  21.971  0.00  0.00    +0.000 C 
BRANCH  23  26
ATOM     26  C   UNL     1       2.147   7.328  20.037  0.00  0.00    +0.000 C 
BRANCH  26  27
ATOM     27  C   UNL     1       1.942   5.883  19.630  0.00  0.00    +0.000 A 
ATOM     28  C   UNL     1       1.567   4.917  20.575  0.00  0.00    +0.000 A 
ATOM     29  C   UNL     1       1.353   3.594  20.187  0.00  0.00    +0.000 A 
ATOM     30  C   UNL     1       1.505   3.223  18.853  0.00  0.00    +0.000 A 
ATOM     31  C   UNL     1       1.885   4.171  17.906  0.00  0.00    +0.000 A 
ATOM     32  C   UNL     1       2.105   5.495  18.290  0.00  0.00    +0.000 A 
ENDBRANCH  26  27
ENDBRANCH  23  26
ENDBRANCH   6  20
TORSDOF 5
ENDMDL
MODEL 7
REMARK VINA RESULT:      -7.5      9.204     13.003
REMARK  Name = 
REMARK  5 active torsions:
REMARK  status: ('A' for Active; 'I' for Inactive)
REMARK    1  A    between atoms: C_4  and  C_5
REMARK    2  A    between atoms: C_4  and  C_11
REMARK    3  A    between atoms: N_18  and  C_19
REMARK    4  A    between atoms: N_22  and  C_23
REMARK    5  A    between atoms: C_23  and  C_24
REMARK                            x       y       z     vdW  Elec       q    Type
REMARK                         _______ _______ _______ _____ _____    ______ ____
ROOT
ATOM      1  O   UNL     1      -0.847  11.240  23.299  0.00  0.00    +0.000 OA
ATOM      2  C   UNL     1      -1.518  11.708  22.404  0.00  0.00    +0.000 C 
ATOM      3  N   UNL     1      -1.206  11.518  21.071  0.00  0.00    +0.000 N 
ATOM      4  C   UNL     1      -1.935  12.420  20.189  0.00  0.00    +0.000 C 
ATOM      5  C   UNL     1      -3.118  12.793  21.128  0.00  0.00    +0.000 C 
ATOM      6  N   UNL     1      -2.631  12.535  22.474  0.00  0.00    +0.000 N 
ATOM      7  H   UNL     1      -0.331  11.078  20.836  0.00  0.00    +0.000 HD
ENDROOT
BRANCH   4   8
ATOM      8  C   UNL     1      -2.330  11.625  18.934  0.00  0.00    +0.000 A 
ATOM      9  C   UNL     1      -3.626  11.663  18.394  0.00  0.00    +0.000 A 
ATOM     10  C   UNL     1      -4.008  10.778  17.384  0.00  0.00    +0.000 A 
ATOM     11  C   UNL     1      -3.091   9.871  16.865  0.00  0.00    +0.000 A 
ATOM     12  C   UNL     1      -1.774   9.885  17.315  0.00  0.00    +0.000 A 
ATOM     13  C   UNL     1      -1.394  10.763  18.331  0.00  0.00    +0.000 A 
ENDBRANCH   4   8
BRANCH   4  14
ATOM     14  C   UNL     1      -1.109  13.685  19.843  0.00  0.00    +0.000 A 
ATOM     15  C   UNL     1      -1.543  14.988  20.162  0.00  0.00    +0.000 A 
ATOM     16  C   UNL     1      -0.747  16.107  19.891  0.00  0.00    +0.000 A 
ATOM     17  C   UNL     1       0.495  15.950  19.285  0.00  0.00    +0.000 A 
ATOM     18  C   UNL     1       0.928  14.680  18.920  0.00  0.00    +0.000 A 
ATOM     19  C   UNL     1       0.133  13.560  19.191  0.00  0.00    +0.000 A 
ENDBRANCH   4  14
BRANCH   6  20
ATOM     20  C   UNL     1      -3.098  13.351  23.600  0.00  0.00    +0.000 C 
ATOM     21  C   UNL     1      -4.086  12.582  24.473  0.00  0.00    +0.000 C 
ATOM     22  C   UNL     1      -5.489  12.581  23.880  0.00  0.00    +0.000 C 
ATOM     23  N   UNL     1      -6.005  13.949  23.716  0.00  0.00    +0.000 NA
ATOM     24  C   UNL     1      -5.117  14.769  22.865  0.00  0.00    +0.000 C 
ATOM     25  C   UNL     1      -3.643  14.738  23.265  0.00  0.00    +0.000 C 
BRANCH  23  26
ATOM     26  C   UNL     1      -7.343  13.917  23.079  0.00  0.00    +0.000 C 
BRANCH  26  27
ATOM     27  C   UNL     1      -7.358  13.382  21.662  0.00  0.00    +0.000 A 
ATOM     28  C   UNL     1      -7.218  12.011  21.411  0.00  0.00    +0.000 A 
ATOM     29  C   UNL     1      -7.262  11.523  20.104  0.00  0.00    +0.000 A 
ATOM     30  C   UNL     1      -7.452  12.399  19.037  0.00  0.00    +0.000 A 
ATOM     31  C   UNL     1      -7.585  13.765  19.273  0.00  0.00    +0.000 A 
ATOM     32  C   UNL     1      -7.536  14.258  20.578  0.00  0.00    +0.000 A 
ENDBRANCH  26  27
ENDBRANCH  23  26
ENDBRANCH   6  20
TORSDOF 5
ENDMDL
MODEL 8
REMARK VINA RESULT:      -7.3      7.569     11.825
REMARK  Name = 
REMARK  5 active torsions:
REMARK  status: ('A' for Active; 'I' for Inactive)
REMARK    1  A    between atoms: C_4  and  C_5
REMARK    2  A    between atoms: C_4  and  C_11
REMARK    3  A    between atoms: N_18  and  C_19
REMARK    4  A    between atoms: N_22  and  C_23
REMARK    5  A    between atoms: C_23  and  C_24
REMARK                            x       y       z     vdW  Elec       q    Type
REMARK                         _______ _______ _______ _____ _____    ______ ____
ROOT
ATOM      1  O   UNL     1       0.760   9.278  17.815  0.00  0.00    +0.000 OA
ATOM      2  C   UNL     1       0.169  10.324  17.984  0.00  0.00    +0.000 C 
ATOM      3  N   UNL     1       0.686  11.345  18.760  0.00  0.00    +0.000 N 
ATOM      4  C   UNL     1      -0.309  12.356  19.093  0.00  0.00    +0.000 C 
ATOM      5  C   UNL     1      -1.340  12.080  17.961  0.00  0.00    +0.000 C 
ATOM      6  N   UNL     1      -1.089  10.711  17.543  0.00  0.00    +0.000 N 
ATOM      7  H   UNL     1       1.521  11.171  19.296  0.00  0.00    +0.000 HD
ENDROOT
BRANCH   4   8
ATOM      8  C   UNL     1       0.380  13.727  19.021  0.00  0.00    +0.000 A 
ATOM      9  C   UNL     1      -0.340  14.932  18.954  0.00  0.00    +0.000 A 
ATOM     10  C   UNL     1       0.305  16.140  18.684  0.00  0.00    +0.000 A 
ATOM     11  C   UNL     1       1.686  16.174  18.521  0.00  0.00    +0.000 A 
ATOM     12  C   UNL     1       2.430  15.009  18.682  0.00  0.00    +0.000 A 
ATOM     13  C   UNL     1       1.785  13.800  18.944  0.00  0.00    +0.000 A 
ENDBRANCH   4   8
BRANCH   4  14
ATOM     14  C   UNL     1      -0.956  12.099  20.477  0.00  0.00    +0.000 A 
ATOM     15  C   UNL     1      -0.283  11.428  21.518  0.00  0.00    +0.000 A 
ATOM     16  C   UNL     1      -0.871  11.265  22.779  0.00  0.00    +0.000 A 
ATOM     17  C   UNL     1      -2.148  11.757  23.022  0.00  0.00    +0.000 A 
ATOM     18  C   UNL     1      -2.852  12.384  21.999  0.00  0.00    +0.000 A 
ATOM     19  C   UNL     1      -2.265  12.548  20.739  0.00  0.00    +0.000 A 
ENDBRANCH   4  14
BRANCH   6  20
ATOM     20  C   UNL     1      -2.189   9.870  17.058  0.00  0.00    +0.000 C 
ATOM     21  C   UNL     1      -2.798  10.432  15.777  0.00  0.00    +0.000 C 
ATOM     22  C   UNL     1      -3.776  11.564  16.061  0.00  0.00    +0.000 C 
ATOM     23  N   UNL     1      -4.881  11.118  16.925  0.00  0.00    +0.000 NA
ATOM     24  C   UNL     1      -4.385  10.570  18.205  0.00  0.00    +0.000 C 
ATOM     25  C   UNL     1      -3.283   9.521  18.066  0.00  0.00    +0.000 C 
BRANCH  23  26
ATOM     26  C   UNL     1      -5.779  12.255  17.234  0.00  0.00    +0.000 C 
BRANCH  26  27
ATOM     27  C   UNL     1      -6.214  12.345  18.682  0.00  0.00    +0.000 A 
ATOM     28  C   UNL     1      -5.691  13.331  19.529  0.00  0.00    +0.000 A 
ATOM     29  C   UNL     1      -6.117  13.424  20.854  0.00  0.00    +0.000 A 
ATOM     30  C   UNL     1      -7.074  12.538  21.345  0.00  0.00    +0.000 A 
ATOM     31  C   UNL     1      -7.596  11.548  20.516  0.00  0.00    +0.000 A 
ATOM     32  C   UNL     1      -7.168  11.448  19.191  0.00  0.00    +0.000 A 
ENDBRANCH  26  27
ENDBRANCH  23  26
ENDBRANCH   6  20
TORSDOF 5
ENDMDL
MODEL 9
REMARK VINA RESULT:      -7.3      5.937      9.863
REMARK  Name = 
REMARK  5 active torsions:
REMARK  status: ('A' for Active; 'I' for Inactive)
REMARK    1  A    between atoms: C_4  and  C_5
REMARK    2  A    between atoms: C_4  and  C_11
REMARK    3  A    between atoms: N_18  and  C_19
REMARK    4  A    between atoms: N_22  and  C_23
REMARK    5  A    between atoms: C_23  and  C_24
REMARK                            x       y       z     vdW  Elec       q    Type
REMARK                         _______ _______ _______ _____ _____    ______ ____
ROOT
ATOM      1  O   UNL     1      -2.335  11.946  23.459  0.00  0.00    +0.000 OA
ATOM      2  C   UNL     1      -1.510  11.947  22.569  0.00  0.00    +0.000 C 
ATOM      3  N   UNL     1      -1.549  12.855  21.529  0.00  0.00    +0.000 N 
ATOM      4  C   UNL     1      -0.679  12.479  20.422  0.00  0.00    +0.000 C 
ATOM      5  C   UNL     1       0.288  11.519  21.173  0.00  0.00    +0.000 C 
ATOM      6  N   UNL     1      -0.450  11.079  22.346  0.00  0.00    +0.000 N 
ATOM      7  H   UNL     1      -2.352  13.458  21.441  0.00  0.00    +0.000 HD
ENDROOT
BRANCH   4   8
ATOM      8  C   UNL     1      -0.028  13.764  19.885  0.00  0.00    +0.000 A 
ATOM      9  C   UNL     1      -0.745  14.962  19.721  0.00  0.00    +0.000 A 
ATOM     10  C   UNL     1      -0.185  16.046  19.044  0.00  0.00    +0.000 A 
ATOM     11  C   UNL     1       1.117  15.971  18.559  0.00  0.00    +0.000 A 
ATOM     12  C   UNL     1       1.879  14.832  18.798  0.00  0.00    +0.000 A 
ATOM     13  C   UNL     1       1.317  13.744  19.468  0.00  0.00    +0.000 A 
ENDBRANCH   4   8
BRANCH   4  14
ATOM     14  C   UNL     1      -1.446  11.709  19.318  0.00  0.00    +0.000 A 
ATOM     15  C   UNL     1      -2.799  11.962  19.013  0.00  0.00    +0.000 A 
ATOM     16  C   UNL     1      -3.447  11.292  17.969  0.00  0.00    +0.000 A 
ATOM     17  C   UNL     1      -2.762  10.345  17.215  0.00  0.00    +0.000 A 
ATOM     18  C   UNL     1      -1.440  10.043  17.524  0.00  0.00    +0.000 A 
ATOM     19  C   UNL     1      -0.791  10.714  18.567  0.00  0.00    +0.000 A 
ENDBRANCH   4  14
BRANCH   6  20
ATOM     20  C   UNL     1      -0.231   9.738  22.898  0.00  0.00    +0.000 C 
ATOM     21  C   UNL     1       1.251   9.469  23.139  0.00  0.00    +0.000 C 
ATOM     22  C   UNL     1       1.973   9.069  21.858  0.00  0.00    +0.000 C 
ATOM     23  N   UNL     1       1.387   7.855  21.267  0.00  0.00    +0.000 NA
ATOM     24  C   UNL     1      -0.053   8.029  20.981  0.00  0.00    +0.000 C 
ATOM     25  C   UNL     1      -0.875   8.572  22.149  0.00  0.00    +0.000 C 
BRANCH  23  26
ATOM     26  C   UNL     1       2.068   7.529  19.992  0.00  0.00    +0.000 C 
BRANCH  26  27
ATOM     27  C   UNL     1       2.041   6.062  19.615  0.00  0.00    +0.000 A 
ATOM     28  C   UNL     1       2.079   5.665  18.272  0.00  0.00    +0.000 A 
ATOM     29  C   UNL     1       2.083   4.311  17.934  0.00  0.00    +0.000 A 
ATOM     30  C   UNL     1       2.055   3.341  18.935  0.00  0.00    +0.000 A 
ATOM     31  C   UNL     1       2.009   3.723  20.273  0.00  0.00    +0.000 A 
ATOM     32  C   UNL     1       1.999   5.076  20.615  0.00  0.00    +0.000 A 
ENDBRANCH  26  27
ENDBRANCH  23  26
ENDBRANCH   6  20
TORSDOF 5
ENDMDL
