MODEL 1
REMARK VINA RESULT:      -7.4      0.000      0.000
REMARK  Name = 
REMARK  8 active torsions:
REMARK  status: ('A' for Active; 'I' for Inactive)
REMARK    1  A    between atoms: C_1  and  C_2
REMARK    2  A    between atoms: C_2  and  C_3
REMARK    3  A    between atoms: C_10  and  O_11
REMARK    4  A    between atoms: N_14  and  C_15
REMARK    5  A    between atoms: C_15  and  C_16
REMARK    6  A    between atoms: C_17  and  C_18
REMARK    7  A    between atoms: C_17  and  C_19
REMARK    8  A    between atoms: C_21  and  C_22
REMARK                            x       y       z     vdW  Elec       q    Type
REMARK                         _______ _______ _______ _____ _____    ______ ____
ROOT
ATOM      1  C   UNL     1       3.661   4.029  17.660  0.00  0.00    +0.000 C 
ATOM      2  C   UNL     1       4.004   5.581  17.133  0.00  0.00    +0.000 C 
ATOM      3  C   UNL     1       4.419   6.440  18.329  0.00  0.00    +0.000 C 
ATOM      4  C   UNL     1       5.558   5.573  19.036  0.00  0.00    +0.000 C 
ATOM      5  C   UNL     1       6.143   4.687  17.877  0.00  0.00    +0.000 A 
ATOM      6  C   UNL     1       7.272   5.032  17.127  0.00  0.00    +0.000 A 
ATOM      7  C   UNL     1       7.340   4.642  15.753  0.00  0.00    +0.000 A 
ATOM      8  C   UNL     1       6.353   3.843  15.154  0.00  0.00    +0.000 A 
ATOM      9  C   UNL     1       5.294   3.387  15.895  0.00  0.00    +0.000 A 
ATOM     10  C   UNL     1       5.136   3.905  17.206  0.00  0.00    +0.000 A 
ATOM     11  N   UNL     1       3.101   6.974  18.801  0.00  0.00    +0.000 NA
ATOM     12  C   UNL     1       1.984   6.022  18.453  0.00  0.00    +0.000 C 
ATOM     13  C   UNL     1       2.410   4.550  18.576  0.00  0.00    +0.000 C 
ATOM     14  C   UNL     1       1.176   3.670  18.278  0.00  0.00    +0.000 C 
ENDROOT
BRANCH   1  16
ATOM     15  C   UNL     1       3.591   1.485  18.249  0.00  0.00    +0.000 C 
ATOM     16  C   UNL     1       4.069   2.854  18.749  0.00  0.00    +0.000 C 
ENDBRANCH   1  16
BRANCH   8  17
ATOM     17  O   UNL     1       6.280   3.642  13.806  0.00  0.00    +0.000 OA
ATOM     18  H   UNL     1       5.919   2.758  13.631  0.00  0.00    +0.000 HD
ENDBRANCH   8  17
BRANCH  11  19
ATOM     19  C   UNL     1       2.787   8.170  17.947  0.00  0.00    +0.000 C 
BRANCH  19  20
ATOM     20  C   UNL     1       1.342   8.549  17.844  0.00  0.00    +0.000 C 
ATOM     21  C   UNL     1       0.773   9.734  18.120  0.00  0.00    +0.000 C 
ATOM     22  C   UNL     1       1.481  10.913  18.790  0.00  0.00    +0.000 C 
ATOM     23  C   UNL     1      -0.647  10.011  17.755  0.00  0.00    +0.000 C 
ENDBRANCH  19  20
ENDBRANCH  11  19
TORSDOF 4
ENDMDL
MODEL 2
REMARK VINA RESULT:      -7.3      2.521      5.881
REMARK  Name = 
REMARK  8 active torsions:
REMARK  status: ('A' for Active; 'I' for Inactive)
REMARK    1  A    between atoms: C_1  and  C_2
REMARK    2  A    between atoms: C_2  and  C_3
REMARK    3  A    between atoms: C_10  and  O_11
REMARK    4  A    between atoms: N_14  and  C_15
REMARK    5  A    between atoms: C_15  and  C_16
REMARK    6  A    between atoms: C_17  and  C_18
REMARK    7  A    between atoms: C_17  and  C_19
REMARK    8  A    between atoms: C_21  and  C_22
REMARK                            x       y       z     vdW  Elec       q    Type
REMARK                         _______ _______ _______ _____ _____    ______ ____
ROOT
ATOM      1  C   UNL     1       2.900   5.708  18.449  0.00  0.00    +0.000 C 
ATOM      2  C   UNL     1       3.534   4.554  17.415  0.00  0.00    +0.000 C 
ATOM      3  C   UNL     1       5.035   4.414  17.675  0.00  0.00    +0.000 C 
ATOM      4  C   UNL     1       5.124   4.198  19.254  0.00  0.00    +0.000 C 
ATOM      5  C   UNL     1       3.732   3.579  19.637  0.00  0.00    +0.000 A 
ATOM      6  C   UNL     1       3.496   2.205  19.753  0.00  0.00    +0.000 A 
ATOM      7  C   UNL     1       2.209   1.689  19.402  0.00  0.00    +0.000 A 
ATOM      8  C   UNL     1       1.144   2.525  19.036  0.00  0.00    +0.000 A 
ATOM      9  C   UNL     1       1.308   3.886  19.030  0.00  0.00    +0.000 A 
ATOM     10  C   UNL     1       2.621   4.392  19.213  0.00  0.00    +0.000 A 
ATOM     11  N   UNL     1       5.608   5.445  16.751  0.00  0.00    +0.000 NA
ATOM     12  C   UNL     1       4.621   6.562  16.520  0.00  0.00    +0.000 C 
ATOM     13  C   UNL     1       3.807   6.894  17.782  0.00  0.00    +0.000 C 
ATOM     14  C   UNL     1       2.894   8.097  17.457  0.00  0.00    +0.000 C 
ENDROOT
BRANCH   1  16
ATOM     15  C   UNL     1       1.632   6.866  20.417  0.00  0.00    +0.000 C 
ATOM     16  C   UNL     1       3.009   6.370  19.961  0.00  0.00    +0.000 C 
ENDBRANCH   1  16
BRANCH   8  17
ATOM     17  O   UNL     1      -0.016   2.053  18.491  0.00  0.00    +0.000 OA
ATOM     18  H   UNL     1      -0.719   2.712  18.610  0.00  0.00    +0.000 HD
ENDBRANCH   8  17
BRANCH  11  19
ATOM     19  C   UNL     1       5.700   4.807  15.393  0.00  0.00    +0.000 C 
BRANCH  19  20
ATOM     20  C   UNL     1       6.858   5.228  14.541  0.00  0.00    +0.000 C 
ATOM     21  C   UNL     1       7.152   4.837  13.290  0.00  0.00    +0.000 C 
ATOM     22  C   UNL     1       6.446   3.712  12.532  0.00  0.00    +0.000 C 
ATOM     23  C   UNL     1       8.220   5.518  12.501  0.00  0.00    +0.000 C 
ENDBRANCH  19  20
ENDBRANCH  11  19
TORSDOF 4
ENDMDL
MODEL 3
REMARK VINA RESULT:      -7.2      2.292      3.955
REMARK  Name = 
REMARK  8 active torsions:
REMARK  status: ('A' for Active; 'I' for Inactive)
REMARK    1  A    between atoms: C_1  and  C_2
REMARK    2  A    between atoms: C_2  and  C_3
REMARK    3  A    between atoms: C_10  and  O_11
REMARK    4  A    between atoms: N_14  and  C_15
REMARK    5  A    between atoms: C_15  and  C_16
REMARK    6  A    between atoms: C_17  and  C_18
REMARK    7  A    between atoms: C_17  and  C_19
REMARK    8  A    between atoms: C_21  and  C_22
REMARK                            x       y       z     vdW  Elec       q    Type
REMARK                         _______ _______ _______ _____ _____    ______ ____
ROOT
ATOM      1  C   UNL     1       4.429   4.981  17.740  0.00  0.00    +0.000 C 
ATOM      2  C   UNL     1       3.453   5.451  19.017  0.00  0.00    +0.000 C 
ATOM      3  C   UNL     1       2.073   5.836  18.482  0.00  0.00    +0.000 C 
ATOM      4  C   UNL     1       1.655   4.584  17.584  0.00  0.00    +0.000 C 
ATOM      5  C   UNL     1       2.460   3.383  18.200  0.00  0.00    +0.000 A 
ATOM      6  C   UNL     1       1.940   2.506  19.157  0.00  0.00    +0.000 A 
ATOM      7  C   UNL     1       2.816   1.952  20.143  0.00  0.00    +0.000 A 
ATOM      8  C   UNL     1       4.200   2.185  20.126  0.00  0.00    +0.000 A 
ATOM      9  C   UNL     1       4.758   2.942  19.129  0.00  0.00    +0.000 A 
ATOM     10  C   UNL     1       3.879   3.627  18.252  0.00  0.00    +0.000 A 
ATOM     11  N   UNL     1       2.251   7.294  18.181  0.00  0.00    +0.000 NA
ATOM     12  C   UNL     1       3.692   7.599  17.857  0.00  0.00    +0.000 C 
ATOM     13  C   UNL     1       4.366   6.468  17.063  0.00  0.00    +0.000 C 
ATOM     14  C   UNL     1       5.802   6.918  16.717  0.00  0.00    +0.000 C 
ENDROOT
BRANCH   1  16
ATOM     15  C   UNL     1       5.878   3.765  15.939  0.00  0.00    +0.000 C 
ATOM     16  C   UNL     1       4.454   4.227  16.268  0.00  0.00    +0.000 C 
ENDBRANCH   1  16
BRANCH   8  17
ATOM     17  O   UNL     1       5.020   1.855  21.167  0.00  0.00    +0.000 OA
ATOM     18  H   UNL     1       5.671   2.562  21.300  0.00  0.00    +0.000 HD
ENDBRANCH   8  17
BRANCH  11  19
ATOM     19  C   UNL     1       2.045   8.031  19.475  0.00  0.00    +0.000 C 
BRANCH  19  20
ATOM     20  C   UNL     1       1.119   9.207  19.427  0.00  0.00    +0.000 C 
ATOM     21  C   UNL     1       0.215   9.589  20.344  0.00  0.00    +0.000 C 
ATOM     22  C   UNL     1      -0.188   8.772  21.573  0.00  0.00    +0.000 C 
ATOM     23  C   UNL     1      -0.474  10.909  20.244  0.00  0.00    +0.000 C 
ENDBRANCH  19  20
ENDBRANCH  11  19
TORSDOF 4
ENDMDL
MODEL 4
REMARK VINA RESULT:      -7.0      2.396      4.303
REMARK  Name = 
REMARK  8 active torsions:
REMARK  status: ('A' for Active; 'I' for Inactive)
REMARK    1  A    between atoms: C_1  and  C_2
REMARK    2  A    between atoms: C_2  and  C_3
REMARK    3  A    between atoms: C_10  and  O_11
REMARK    4  A    between atoms: N_14  and  C_15
REMARK    5  A    between atoms: C_15  and  C_16
REMARK    6  A    between atoms: C_17  and  C_18
REMARK    7  A    between atoms: C_17  and  C_19
REMARK    8  A    between atoms: C_21  and  C_22
REMARK                            x       y       z     vdW  Elec       q    Type
REMARK                         _______ _______ _______ _____ _____    ______ ____
ROOT
ATOM      1  C   UNL     1       4.177   4.626  18.419  0.00  0.00    +0.000 C 
ATOM      2  C   UNL     1       2.998   5.566  19.145  0.00  0.00    +0.000 C 
ATOM      3  C   UNL     1       2.009   6.046  18.081  0.00  0.00    +0.000 C 
ATOM      4  C   UNL     1       1.596   4.704  17.320  0.00  0.00    +0.000 C 
ATOM      5  C   UNL     1       1.827   3.572  18.385  0.00  0.00    +0.000 A 
ATOM      6  C   UNL     1       0.821   3.069  19.217  0.00  0.00    +0.000 A 
ATOM      7  C   UNL     1       1.163   2.631  20.535  0.00  0.00    +0.000 A 
ATOM      8  C   UNL     1       2.490   2.601  20.990  0.00  0.00    +0.000 A 
ATOM      9  C   UNL     1       3.512   2.974  20.157  0.00  0.00    +0.000 A 
ATOM     10  C   UNL     1       3.167   3.563  18.914  0.00  0.00    +0.000 A 
ATOM     11  N   UNL     1       2.640   7.326  17.624  0.00  0.00    +0.000 NA
ATOM     12  C   UNL     1       4.136   7.279  17.808  0.00  0.00    +0.000 C 
ATOM     13  C   UNL     1       4.717   5.884  17.523  0.00  0.00    +0.000 C 
ATOM     14  C   UNL     1       6.253   5.969  17.660  0.00  0.00    +0.000 C 
ENDROOT
BRANCH   1  16
ATOM     15  C   UNL     1       4.781   4.276  15.902  0.00  0.00    +0.000 C 
ATOM     16  C   UNL     1       4.480   3.537  17.211  0.00  0.00    +0.000 C 
ENDBRANCH   1  16
BRANCH   8  17
ATOM     17  O   UNL     1       2.820   2.400  22.300  0.00  0.00    +0.000 OA
ATOM     18  H   UNL     1       3.021   1.461  22.441  0.00  0.00    +0.000 HD
ENDBRANCH   8  17
BRANCH  11  19
ATOM     19  C   UNL     1       2.225   8.387  18.605  0.00  0.00    +0.000 C 
BRANCH  19  20
ATOM     20  C   UNL     1       1.108   9.287  18.174  0.00  0.00    +0.000 C 
ATOM     21  C   UNL     1       0.199   9.907  18.944  0.00  0.00    +0.000 C 
ATOM     22  C   UNL     1       0.005   9.667  20.442  0.00  0.00    +0.000 C 
ATOM     23  C   UNL     1      -0.713  10.943  18.377  0.00  0.00    +0.000 C 
ENDBRANCH  19  20
ENDBRANCH  11  19
TORSDOF 4
ENDMDL
MODEL 5
REMARK VINA RESULT:      -6.9      1.010      1.107
REMARK  Name = 
REMARK  8 active torsions:
REMARK  status: ('A' for Active; 'I' for Inactive)
REMARK    1  A    between atoms: C_1  and  C_2
REMARK    2  A    between atoms: C_2  and  C_3
REMARK    3  A    between atoms: C_10  and  O_11
REMARK    4  A    between atoms: N_14  and  C_15
REMARK    5  A    between atoms: C_15  and  C_16
REMARK    6  A    between atoms: C_17  and  C_18
REMARK    7  A    between atoms: C_17  and  C_19
REMARK    8  A    between atoms: C_21  and  C_22
REMARK                            x       y       z     vdW  Elec       q    Type
REMARK                         _______ _______ _______ _____ _____    ______ ____
ROOT
ATOM      1  C   UNL     1       3.478   3.774  18.038  0.00  0.00    +0.000 C 
ATOM      2  C   UNL     1       3.608   5.409  17.700  0.00  0.00    +0.000 C 
ATOM      3  C   UNL     1       4.092   6.146  18.950  0.00  0.00    +0.000 C 
ATOM      4  C   UNL     1       5.386   5.322  19.393  0.00  0.00    +0.000 C 
ATOM      5  C   UNL     1       5.897   4.661  18.062  0.00  0.00    +0.000 A 
ATOM      6  C   UNL     1       6.885   5.220  17.245  0.00  0.00    +0.000 A 
ATOM      7  C   UNL     1       6.812   5.020  15.831  0.00  0.00    +0.000 A 
ATOM      8  C   UNL     1       5.835   4.204  15.241  0.00  0.00    +0.000 A 
ATOM      9  C   UNL     1       4.924   3.545  16.026  0.00  0.00    +0.000 A 
ATOM     10  C   UNL     1       4.888   3.869  17.406  0.00  0.00    +0.000 A 
ATOM     11  N   UNL     1       2.801   6.469  19.640  0.00  0.00    +0.000 NA
ATOM     12  C   UNL     1       1.741   5.455  19.290  0.00  0.00    +0.000 C 
ATOM     13  C   UNL     1       2.311   4.034  19.155  0.00  0.00    +0.000 C 
ATOM     14  C   UNL     1       1.135   3.072  18.878  0.00  0.00    +0.000 C 
ENDROOT
BRANCH   1  16
ATOM     15  C   UNL     1       3.728   1.183  18.258  0.00  0.00    +0.000 C 
ATOM     16  C   UNL     1       4.127   2.518  18.897  0.00  0.00    +0.000 C 
ENDBRANCH   1  16
BRANCH   8  17
ATOM     17  O   UNL     1       5.608   4.172  13.895  0.00  0.00    +0.000 OA
ATOM     18  H   UNL     1       5.403   5.068  13.583  0.00  0.00    +0.000 HD
ENDBRANCH   8  17
BRANCH  11  19
ATOM     19  C   UNL     1       2.273   7.725  19.005  0.00  0.00    +0.000 C 
BRANCH  19  20
ATOM     20  C   UNL     1       1.539   8.666  19.910  0.00  0.00    +0.000 C 
ATOM     21  C   UNL     1       0.601   9.569  19.581  0.00  0.00    +0.000 C 
ATOM     22  C   UNL     1       0.216   9.956  18.152  0.00  0.00    +0.000 C 
ATOM     23  C   UNL     1      -0.191  10.275  20.631  0.00  0.00    +0.000 C 
ENDBRANCH  19  20
ENDBRANCH  11  19
TORSDOF 4
ENDMDL
MODEL 6
REMARK VINA RESULT:      -6.9      2.099      3.831
REMARK  Name = 
REMARK  8 active torsions:
REMARK  status: ('A' for Active; 'I' for Inactive)
REMARK    1  A    between atoms: C_1  and  C_2
REMARK    2  A    between atoms: C_2  and  C_3
REMARK    3  A    between atoms: C_10  and  O_11
REMARK    4  A    between atoms: N_14  and  C_15
REMARK    5  A    between atoms: C_15  and  C_16
REMARK    6  A    between atoms: C_17  and  C_18
REMARK    7  A    between atoms: C_17  and  C_19
REMARK    8  A    between atoms: C_21  and  C_22
REMARK                            x       y       z     vdW  Elec       q    Type
REMARK                         _______ _______ _______ _____ _____    ______ ____
ROOT
ATOM      1  C   UNL     1       4.418   4.968  17.722  0.00  0.00    +0.000 C 
ATOM      2  C   UNL     1       3.449   5.481  18.988  0.00  0.00    +0.000 C 
ATOM      3  C   UNL     1       2.075   5.875  18.443  0.00  0.00    +0.000 C 
ATOM      4  C   UNL     1       1.638   4.610  17.572  0.00  0.00    +0.000 C 
ATOM      5  C   UNL     1       2.425   3.411  18.214  0.00  0.00    +0.000 A 
ATOM      6  C   UNL     1       1.891   2.563  19.189  0.00  0.00    +0.000 A 
ATOM      7  C   UNL     1       2.758   2.017  20.187  0.00  0.00    +0.000 A 
ATOM      8  C   UNL     1       4.145   2.228  20.166  0.00  0.00    +0.000 A 
ATOM      9  C   UNL     1       4.716   2.956  19.155  0.00  0.00    +0.000 A 
ATOM     10  C   UNL     1       3.847   3.634  18.262  0.00  0.00    +0.000 A 
ATOM     11  N   UNL     1       2.275   7.323  18.112  0.00  0.00    +0.000 NA
ATOM     12  C   UNL     1       3.721   7.599  17.782  0.00  0.00    +0.000 C 
ATOM     13  C   UNL     1       4.378   6.442  17.013  0.00  0.00    +0.000 C 
ATOM     14  C   UNL     1       5.821   6.862  16.658  0.00  0.00    +0.000 C 
ENDROOT
BRANCH   1  16
ATOM     15  C   UNL     1       5.863   3.763  15.910  0.00  0.00    +0.000 C 
ATOM     16  C   UNL     1       4.432   4.183  16.266  0.00  0.00    +0.000 C 
ENDBRANCH   1  16
BRANCH   8  17
ATOM     17  O   UNL     1       4.960   1.908  21.215  0.00  0.00    +0.000 OA
ATOM     18  H   UNL     1       4.417   1.706  21.993  0.00  0.00    +0.000 HD
ENDBRANCH   8  17
BRANCH  11  19
ATOM     19  C   UNL     1       2.080   8.091  19.389  0.00  0.00    +0.000 C 
BRANCH  19  20
ATOM     20  C   UNL     1       0.969   9.095  19.395  0.00  0.00    +0.000 C 
ATOM     21  C   UNL     1       0.933  10.295  18.792  0.00  0.00    +0.000 C 
ATOM     22  C   UNL     1       2.123  10.973  18.112  0.00  0.00    +0.000 C 
ATOM     23  C   UNL     1      -0.334  11.080  18.713  0.00  0.00    +0.000 C 
ENDBRANCH  19  20
ENDBRANCH  11  19
TORSDOF 4
ENDMDL
MODEL 7
REMARK VINA RESULT:      -6.8      2.591      5.791
REMARK  Name = 
REMARK  8 active torsions:
REMARK  status: ('A' for Active; 'I' for Inactive)
REMARK    1  A    between atoms: C_1  and  C_2
REMARK    2  A    between atoms: C_2  and  C_3
REMARK    3  A    between atoms: C_10  and  O_11
REMARK    4  A    between atoms: N_14  and  C_15
REMARK    5  A    between atoms: C_15  and  C_16
REMARK    6  A    between atoms: C_17  and  C_18
REMARK    7  A    between atoms: C_17  and  C_19
REMARK    8  A    between atoms: C_21  and  C_22
REMARK                            x       y       z     vdW  Elec       q    Type
REMARK                         _______ _______ _______ _____ _____    ______ ____
ROOT
ATOM      1  C   UNL     1       3.612   5.499  17.773  0.00  0.00    +0.000 C 
ATOM      2  C   UNL     1       4.308   4.169  17.031  0.00  0.00    +0.000 C 
ATOM      3  C   UNL     1       5.778   4.073  17.444  0.00  0.00    +0.000 C 
ATOM      4  C   UNL     1       5.726   4.155  19.038  0.00  0.00    +0.000 C 
ATOM      5  C   UNL     1       4.293   3.624  19.404  0.00  0.00    +0.000 A 
ATOM      6  C   UNL     1       4.019   2.297  19.749  0.00  0.00    +0.000 A 
ATOM      7  C   UNL     1       2.756   1.730  19.388  0.00  0.00    +0.000 A 
ATOM      8  C   UNL     1       1.744   2.489  18.780  0.00  0.00    +0.000 A 
ATOM      9  C   UNL     1       1.937   3.824  18.537  0.00  0.00    +0.000 A 
ATOM     10  C   UNL     1       3.240   4.349  18.739  0.00  0.00    +0.000 A 
ATOM     11  N   UNL     1       6.451   4.912  16.400  0.00  0.00    +0.000 NA
ATOM     12  C   UNL     1       5.511   5.971  15.880  0.00  0.00    +0.000 C 
ATOM     13  C   UNL     1       4.598   6.536  16.981  0.00  0.00    +0.000 C 
ATOM     14  C   UNL     1       3.742   7.661  16.360  0.00  0.00    +0.000 C 
ENDROOT
BRANCH   1  16
ATOM     15  C   UNL     1       2.255   7.146  19.279  0.00  0.00    +0.000 C 
ATOM     16  C   UNL     1       3.604   6.431  19.139  0.00  0.00    +0.000 C 
ENDBRANCH   1  16
BRANCH   8  17
ATOM     17  O   UNL     1       0.627   1.930  18.230  0.00  0.00    +0.000 OA
ATOM     18  H   UNL     1      -0.162   2.313  18.646  0.00  0.00    +0.000 HD
ENDBRANCH   8  17
BRANCH  11  19
ATOM     19  C   UNL     1       6.647   4.032  15.197  0.00  0.00    +0.000 C 
BRANCH  19  20
ATOM     20  C   UNL     1       5.574   4.090  14.153  0.00  0.00    +0.000 C 
ATOM     21  C   UNL     1       5.669   3.779  12.850  0.00  0.00    +0.000 C 
ATOM     22  C   UNL     1       6.973   3.469  12.112  0.00  0.00    +0.000 C 
ATOM     23  C   UNL     1       4.452   3.681  11.991  0.00  0.00    +0.000 C 
ENDBRANCH  19  20
ENDBRANCH  11  19
TORSDOF 4
ENDMDL
MODEL 8
REMARK VINA RESULT:      -6.8      2.309      4.847
REMARK  Name = 
REMARK  8 active torsions:
REMARK  status: ('A' for Active; 'I' for Inactive)
REMARK    1  A    between atoms: C_1  and  C_2
REMARK    2  A    between atoms: C_2  and  C_3
REMARK    3  A    between atoms: C_10  and  O_11
REMARK    4  A    between atoms: N_14  and  C_15
REMARK    5  A    between atoms: C_15  and  C_16
REMARK    6  A    between atoms: C_17  and  C_18
REMARK    7  A    between atoms: C_17  and  C_19
REMARK    8  A    between atoms: C_21  and  C_22
REMARK                            x       y       z     vdW  Elec       q    Type
REMARK                         _______ _______ _______ _____ _____    ______ ____
ROOT
ATOM      1  C   UNL     1       4.104   6.038  18.190  0.00  0.00    +0.000 C 
ATOM      2  C   UNL     1       4.300   4.378  18.278  0.00  0.00    +0.000 C 
ATOM      3  C   UNL     1       3.813   3.742  16.975  0.00  0.00    +0.000 C 
ATOM      4  C   UNL     1       4.577   4.572  15.845  0.00  0.00    +0.000 C 
ATOM      5  C   UNL     1       5.870   5.102  16.564  0.00  0.00    +0.000 A 
ATOM      6  C   UNL     1       7.107   4.452  16.520  0.00  0.00    +0.000 A 
ATOM      7  C   UNL     1       7.974   4.529  17.655  0.00  0.00    +0.000 A 
ATOM      8  C   UNL     1       7.666   5.313  18.778  0.00  0.00    +0.000 A 
ATOM      9  C   UNL     1       6.516   6.058  18.802  0.00  0.00    +0.000 A 
ATOM     10  C   UNL     1       5.579   5.857  17.756  0.00  0.00    +0.000 A 
ATOM     11  N   UNL     1       2.361   3.510  17.265  0.00  0.00    +0.000 NA
ATOM     12  C   UNL     1       1.851   4.513  18.269  0.00  0.00    +0.000 C 
ATOM     13  C   UNL     1       2.478   5.904  18.078  0.00  0.00    +0.000 C 
ATOM     14  C   UNL     1       1.828   6.864  19.099  0.00  0.00    +0.000 C 
ENDROOT
BRANCH   1  16
ATOM     15  C   UNL     1       3.079   8.370  17.609  0.00  0.00    +0.000 C 
ATOM     16  C   UNL     1       4.141   7.349  17.182  0.00  0.00    +0.000 C 
ENDBRANCH   1  16
BRANCH   8  17
ATOM     17  O   UNL     1       8.359   5.232  19.951  0.00  0.00    +0.000 OA
ATOM     18  H   UNL     1       8.162   4.386  20.383  0.00  0.00    +0.000 HD
ENDBRANCH   8  17
BRANCH  11  19
ATOM     19  C   UNL     1       2.273   2.216  18.024  0.00  0.00    +0.000 C 
BRANCH  19  20
ATOM     20  C   UNL     1       1.600   2.277  19.360  0.00  0.00    +0.000 C 
ATOM     21  C   UNL     1       2.169   2.393  20.572  0.00  0.00    +0.000 C 
ATOM     22  C   UNL     1       3.670   2.300  20.850  0.00  0.00    +0.000 C 
ATOM     23  C   UNL     1       1.346   2.661  21.787  0.00  0.00    +0.000 C 
ENDBRANCH  19  20
ENDBRANCH  11  19
TORSDOF 4
ENDMDL
MODEL 9
REMARK VINA RESULT:      -6.6      2.591      5.892
REMARK  Name = 
REMARK  8 active torsions:
REMARK  status: ('A' for Active; 'I' for Inactive)
REMARK    1  A    between atoms: C_1  and  C_2
REMARK    2  A    between atoms: C_2  and  C_3
REMARK    3  A    between atoms: C_10  and  O_11
REMARK    4  A    between atoms: N_14  and  C_15
REMARK    5  A    between atoms: C_15  and  C_16
REMARK    6  A    between atoms: C_17  and  C_18
REMARK    7  A    between atoms: C_17  and  C_19
REMARK    8  A    between atoms: C_21  and  C_22
REMARK                            x       y       z     vdW  Elec       q    Type
REMARK                         _______ _______ _______ _____ _____    ______ ____
ROOT
ATOM      1  C   UNL     1       3.218   5.453  18.225  0.00  0.00    +0.000 C 
ATOM      2  C   UNL     1       3.525   4.487  16.892  0.00  0.00    +0.000 C 
ATOM      3  C   UNL     1       5.034   4.269  16.763  0.00  0.00    +0.000 C 
ATOM      4  C   UNL     1       5.467   3.773  18.218  0.00  0.00    +0.000 C 
ATOM      5  C   UNL     1       4.162   3.128  18.809  0.00  0.00    +0.000 A 
ATOM      6  C   UNL     1       3.871   1.761  18.745  0.00  0.00    +0.000 A 
ATOM      7  C   UNL     1       2.508   1.345  18.626  0.00  0.00    +0.000 A 
ATOM      8  C   UNL     1       1.442   2.258  18.666  0.00  0.00    +0.000 A 
ATOM      9  C   UNL     1       1.688   3.594  18.850  0.00  0.00    +0.000 A 
ATOM     10  C   UNL     1       3.037   4.028  18.801  0.00  0.00    +0.000 A 
ATOM     11  N   UNL     1       5.446   5.435  15.917  0.00  0.00    +0.000 NA
ATOM     12  C   UNL     1       4.506   6.597  16.116  0.00  0.00    +0.000 C 
ATOM     13  C   UNL     1       4.024   6.718  17.571  0.00  0.00    +0.000 C 
ATOM     14  C   UNL     1       3.139   7.980  17.677  0.00  0.00    +0.000 C 
ENDROOT
BRANCH   1  16
ATOM     15  C   UNL     1       2.492   6.039  20.664  0.00  0.00    +0.000 C 
ATOM     16  C   UNL     1       3.711   5.833  19.757  0.00  0.00    +0.000 C 
ENDBRANCH   1  16
BRANCH   8  17
ATOM     17  O   UNL     1       0.161   1.917  18.338  0.00  0.00    +0.000 OA
ATOM     18  H   UNL     1      -0.225   2.615  17.784  0.00  0.00    +0.000 HD
ENDBRANCH   8  17
BRANCH  11  19
ATOM     19  C   UNL     1       5.186   5.046  14.488  0.00  0.00    +0.000 C 
BRANCH  19  20
ATOM     20  C   UNL     1       6.259   4.249  13.813  0.00  0.00    +0.000 C 
ATOM     21  C   UNL     1       6.184   3.571  12.656  0.00  0.00    +0.000 C 
ATOM     22  C   UNL     1       4.899   3.320  11.866  0.00  0.00    +0.000 C 
ATOM     23  C   UNL     1       7.408   3.011  12.011  0.00  0.00    +0.000 C 
ENDBRANCH  19  20
ENDBRANCH  11  19
TORSDOF 4
ENDMDL
