MODEL 1
REMARK VINA RESULT:      -6.6      0.000      0.000
REMARK  Name = 
REMARK  10 active torsions:
REMARK  status: ('A' for Active; 'I' for Inactive)
REMARK    1  A    between atoms: C_1  and  C_2
REMARK    2  A    between atoms: C_2  and  C_3
REMARK    3  A    between atoms: C_2  and  C_4
REMARK    4  A    between atoms: C_4  and  N_5
REMARK    5  A    between atoms: C_4  and  C_16
REMARK    6  A    between atoms: N_5  and  C_6
REMARK    7  A    between atoms: C_6  and  C_7
REMARK    8  A    between atoms: C_13  and  C_14
REMARK    9  A    between atoms: C_16  and  C_17
REMARK   10  A    between atoms: C_16  and  C_18
REMARK                            x       y       z     vdW  Elec       q    Type
REMARK                         _______ _______ _______ _____ _____    ______ ____
ROOT
ATOM      1  C   UNL     1       4.277   5.835  19.380  0.00  0.00    +0.000 C 
ENDROOT
BRANCH   1   2
ATOM      2  C   UNL     1       2.915   5.477  18.770  0.00  0.00    +0.000 C 
ATOM      3  O   UNL     1       2.338   6.273  18.023  0.00  0.00    +0.000 OA
ATOM      4  N   UNL     1       2.370   4.238  19.040  0.00  0.00    +0.000 N 
ATOM      5  C   UNL     1       1.220   3.762  18.287  0.00  0.00    +0.000 C 
ATOM      6  C   UNL     1       1.032   2.332  18.763  0.00  0.00    +0.000 C 
ATOM      7  C   UNL     1       1.410   2.443  20.238  0.00  0.00    +0.000 C 
ATOM      8  C   UNL     1       2.608   3.409  20.230  0.00  0.00    +0.000 C 
BRANCH   8   9
ATOM      9  C   UNL     1       3.875   2.642  20.235  0.00  0.00    +0.000 C 
ATOM     10  N   UNL     1       4.863   2.048  20.158  0.00  0.00    +0.000 NA
ENDBRANCH   8   9
ENDBRANCH   1   2
BRANCH   1  11
ATOM     11  N   UNL     1       5.432   5.250  18.665  0.00  0.00    +0.000 NA
ATOM     12  H   UNL     1       6.198   5.146  19.331  0.00  0.00    +0.000 HD
BRANCH  11  13
ATOM     13  C   UNL     1       5.954   5.962  17.459  0.00  0.00    +0.000 C 
BRANCH  13  15
ATOM     14  C   UNL     1       6.885   4.933  15.264  0.00  0.00    +0.000 C 
ATOM     15  C   UNL     1       5.627   5.177  16.131  0.00  0.00    +0.000 C 
ATOM     16  C   UNL     1       4.966   3.811  16.332  0.00  0.00    +0.000 C 
ENDBRANCH  13  15
BRANCH  13  17
ATOM     17  C   UNL     1       7.435   6.441  17.708  0.00  0.00    +0.000 C 
ATOM     18  C   UNL     1       7.715   7.941  17.627  0.00  0.00    +0.000 C 
ATOM     19  C   UNL     1       7.970   5.984  19.079  0.00  0.00    +0.000 C 
ENDBRANCH  13  17
ENDBRANCH  11  13
ENDBRANCH   1  11
TORSDOF 6
ENDMDL
MODEL 2
REMARK VINA RESULT:      -6.6      1.854      3.426
REMARK  Name = 
REMARK  10 active torsions:
REMARK  status: ('A' for Active; 'I' for Inactive)
REMARK    1  A    between atoms: C_1  and  C_2
REMARK    2  A    between atoms: C_2  and  C_3
REMARK    3  A    between atoms: C_2  and  C_4
REMARK    4  A    between atoms: C_4  and  N_5
REMARK    5  A    between atoms: C_4  and  C_16
REMARK    6  A    between atoms: N_5  and  C_6
REMARK    7  A    between atoms: C_6  and  C_7
REMARK    8  A    between atoms: C_13  and  C_14
REMARK    9  A    between atoms: C_16  and  C_17
REMARK   10  A    between atoms: C_16  and  C_18
REMARK                            x       y       z     vdW  Elec       q    Type
REMARK                         _______ _______ _______ _____ _____    ______ ____
ROOT
ATOM      1  C   UNL     1       5.054   4.387  18.861  0.00  0.00    +0.000 C 
ENDROOT
BRANCH   1   2
ATOM      2  C   UNL     1       4.456   3.248  19.698  0.00  0.00    +0.000 C 
ATOM      3  O   UNL     1       5.128   2.244  19.954  0.00  0.00    +0.000 OA
ATOM      4  N   UNL     1       3.173   3.385  20.188  0.00  0.00    +0.000 N 
ATOM      5  C   UNL     1       2.666   2.458  21.188  0.00  0.00    +0.000 C 
ATOM      6  C   UNL     1       1.314   3.030  21.573  0.00  0.00    +0.000 C 
ATOM      7  C   UNL     1       0.820   3.587  20.240  0.00  0.00    +0.000 C 
ATOM      8  C   UNL     1       2.089   4.191  19.610  0.00  0.00    +0.000 C 
BRANCH   8   9
ATOM      9  C   UNL     1       2.149   5.644  19.893  0.00  0.00    +0.000 C 
ATOM     10  N   UNL     1       2.163   6.790  20.043  0.00  0.00    +0.000 NA
ENDBRANCH   8   9
ENDBRANCH   1   2
BRANCH   1  11
ATOM     11  N   UNL     1       5.997   3.936  17.815  0.00  0.00    +0.000 NA
ATOM     12  H   UNL     1       6.551   3.169  18.195  0.00  0.00    +0.000 HD
BRANCH  11  13
ATOM     13  C   UNL     1       6.933   4.940  17.224  0.00  0.00    +0.000 C 
BRANCH  13  15
ATOM     14  C   UNL     1       8.154   5.852  19.327  0.00  0.00    +0.000 C 
ATOM     15  C   UNL     1       7.156   6.169  18.188  0.00  0.00    +0.000 C 
ATOM     16  C   UNL     1       7.664   7.443  17.506  0.00  0.00    +0.000 C 
ENDBRANCH  13  15
BRANCH  13  17
ATOM     17  C   UNL     1       6.554   5.220  15.720  0.00  0.00    +0.000 C 
ATOM     18  C   UNL     1       6.417   4.016  14.790  0.00  0.00    +0.000 C 
ATOM     19  C   UNL     1       5.234   6.006  15.591  0.00  0.00    +0.000 C 
ENDBRANCH  13  17
ENDBRANCH  11  13
ENDBRANCH   1  11
TORSDOF 6
ENDMDL
MODEL 3
REMARK VINA RESULT:      -6.4      1.681      2.665
REMARK  Name = 
REMARK  10 active torsions:
REMARK  status: ('A' for Active; 'I' for Inactive)
REMARK    1  A    between atoms: C_1  and  C_2
REMARK    2  A    between atoms: C_2  and  C_3
REMARK    3  A    between atoms: C_2  and  C_4
REMARK    4  A    between atoms: C_4  and  N_5
REMARK    5  A    between atoms: C_4  and  C_16
REMARK    6  A    between atoms: N_5  and  C_6
REMARK    7  A    between atoms: C_6  and  C_7
REMARK    8  A    between atoms: C_13  and  C_14
REMARK    9  A    between atoms: C_16  and  C_17
REMARK   10  A    between atoms: C_16  and  C_18
REMARK                            x       y       z     vdW  Elec       q    Type
REMARK                         _______ _______ _______ _____ _____    ______ ____
ROOT
ATOM      1  C   UNL     1       4.440   5.634  18.787  0.00  0.00    +0.000 C 
ENDROOT
BRANCH   1   2
ATOM      2  C   UNL     1       4.299   4.235  19.400  0.00  0.00    +0.000 C 
ATOM      3  O   UNL     1       5.230   3.426  19.326  0.00  0.00    +0.000 OA
ATOM      4  N   UNL     1       3.134   3.913  20.067  0.00  0.00    +0.000 N 
ATOM      5  C   UNL     1       3.060   2.706  20.876  0.00  0.00    +0.000 C 
ATOM      6  C   UNL     1       1.703   2.796  21.552  0.00  0.00    +0.000 C 
ATOM      7  C   UNL     1       0.853   3.442  20.461  0.00  0.00    +0.000 C 
ATOM      8  C   UNL     1       1.800   4.484  19.837  0.00  0.00    +0.000 C 
BRANCH   8   9
ATOM      9  C   UNL     1       1.558   5.813  20.445  0.00  0.00    +0.000 C 
ATOM     10  N   UNL     1       1.429   6.835  20.968  0.00  0.00    +0.000 NA
ENDBRANCH   8   9
ENDBRANCH   1   2
BRANCH   1  11
ATOM     11  N   UNL     1       4.685   5.633  17.329  0.00  0.00    +0.000 NA
ATOM     12  H   UNL     1       4.389   4.729  16.958  0.00  0.00    +0.000 HD
BRANCH  11  13
ATOM     13  C   UNL     1       6.071   5.906  16.843  0.00  0.00    +0.000 C 
BRANCH  13  15
ATOM     14  C   UNL     1       5.617   3.556  15.834  0.00  0.00    +0.000 C 
ATOM     15  C   UNL     1       6.652   4.692  16.020  0.00  0.00    +0.000 C 
ATOM     16  C   UNL     1       7.168   5.044  14.623  0.00  0.00    +0.000 C 
ENDBRANCH  13  15
BRANCH  13  17
ATOM     17  C   UNL     1       6.945   6.518  18.002  0.00  0.00    +0.000 C 
ATOM     18  C   UNL     1       7.958   5.599  18.684  0.00  0.00    +0.000 C 
ATOM     19  C   UNL     1       7.740   7.755  17.539  0.00  0.00    +0.000 C 
ENDBRANCH  13  17
ENDBRANCH  11  13
ENDBRANCH   1  11
TORSDOF 6
ENDMDL
MODEL 4
REMARK VINA RESULT:      -6.3      1.449      2.716
REMARK  Name = 
REMARK  10 active torsions:
REMARK  status: ('A' for Active; 'I' for Inactive)
REMARK    1  A    between atoms: C_1  and  C_2
REMARK    2  A    between atoms: C_2  and  C_3
REMARK    3  A    between atoms: C_2  and  C_4
REMARK    4  A    between atoms: C_4  and  N_5
REMARK    5  A    between atoms: C_4  and  C_16
REMARK    6  A    between atoms: N_5  and  C_6
REMARK    7  A    between atoms: C_6  and  C_7
REMARK    8  A    between atoms: C_13  and  C_14
REMARK    9  A    between atoms: C_16  and  C_17
REMARK   10  A    between atoms: C_16  and  C_18
REMARK                            x       y       z     vdW  Elec       q    Type
REMARK                         _______ _______ _______ _____ _____    ______ ____
ROOT
ATOM      1  C   UNL     1       4.297   3.316  17.373  0.00  0.00    +0.000 C 
ENDROOT
BRANCH   1   2
ATOM      2  C   UNL     1       2.816   3.381  17.772  0.00  0.00    +0.000 C 
ATOM      3  O   UNL     1       1.946   3.547  16.910  0.00  0.00    +0.000 OA
ATOM      4  N   UNL     1       2.475   3.212  19.098  0.00  0.00    +0.000 N 
ATOM      5  C   UNL     1       1.086   3.011  19.480  0.00  0.00    +0.000 C 
ATOM      6  C   UNL     1       1.150   2.714  20.967  0.00  0.00    +0.000 C 
ATOM      7  C   UNL     1       2.293   3.619  21.418  0.00  0.00    +0.000 C 
ATOM      8  C   UNL     1       3.312   3.511  20.269  0.00  0.00    +0.000 C 
BRANCH   8   9
ATOM      9  C   UNL     1       4.338   2.495  20.599  0.00  0.00    +0.000 C 
ATOM     10  N   UNL     1       5.084   1.665  20.901  0.00  0.00    +0.000 NA
ENDBRANCH   8   9
ENDBRANCH   1   2
BRANCH   1  11
ATOM     11  N   UNL     1       5.007   4.609  17.473  0.00  0.00    +0.000 NA
ATOM     12  H   UNL     1       4.452   5.315  16.988  0.00  0.00    +0.000 HD
BRANCH  11  13
ATOM     13  C   UNL     1       6.411   4.689  16.967  0.00  0.00    +0.000 C 
BRANCH  13  15
ATOM     14  C   UNL     1       7.539   6.936  17.618  0.00  0.00    +0.000 C 
ATOM     15  C   UNL     1       7.355   5.443  17.981  0.00  0.00    +0.000 C 
ATOM     16  C   UNL     1       6.900   5.402  19.442  0.00  0.00    +0.000 C 
ENDBRANCH  13  15
BRANCH  13  17
ATOM     17  C   UNL     1       6.420   5.131  15.455  0.00  0.00    +0.000 C 
ATOM     18  C   UNL     1       6.405   4.029  14.396  0.00  0.00    +0.000 C 
ATOM     19  C   UNL     1       5.240   6.061  15.114  0.00  0.00    +0.000 C 
ENDBRANCH  13  17
ENDBRANCH  11  13
ENDBRANCH   1  11
TORSDOF 6
ENDMDL
MODEL 5
REMARK VINA RESULT:      -6.2      1.749      3.255
REMARK  Name = 
REMARK  10 active torsions:
REMARK  status: ('A' for Active; 'I' for Inactive)
REMARK    1  A    between atoms: C_1  and  C_2
REMARK    2  A    between atoms: C_2  and  C_3
REMARK    3  A    between atoms: C_2  and  C_4
REMARK    4  A    between atoms: C_4  and  N_5
REMARK    5  A    between atoms: C_4  and  C_16
REMARK    6  A    between atoms: N_5  and  C_6
REMARK    7  A    between atoms: C_6  and  C_7
REMARK    8  A    between atoms: C_13  and  C_14
REMARK    9  A    between atoms: C_16  and  C_17
REMARK   10  A    between atoms: C_16  and  C_18
REMARK                            x       y       z     vdW  Elec       q    Type
REMARK                         _______ _______ _______ _____ _____    ______ ____
ROOT
ATOM      1  C   UNL     1       5.556   4.478  19.161  0.00  0.00    +0.000 C 
ENDROOT
BRANCH   1   2
ATOM      2  C   UNL     1       4.616   3.318  19.516  0.00  0.00    +0.000 C 
ATOM      3  O   UNL     1       5.065   2.287  20.028  0.00  0.00    +0.000 OA
ATOM      4  N   UNL     1       3.262   3.464  19.290  0.00  0.00    +0.000 N 
ATOM      5  C   UNL     1       2.318   2.506  19.842  0.00  0.00    +0.000 C 
ATOM      6  C   UNL     1       0.957   3.093  19.511  0.00  0.00    +0.000 C 
ATOM      7  C   UNL     1       1.213   3.721  18.143  0.00  0.00    +0.000 C 
ATOM      8  C   UNL     1       2.624   4.322  18.282  0.00  0.00    +0.000 C 
BRANCH   8   9
ATOM      9  C   UNL     1       2.528   5.758  18.629  0.00  0.00    +0.000 C 
ATOM     10  N   UNL     1       2.528   6.888  18.873  0.00  0.00    +0.000 NA
ENDBRANCH   8   9
ENDBRANCH   1   2
BRANCH   1  11
ATOM     11  N   UNL     1       6.506   4.173  18.071  0.00  0.00    +0.000 NA
ATOM     12  H   UNL     1       7.395   3.901  18.491  0.00  0.00    +0.000 HD
BRANCH  11  13
ATOM     13  C   UNL     1       6.777   5.231  17.050  0.00  0.00    +0.000 C 
BRANCH  13  15
ATOM     14  C   UNL     1       7.698   7.597  17.594  0.00  0.00    +0.000 C 
ATOM     15  C   UNL     1       6.458   6.673  17.604  0.00  0.00    +0.000 C 
ATOM     16  C   UNL     1       5.350   7.422  16.858  0.00  0.00    +0.000 C 
ENDBRANCH  13  15
BRANCH  13  17
ATOM     17  C   UNL     1       6.177   4.808  15.656  0.00  0.00    +0.000 C 
ATOM     18  C   UNL     1       7.123   4.789  14.456  0.00  0.00    +0.000 C 
ATOM     19  C   UNL     1       5.525   3.412  15.703  0.00  0.00    +0.000 C 
ENDBRANCH  13  17
ENDBRANCH  11  13
ENDBRANCH   1  11
TORSDOF 6
ENDMDL
MODEL 6
REMARK VINA RESULT:      -6.2      1.625      2.397
REMARK  Name = 
REMARK  10 active torsions:
REMARK  status: ('A' for Active; 'I' for Inactive)
REMARK    1  A    between atoms: C_1  and  C_2
REMARK    2  A    between atoms: C_2  and  C_3
REMARK    3  A    between atoms: C_2  and  C_4
REMARK    4  A    between atoms: C_4  and  N_5
REMARK    5  A    between atoms: C_4  and  C_16
REMARK    6  A    between atoms: N_5  and  C_6
REMARK    7  A    between atoms: C_6  and  C_7
REMARK    8  A    between atoms: C_13  and  C_14
REMARK    9  A    between atoms: C_16  and  C_17
REMARK   10  A    between atoms: C_16  and  C_18
REMARK                            x       y       z     vdW  Elec       q    Type
REMARK                         _______ _______ _______ _____ _____    ______ ____
ROOT
ATOM      1  C   UNL     1       5.402   4.265  19.531  0.00  0.00    +0.000 C 
ENDROOT
BRANCH   1   2
ATOM      2  C   UNL     1       4.435   3.077  19.618  0.00  0.00    +0.000 C 
ATOM      3  O   UNL     1       4.839   1.972  19.997  0.00  0.00    +0.000 OA
ATOM      4  N   UNL     1       3.106   3.275  19.304  0.00  0.00    +0.000 N 
ATOM      5  C   UNL     1       2.118   2.254  19.616  0.00  0.00    +0.000 C 
ATOM      6  C   UNL     1       0.791   2.905  19.268  0.00  0.00    +0.000 C 
ATOM      7  C   UNL     1       1.163   3.736  18.043  0.00  0.00    +0.000 C 
ATOM      8  C   UNL     1       2.556   4.289  18.393  0.00  0.00    +0.000 C 
BRANCH   8   9
ATOM      9  C   UNL     1       2.431   5.654  18.953  0.00  0.00    +0.000 C 
ATOM     10  N   UNL     1       2.364   6.747  19.323  0.00  0.00    +0.000 NA
ENDBRANCH   8   9
ENDBRANCH   1   2
BRANCH   1  11
ATOM     11  N   UNL     1       6.255   4.263  18.324  0.00  0.00    +0.000 NA
ATOM     12  H   UNL     1       7.212   4.056  18.611  0.00  0.00    +0.000 HD
BRANCH  11  13
ATOM     13  C   UNL     1       6.279   5.489  17.469  0.00  0.00    +0.000 C 
BRANCH  13  15
ATOM     14  C   UNL     1       7.094   4.928  15.068  0.00  0.00    +0.000 C 
ATOM     15  C   UNL     1       5.868   5.171  15.980  0.00  0.00    +0.000 C 
ATOM     16  C   UNL     1       4.948   3.959  15.807  0.00  0.00    +0.000 C 
ENDBRANCH  13  15
BRANCH  13  17
ATOM     17  C   UNL     1       7.599   6.309  17.729  0.00  0.00    +0.000 C 
ATOM     18  C   UNL     1       7.553   7.817  17.488  0.00  0.00    +0.000 C 
ATOM     19  C   UNL     1       8.122   6.126  19.167  0.00  0.00    +0.000 C 
ENDBRANCH  13  17
ENDBRANCH  11  13
ENDBRANCH   1  11
TORSDOF 6
ENDMDL
MODEL 7
REMARK VINA RESULT:      -6.2      1.412      1.650
REMARK  Name = 
REMARK  10 active torsions:
REMARK  status: ('A' for Active; 'I' for Inactive)
REMARK    1  A    between atoms: C_1  and  C_2
REMARK    2  A    between atoms: C_2  and  C_3
REMARK    3  A    between atoms: C_2  and  C_4
REMARK    4  A    between atoms: C_4  and  N_5
REMARK    5  A    between atoms: C_4  and  C_16
REMARK    6  A    between atoms: N_5  and  C_6
REMARK    7  A    between atoms: C_6  and  C_7
REMARK    8  A    between atoms: C_13  and  C_14
REMARK    9  A    between atoms: C_16  and  C_17
REMARK   10  A    between atoms: C_16  and  C_18
REMARK                            x       y       z     vdW  Elec       q    Type
REMARK                         _______ _______ _______ _____ _____    ______ ____
ROOT
ATOM      1  C   UNL     1       3.600   6.170  17.788  0.00  0.00    +0.000 C 
ENDROOT
BRANCH   1   2
ATOM      2  C   UNL     1       2.841   6.163  19.122  0.00  0.00    +0.000 C 
ATOM      3  O   UNL     1       2.584   7.226  19.697  0.00  0.00    +0.000 OA
ATOM      4  N   UNL     1       2.420   4.956  19.642  0.00  0.00    +0.000 N 
ATOM      5  C   UNL     1       1.486   4.924  20.757  0.00  0.00    +0.000 C 
ATOM      6  C   UNL     1       1.158   3.451  20.923  0.00  0.00    +0.000 C 
ATOM      7  C   UNL     1       2.496   2.794  20.590  0.00  0.00    +0.000 C 
ATOM      8  C   UNL     1       3.028   3.638  19.417  0.00  0.00    +0.000 C 
BRANCH   8   9
ATOM      9  C   UNL     1       2.689   2.986  18.132  0.00  0.00    +0.000 C 
ATOM     10  N   UNL     1       2.425   2.549  17.095  0.00  0.00    +0.000 NA
ENDBRANCH   8   9
ENDBRANCH   1   2
BRANCH   1  11
ATOM     11  N   UNL     1       5.038   5.853  17.909  0.00  0.00    +0.000 NA
ATOM     12  H   UNL     1       5.390   6.294  18.760  0.00  0.00    +0.000 HD
BRANCH  11  13
ATOM     13  C   UNL     1       5.945   6.226  16.781  0.00  0.00    +0.000 C 
BRANCH  13  15
ATOM     14  C   UNL     1       7.102   5.196  14.696  0.00  0.00    +0.000 C 
ATOM     15  C   UNL     1       5.834   5.205  15.583  0.00  0.00    +0.000 C 
ATOM     16  C   UNL     1       5.578   3.752  15.992  0.00  0.00    +0.000 C 
ENDBRANCH  13  15
BRANCH  13  17
ATOM     17  C   UNL     1       7.375   6.594  17.329  0.00  0.00    +0.000 C 
ATOM     18  C   UNL     1       7.692   8.074  17.539  0.00  0.00    +0.000 C 
ATOM     19  C   UNL     1       7.678   5.902  18.672  0.00  0.00    +0.000 C 
ENDBRANCH  13  17
ENDBRANCH  11  13
ENDBRANCH   1  11
TORSDOF 6
ENDMDL
MODEL 8
REMARK VINA RESULT:      -6.2      1.812      3.288
REMARK  Name = 
REMARK  10 active torsions:
REMARK  status: ('A' for Active; 'I' for Inactive)
REMARK    1  A    between atoms: C_1  and  C_2
REMARK    2  A    between atoms: C_2  and  C_3
REMARK    3  A    between atoms: C_2  and  C_4
REMARK    4  A    between atoms: C_4  and  N_5
REMARK    5  A    between atoms: C_4  and  C_16
REMARK    6  A    between atoms: N_5  and  C_6
REMARK    7  A    between atoms: C_6  and  C_7
REMARK    8  A    between atoms: C_13  and  C_14
REMARK    9  A    between atoms: C_16  and  C_17
REMARK   10  A    between atoms: C_16  and  C_18
REMARK                            x       y       z     vdW  Elec       q    Type
REMARK                         _______ _______ _______ _____ _____    ______ ____
ROOT
ATOM      1  C   UNL     1       4.375   3.202  17.442  0.00  0.00    +0.000 C 
ENDROOT
BRANCH   1   2
ATOM      2  C   UNL     1       3.586   2.312  18.412  0.00  0.00    +0.000 C 
ATOM      3  O   UNL     1       3.778   1.092  18.435  0.00  0.00    +0.000 OA
ATOM      4  N   UNL     1       2.692   2.903  19.282  0.00  0.00    +0.000 N 
ATOM      5  C   UNL     1       2.121   2.140  20.380  0.00  0.00    +0.000 C 
ATOM      6  C   UNL     1       1.334   3.166  21.175  0.00  0.00    +0.000 C 
ATOM      7  C   UNL     1       0.796   4.071  20.070  0.00  0.00    +0.000 C 
ATOM      8  C   UNL     1       1.972   4.169  19.081  0.00  0.00    +0.000 C 
BRANCH   8   9
ATOM      9  C   UNL     1       2.752   5.399  19.346  0.00  0.00    +0.000 C 
ATOM     10  N   UNL     1       3.427   6.317  19.539  0.00  0.00    +0.000 NA
ENDBRANCH   8   9
ENDBRANCH   1   2
BRANCH   1  11
ATOM     11  N   UNL     1       5.536   3.881  18.053  0.00  0.00    +0.000 NA
ATOM     12  H   UNL     1       5.233   4.300  18.933  0.00  0.00    +0.000 HD
BRANCH  11  13
ATOM     13  C   UNL     1       6.245   4.929  17.257  0.00  0.00    +0.000 C 
BRANCH  13  15
ATOM     14  C   UNL     1       7.493   5.633  19.423  0.00  0.00    +0.000 C 
ATOM     15  C   UNL     1       6.734   6.121  18.167  0.00  0.00    +0.000 C 
ATOM     16  C   UNL     1       7.649   7.133  17.471  0.00  0.00    +0.000 C 
ENDBRANCH  13  15
BRANCH  13  17
ATOM     17  C   UNL     1       5.433   5.262  15.949  0.00  0.00    +0.000 C 
ATOM     18  C   UNL     1       4.885   6.681  15.800  0.00  0.00    +0.000 C 
ATOM     19  C   UNL     1       6.251   4.988  14.672  0.00  0.00    +0.000 C 
ENDBRANCH  13  17
ENDBRANCH  11  13
ENDBRANCH   1  11
TORSDOF 6
ENDMDL
MODEL 9
REMARK VINA RESULT:      -6.2      1.710      3.292
REMARK  Name = 
REMARK  10 active torsions:
REMARK  status: ('A' for Active; 'I' for Inactive)
REMARK    1  A    between atoms: C_1  and  C_2
REMARK    2  A    between atoms: C_2  and  C_3
REMARK    3  A    between atoms: C_2  and  C_4
REMARK    4  A    between atoms: C_4  and  N_5
REMARK    5  A    between atoms: C_4  and  C_16
REMARK    6  A    between atoms: N_5  and  C_6
REMARK    7  A    between atoms: C_6  and  C_7
REMARK    8  A    between atoms: C_13  and  C_14
REMARK    9  A    between atoms: C_16  and  C_17
REMARK   10  A    between atoms: C_16  and  C_18
REMARK                            x       y       z     vdW  Elec       q    Type
REMARK                         _______ _______ _______ _____ _____    ______ ____
ROOT
ATOM      1  C   UNL     1       5.386   4.231  19.363  0.00  0.00    +0.000 C 
ENDROOT
BRANCH   1   2
ATOM      2  C   UNL     1       4.414   3.058  19.553  0.00  0.00    +0.000 C 
ATOM      3  O   UNL     1       4.825   1.970  19.970  0.00  0.00    +0.000 OA
ATOM      4  N   UNL     1       3.074   3.253  19.286  0.00  0.00    +0.000 N 
ATOM      5  C   UNL     1       2.092   2.260  19.693  0.00  0.00    +0.000 C 
ATOM      6  C   UNL     1       0.756   2.906  19.370  0.00  0.00    +0.000 C 
ATOM      7  C   UNL     1       1.081   3.669  18.089  0.00  0.00    +0.000 C 
ATOM      8  C   UNL     1       2.493   4.225  18.349  0.00  0.00    +0.000 C 
BRANCH   8   9
ATOM      9  C   UNL     1       2.404   5.618  18.844  0.00  0.00    +0.000 C 
ATOM     10  N   UNL     1       2.383   6.684  19.289  0.00  0.00    +0.000 NA
ENDBRANCH   8   9
ENDBRANCH   1   2
BRANCH   1  11
ATOM     11  N   UNL     1       6.382   4.023  18.291  0.00  0.00    +0.000 NA
ATOM     12  H   UNL     1       7.254   3.716  18.722  0.00  0.00    +0.000 HD
BRANCH  11  13
ATOM     13  C   UNL     1       6.689   5.165  17.377  0.00  0.00    +0.000 C 
BRANCH  13  15
ATOM     14  C   UNL     1       8.169   6.126  19.283  0.00  0.00    +0.000 C 
ATOM     15  C   UNL     1       7.136   6.449  18.177  0.00  0.00    +0.000 C 
ATOM     16  C   UNL     1       7.746   7.564  17.323  0.00  0.00    +0.000 C 
ENDBRANCH  13  15
BRANCH  13  17
ATOM     17  C   UNL     1       5.560   5.310  16.287  0.00  0.00    +0.000 C 
ATOM     18  C   UNL     1       4.778   6.622  16.251  0.00  0.00    +0.000 C 
ATOM     19  C   UNL     1       6.102   5.101  14.860  0.00  0.00    +0.000 C 
ENDBRANCH  13  17
ENDBRANCH  11  13
ENDBRANCH   1  11
TORSDOF 6
ENDMDL
