MODEL 1
REMARK VINA RESULT:      -7.2      0.000      0.000
REMARK  Name = 
REMARK  7 active torsions:
REMARK  status: ('A' for Active; 'I' for Inactive)
REMARK    1  A    between atoms: N_1  and  C_2
REMARK    2  A    between atoms: C_2  and  C_3
REMARK    3  A    between atoms: C_3  and  N_4
REMARK    4  A    between atoms: N_8  and  C_9
REMARK    5  A    between atoms: C_9  and  C_10
REMARK    6  A    between atoms: C_10  and  N_11
REMARK    7  A    between atoms: C_14  and  C_15
REMARK                            x       y       z     vdW  Elec       q    Type
REMARK                         _______ _______ _______ _____ _____    ______ ____
ROOT
ATOM      1  N   UNL     1       7.916   7.472  18.377  0.00  0.00    +0.000 N 
ATOM      2  C   UNL     1       7.388   6.496  17.580  0.00  0.00    +0.000 A 
ATOM      3  N   UNL     1       6.607   5.579  18.258  0.00  0.00    +0.000 NA
ATOM      4  C   UNL     1       6.003   4.639  17.594  0.00  0.00    +0.000 A 
ATOM      5  N   UNL     1       5.171   3.690  18.153  0.00  0.00    +0.000 N 
ATOM      6  N   UNL     1       6.188   4.598  16.222  0.00  0.00    +0.000 N 
ATOM      7  N   UNL     1       5.549   3.764  15.387  0.00  0.00    +0.000 NA
ATOM      8  C   UNL     1       6.119   4.109  14.221  0.00  0.00    +0.000 A 
ATOM      9  N   UNL     1       7.025   5.155  14.308  0.00  0.00    +0.000 NA
ATOM     10  C   UNL     1       7.007   5.474  15.585  0.00  0.00    +0.000 A 
ATOM     11  N   UNL     1       7.608   6.467  16.290  0.00  0.00    +0.000 NA
ATOM     12  H   UNL     1       7.483   7.480  19.297  0.00  0.00    +0.000 HD
ATOM     13  H   UNL     1       4.642   3.136  17.476  0.00  0.00    +0.000 HD
ENDROOT
BRANCH   8  14
ATOM     14  C   UNL     1       5.771   3.422  12.943  0.00  0.00    +0.000 A 
ATOM     15  C   UNL     1       4.586   3.549  12.242  0.00  0.00    +0.000 A 
ATOM     16  C   UNL     1       4.692   2.711  11.104  0.00  0.00    +0.000 A 
ATOM     17  C   UNL     1       5.930   2.118  11.182  0.00  0.00    +0.000 A 
ATOM     18  O   UNL     1       6.598   2.557  12.277  0.00  0.00    +0.000 OA
ENDBRANCH   8  14
BRANCH   1  19
ATOM     19  C   UNL     1       8.185   8.815  17.890  0.00  0.00    +0.000 C 
BRANCH  19  20
ATOM     20  C   UNL     1       8.955   9.635  18.945  0.00  0.00    +0.000 C 
BRANCH  20  21
ATOM     21  N   UNL     1       9.381  10.950  18.442  0.00  0.00    +0.000 NA
ATOM     22  H   UNL     1       9.750  10.834  17.497  0.00  0.00    +0.000 HD
ATOM     23  H   UNL     1      10.165  11.287  19.000  0.00  0.00    +0.000 HD
ENDBRANCH  20  21
ENDBRANCH  19  20
ENDBRANCH   1  19
BRANCH   5  24
ATOM     24  C   UNL     1       4.486   3.908  19.415  0.00  0.00    +0.000 C 
BRANCH  24  25
ATOM     25  C   UNL     1       4.049   2.576  20.054  0.00  0.00    +0.000 C 
BRANCH  25  26
ATOM     26  N   UNL     1       5.074   1.533  19.933  0.00  0.00    +0.000 NA
ATOM     27  H   UNL     1       5.893   1.805  20.479  0.00  0.00    +0.000 HD
ATOM     28  H   UNL     1       5.389   1.491  18.964  0.00  0.00    +0.000 HD
ENDBRANCH  25  26
ENDBRANCH  24  25
ENDBRANCH   5  24
TORSDOF 7
ENDMDL
MODEL 2
REMARK VINA RESULT:      -7.1      3.267      4.203
REMARK  Name = 
REMARK  7 active torsions:
REMARK  status: ('A' for Active; 'I' for Inactive)
REMARK    1  A    between atoms: N_1  and  C_2
REMARK    2  A    between atoms: C_2  and  C_3
REMARK    3  A    between atoms: C_3  and  N_4
REMARK    4  A    between atoms: N_8  and  C_9
REMARK    5  A    between atoms: C_9  and  C_10
REMARK    6  A    between atoms: C_10  and  N_11
REMARK    7  A    between atoms: C_14  and  C_15
REMARK                            x       y       z     vdW  Elec       q    Type
REMARK                         _______ _______ _______ _____ _____    ______ ____
ROOT
ATOM      1  N   UNL     1       2.404   7.071  19.943  0.00  0.00    +0.000 N 
ATOM      2  C   UNL     1       3.114   6.331  19.040  0.00  0.00    +0.000 A 
ATOM      3  N   UNL     1       3.112   4.974  19.302  0.00  0.00    +0.000 NA
ATOM      4  C   UNL     1       3.704   4.163  18.477  0.00  0.00    +0.000 A 
ATOM      5  N   UNL     1       3.739   2.789  18.611  0.00  0.00    +0.000 N 
ATOM      6  N   UNL     1       4.325   4.712  17.367  0.00  0.00    +0.000 N 
ATOM      7  N   UNL     1       4.880   4.005  16.370  0.00  0.00    +0.000 NA
ATOM      8  C   UNL     1       5.359   5.001  15.608  0.00  0.00    +0.000 A 
ATOM      9  N   UNL     1       5.065   6.275  16.069  0.00  0.00    +0.000 NA
ATOM     10  C   UNL     1       4.365   6.054  17.161  0.00  0.00    +0.000 A 
ATOM     11  N   UNL     1       3.717   6.885  18.018  0.00  0.00    +0.000 NA
ATOM     12  H   UNL     1       1.827   6.484  20.539  0.00  0.00    +0.000 HD
ATOM     13  H   UNL     1       4.091   2.291  17.791  0.00  0.00    +0.000 HD
ENDROOT
BRANCH   8  14
ATOM     14  C   UNL     1       6.125   4.733  14.356  0.00  0.00    +0.000 A 
ATOM     15  C   UNL     1       5.825   3.780  13.401  0.00  0.00    +0.000 A 
ATOM     16  C   UNL     1       6.824   3.874  12.399  0.00  0.00    +0.000 A 
ATOM     17  C   UNL     1       7.678   4.871  12.806  0.00  0.00    +0.000 A 
ATOM     18  O   UNL     1       7.253   5.411  13.976  0.00  0.00    +0.000 OA
ENDBRANCH   8  14
BRANCH   1  19
ATOM     19  C   UNL     1       1.731   8.308  19.581  0.00  0.00    +0.000 C 
BRANCH  19  20
ATOM     20  C   UNL     1       1.089   8.963  20.819  0.00  0.00    +0.000 C 
BRANCH  20  21
ATOM     21  N   UNL     1       1.716   8.532  22.078  0.00  0.00    +0.000 NA
ATOM     22  H   UNL     1       2.285   7.705  21.893  0.00  0.00    +0.000 HD
ATOM     23  H   UNL     1       0.992   8.224  22.728  0.00  0.00    +0.000 HD
ENDBRANCH  20  21
ENDBRANCH  19  20
ENDBRANCH   1  19
BRANCH   5  24
ATOM     24  C   UNL     1       2.741   2.060  19.374  0.00  0.00    +0.000 C 
BRANCH  24  25
ATOM     25  C   UNL     1       1.321   2.325  18.838  0.00  0.00    +0.000 C 
BRANCH  25  26
ATOM     26  N   UNL     1       0.486   3.056  19.798  0.00  0.00    +0.000 NA
ATOM     27  H   UNL     1       0.987   3.889  20.110  0.00  0.00    +0.000 HD
ATOM     28  H   UNL     1       0.361   2.480  20.631  0.00  0.00    +0.000 HD
ENDBRANCH  25  26
ENDBRANCH  24  25
ENDBRANCH   5  24
TORSDOF 7
ENDMDL
MODEL 3
REMARK VINA RESULT:      -7.0      0.824      1.087
REMARK  Name = 
REMARK  7 active torsions:
REMARK  status: ('A' for Active; 'I' for Inactive)
REMARK    1  A    between atoms: N_1  and  C_2
REMARK    2  A    between atoms: C_2  and  C_3
REMARK    3  A    between atoms: C_3  and  N_4
REMARK    4  A    between atoms: N_8  and  C_9
REMARK    5  A    between atoms: C_9  and  C_10
REMARK    6  A    between atoms: C_10  and  N_11
REMARK    7  A    between atoms: C_14  and  C_15
REMARK                            x       y       z     vdW  Elec       q    Type
REMARK                         _______ _______ _______ _____ _____    ______ ____
ROOT
ATOM      1  N   UNL     1       7.958   7.511  18.378  0.00  0.00    +0.000 N 
ATOM      2  C   UNL     1       7.433   6.525  17.590  0.00  0.00    +0.000 A 
ATOM      3  N   UNL     1       6.692   5.587  18.286  0.00  0.00    +0.000 NA
ATOM      4  C   UNL     1       6.093   4.635  17.634  0.00  0.00    +0.000 A 
ATOM      5  N   UNL     1       5.299   3.665  18.211  0.00  0.00    +0.000 N 
ATOM      6  N   UNL     1       6.240   4.605  16.257  0.00  0.00    +0.000 N 
ATOM      7  N   UNL     1       5.599   3.759  15.436  0.00  0.00    +0.000 NA
ATOM      8  C   UNL     1       6.129   4.123  14.256  0.00  0.00    +0.000 A 
ATOM      9  N   UNL     1       7.011   5.189  14.323  0.00  0.00    +0.000 NA
ATOM     10  C   UNL     1       7.021   5.503  15.601  0.00  0.00    +0.000 A 
ATOM     11  N   UNL     1       7.617   6.507  16.295  0.00  0.00    +0.000 NA
ATOM     12  H   UNL     1       7.551   7.504  19.309  0.00  0.00    +0.000 HD
ATOM     13  H   UNL     1       4.765   3.101  17.546  0.00  0.00    +0.000 HD
ENDROOT
BRANCH   8  14
ATOM     14  C   UNL     1       5.762   3.433  12.985  0.00  0.00    +0.000 A 
ATOM     15  C   UNL     1       4.579   3.582  12.285  0.00  0.00    +0.000 A 
ATOM     16  C   UNL     1       4.663   2.731  11.154  0.00  0.00    +0.000 A 
ATOM     17  C   UNL     1       5.886   2.109  11.235  0.00  0.00    +0.000 A 
ATOM     18  O   UNL     1       6.566   2.542  12.326  0.00  0.00    +0.000 OA
ENDBRANCH   8  14
BRANCH   1  19
ATOM     19  C   UNL     1       8.182   8.862  17.890  0.00  0.00    +0.000 C 
BRANCH  19  20
ATOM     20  C   UNL     1       8.992   9.684  18.912  0.00  0.00    +0.000 C 
BRANCH  20  21
ATOM     21  N   UNL     1       9.278  11.049  18.442  0.00  0.00    +0.000 NA
ATOM     22  H   UNL     1       9.363  11.663  19.254  0.00  0.00    +0.000 HD
ATOM     23  H   UNL     1       8.475  11.401  17.920  0.00  0.00    +0.000 HD
ENDBRANCH  20  21
ENDBRANCH  19  20
ENDBRANCH   1  19
BRANCH   5  24
ATOM     24  C   UNL     1       4.644   3.861  19.492  0.00  0.00    +0.000 C 
BRANCH  24  25
ATOM     25  C   UNL     1       3.288   4.574  19.326  0.00  0.00    +0.000 C 
BRANCH  25  26
ATOM     26  N   UNL     1       3.064   5.599  20.353  0.00  0.00    +0.000 NA
ATOM     27  H   UNL     1       2.169   5.422  20.811  0.00  0.00    +0.000 HD
ATOM     28  H   UNL     1       2.966   6.506  19.896  0.00  0.00    +0.000 HD
ENDBRANCH  25  26
ENDBRANCH  24  25
ENDBRANCH   5  24
TORSDOF 7
ENDMDL
MODEL 4
REMARK VINA RESULT:      -6.9      2.582      6.881
REMARK  Name = 
REMARK  7 active torsions:
REMARK  status: ('A' for Active; 'I' for Inactive)
REMARK    1  A    between atoms: N_1  and  C_2
REMARK    2  A    between atoms: C_2  and  C_3
REMARK    3  A    between atoms: C_3  and  N_4
REMARK    4  A    between atoms: N_8  and  C_9
REMARK    5  A    between atoms: C_9  and  C_10
REMARK    6  A    between atoms: C_10  and  N_11
REMARK    7  A    between atoms: C_14  and  C_15
REMARK                            x       y       z     vdW  Elec       q    Type
REMARK                         _______ _______ _______ _____ _____    ______ ____
ROOT
ATOM      1  N   UNL     1       6.990   4.446  13.727  0.00  0.00    +0.000 N 
ATOM      2  C   UNL     1       6.460   4.512  14.985  0.00  0.00    +0.000 A 
ATOM      3  N   UNL     1       7.018   5.499  15.777  0.00  0.00    +0.000 NA
ATOM      4  C   UNL     1       6.552   5.695  16.975  0.00  0.00    +0.000 A 
ATOM      5  N   UNL     1       7.001   6.670  17.843  0.00  0.00    +0.000 N 
ATOM      6  N   UNL     1       5.515   4.886  17.404  0.00  0.00    +0.000 N 
ATOM      7  N   UNL     1       4.855   5.035  18.563  0.00  0.00    +0.000 NA
ATOM      8  C   UNL     1       4.012   3.991  18.495  0.00  0.00    +0.000 A 
ATOM      9  N   UNL     1       4.093   3.258  17.322  0.00  0.00    +0.000 NA
ATOM     10  C   UNL     1       5.022   3.883  16.631  0.00  0.00    +0.000 A 
ATOM     11  N   UNL     1       5.501   3.710  15.372  0.00  0.00    +0.000 NA
ATOM     12  H   UNL     1       7.559   5.261  13.516  0.00  0.00    +0.000 HD
ATOM     13  H   UNL     1       6.416   6.804  18.671  0.00  0.00    +0.000 HD
ENDROOT
BRANCH   8  14
ATOM     14  C   UNL     1       3.057   3.680  19.600  0.00  0.00    +0.000 A 
ATOM     15  C   UNL     1       1.752   4.121  19.702  0.00  0.00    +0.000 A 
ATOM     16  C   UNL     1       1.234   3.591  20.910  0.00  0.00    +0.000 A 
ATOM     17  C   UNL     1       2.254   2.866  21.477  0.00  0.00    +0.000 A 
ATOM     18  O   UNL     1       3.353   2.895  20.683  0.00  0.00    +0.000 OA
ENDBRANCH   8  14
BRANCH   1  19
ATOM     19  C   UNL     1       6.214   4.011  12.577  0.00  0.00    +0.000 C 
BRANCH  19  20
ATOM     20  C   UNL     1       6.921   2.851  11.848  0.00  0.00    +0.000 C 
BRANCH  20  21
ATOM     21  N   UNL     1       6.042   1.687  11.650  0.00  0.00    +0.000 NA
ATOM     22  H   UNL     1       5.734   1.674  10.676  0.00  0.00    +0.000 HD
ATOM     23  H   UNL     1       5.192   1.808  12.201  0.00  0.00    +0.000 HD
ENDBRANCH  20  21
ENDBRANCH  19  20
ENDBRANCH   1  19
BRANCH   5  24
ATOM     24  C   UNL     1       7.667   7.874  17.378  0.00  0.00    +0.000 C 
BRANCH  24  25
ATOM     25  C   UNL     1       8.511   8.516  18.497  0.00  0.00    +0.000 C 
BRANCH  25  26
ATOM     26  N   UNL     1       8.734   9.950  18.280  0.00  0.00    +0.000 NA
ATOM     27  H   UNL     1       9.269  10.078  17.420  0.00  0.00    +0.000 HD
ATOM     28  H   UNL     1       9.325  10.308  19.029  0.00  0.00    +0.000 HD
ENDBRANCH  25  26
ENDBRANCH  24  25
ENDBRANCH   5  24
TORSDOF 7
ENDMDL
MODEL 5
REMARK VINA RESULT:      -6.9      2.724      5.431
REMARK  Name = 
REMARK  7 active torsions:
REMARK  status: ('A' for Active; 'I' for Inactive)
REMARK    1  A    between atoms: N_1  and  C_2
REMARK    2  A    between atoms: C_2  and  C_3
REMARK    3  A    between atoms: C_3  and  N_4
REMARK    4  A    between atoms: N_8  and  C_9
REMARK    5  A    between atoms: C_9  and  C_10
REMARK    6  A    between atoms: C_10  and  N_11
REMARK    7  A    between atoms: C_14  and  C_15
REMARK                            x       y       z     vdW  Elec       q    Type
REMARK                         _______ _______ _______ _____ _____    ______ ____
ROOT
ATOM      1  N   UNL     1       7.671   7.825  16.989  0.00  0.00    +0.000 N 
ATOM      2  C   UNL     1       6.653   6.915  17.054  0.00  0.00    +0.000 A 
ATOM      3  N   UNL     1       6.516   6.146  15.914  0.00  0.00    +0.000 NA
ATOM      4  C   UNL     1       5.619   5.205  15.882  0.00  0.00    +0.000 A 
ATOM      5  N   UNL     1       5.412   4.351  14.818  0.00  0.00    +0.000 N 
ATOM      6  N   UNL     1       4.830   5.028  17.006  0.00  0.00    +0.000 N 
ATOM      7  N   UNL     1       3.943   4.035  17.172  0.00  0.00    +0.000 NA
ATOM      8  C   UNL     1       3.444   4.358  18.376  0.00  0.00    +0.000 A 
ATOM      9  N   UNL     1       4.034   5.463  18.969  0.00  0.00    +0.000 NA
ATOM     10  C   UNL     1       4.944   5.834  18.094  0.00  0.00    +0.000 A 
ATOM     11  N   UNL     1       5.904   6.794  18.121  0.00  0.00    +0.000 NA
ATOM     12  H   UNL     1       8.283   7.647  16.198  0.00  0.00    +0.000 HD
ATOM     13  H   UNL     1       4.794   3.562  15.019  0.00  0.00    +0.000 HD
ENDROOT
BRANCH   8  14
ATOM     14  C   UNL     1       2.356   3.560  19.015  0.00  0.00    +0.000 A 
ATOM     15  C   UNL     1       1.357   2.866  18.359  0.00  0.00    +0.000 A 
ATOM     16  C   UNL     1       0.548   2.271  19.359  0.00  0.00    +0.000 A 
ATOM     17  C   UNL     1       1.096   2.642  20.564  0.00  0.00    +0.000 A 
ATOM     18  O   UNL     1       2.201   3.403  20.367  0.00  0.00    +0.000 OA
ENDBRANCH   8  14
BRANCH   1  19
ATOM     19  C   UNL     1       8.411   8.252  18.166  0.00  0.00    +0.000 C 
BRANCH  19  20
ATOM     20  C   UNL     1       8.560   9.786  18.190  0.00  0.00    +0.000 C 
BRANCH  20  21
ATOM     21  N   UNL     1       9.310  10.264  19.363  0.00  0.00    +0.000 NA
ATOM     22  H   UNL     1      10.074  10.859  19.040  0.00  0.00    +0.000 HD
ATOM     23  H   UNL     1       9.758   9.471  19.822  0.00  0.00    +0.000 HD
ENDBRANCH  20  21
ENDBRANCH  19  20
ENDBRANCH   1  19
BRANCH   5  24
ATOM     24  C   UNL     1       6.447   4.067  13.839  0.00  0.00    +0.000 C 
BRANCH  24  25
ATOM     25  C   UNL     1       5.845   3.540  12.522  0.00  0.00    +0.000 C 
BRANCH  25  26
ATOM     26  N   UNL     1       6.591   2.397  11.982  0.00  0.00    +0.000 NA
ATOM     27  H   UNL     1       6.346   2.274  10.998  0.00  0.00    +0.000 HD
ATOM     28  H   UNL     1       6.281   1.548  12.453  0.00  0.00    +0.000 HD
ENDBRANCH  25  26
ENDBRANCH  24  25
ENDBRANCH   5  24
TORSDOF 7
ENDMDL
MODEL 6
REMARK VINA RESULT:      -6.9      3.612      4.608
REMARK  Name = 
REMARK  7 active torsions:
REMARK  status: ('A' for Active; 'I' for Inactive)
REMARK    1  A    between atoms: N_1  and  C_2
REMARK    2  A    between atoms: C_2  and  C_3
REMARK    3  A    between atoms: C_3  and  N_4
REMARK    4  A    between atoms: N_8  and  C_9
REMARK    5  A    between atoms: C_9  and  C_10
REMARK    6  A    between atoms: C_10  and  N_11
REMARK    7  A    between atoms: C_14  and  C_15
REMARK                            x       y       z     vdW  Elec       q    Type
REMARK                         _______ _______ _______ _____ _____    ______ ____
ROOT
ATOM      1  N   UNL     1       1.850   7.433  20.509  0.00  0.00    +0.000 N 
ATOM      2  C   UNL     1       2.553   6.654  19.633  0.00  0.00    +0.000 A 
ATOM      3  N   UNL     1       2.412   5.297  19.852  0.00  0.00    +0.000 NA
ATOM      4  C   UNL     1       2.987   4.456  19.044  0.00  0.00    +0.000 A 
ATOM      5  N   UNL     1       2.891   3.082  19.138  0.00  0.00    +0.000 N 
ATOM      6  N   UNL     1       3.730   4.974  17.996  0.00  0.00    +0.000 N 
ATOM      7  N   UNL     1       4.287   4.245  17.017  0.00  0.00    +0.000 NA
ATOM      8  C   UNL     1       4.905   5.212  16.320  0.00  0.00    +0.000 A 
ATOM      9  N   UNL     1       4.693   6.495  16.799  0.00  0.00    +0.000 NA
ATOM     10  C   UNL     1       3.902   6.312  17.835  0.00  0.00    +0.000 A 
ATOM     11  N   UNL     1       3.272   7.176  18.672  0.00  0.00    +0.000 NA
ATOM     12  H   UNL     1       1.183   6.885  21.046  0.00  0.00    +0.000 HD
ATOM     13  H   UNL     1       3.254   2.574  18.329  0.00  0.00    +0.000 HD
ENDROOT
BRANCH   8  14
ATOM     14  C   UNL     1       5.730   4.906  15.114  0.00  0.00    +0.000 A 
ATOM     15  C   UNL     1       5.423   3.994  14.123  0.00  0.00    +0.000 A 
ATOM     16  C   UNL     1       6.490   4.029  13.190  0.00  0.00    +0.000 A 
ATOM     17  C   UNL     1       7.386   4.953  13.671  0.00  0.00    +0.000 A 
ATOM     18  O   UNL     1       6.927   5.505  14.821  0.00  0.00    +0.000 OA
ENDBRANCH   8  14
BRANCH   1  19
ATOM     19  C   UNL     1       1.316   8.734  20.141  0.00  0.00    +0.000 C 
BRANCH  19  20
ATOM     20  C   UNL     1       0.886   9.522  21.393  0.00  0.00    +0.000 C 
BRANCH  20  21
ATOM     21  N   UNL     1       1.758   9.268  22.551  0.00  0.00    +0.000 NA
ATOM     22  H   UNL     1       1.260   8.666  23.208  0.00  0.00    +0.000 HD
ATOM     23  H   UNL     1       1.918  10.142  23.051  0.00  0.00    +0.000 HD
ENDBRANCH  20  21
ENDBRANCH  19  20
ENDBRANCH   1  19
BRANCH   5  24
ATOM     24  C   UNL     1       1.782   2.428  19.810  0.00  0.00    +0.000 C 
BRANCH  24  25
ATOM     25  C   UNL     1       2.130   2.094  21.273  0.00  0.00    +0.000 C 
BRANCH  25  26
ATOM     26  N   UNL     1       2.083   3.274  22.144  0.00  0.00    +0.000 NA
ATOM     27  H   UNL     1       1.315   3.168  22.809  0.00  0.00    +0.000 HD
ATOM     28  H   UNL     1       1.849   4.090  21.580  0.00  0.00    +0.000 HD
ENDBRANCH  25  26
ENDBRANCH  24  25
ENDBRANCH   5  24
TORSDOF 7
ENDMDL
MODEL 7
REMARK VINA RESULT:      -6.8      4.398      6.670
REMARK  Name = 
REMARK  7 active torsions:
REMARK  status: ('A' for Active; 'I' for Inactive)
REMARK    1  A    between atoms: N_1  and  C_2
REMARK    2  A    between atoms: C_2  and  C_3
REMARK    3  A    between atoms: C_3  and  N_4
REMARK    4  A    between atoms: N_8  and  C_9
REMARK    5  A    between atoms: C_9  and  C_10
REMARK    6  A    between atoms: C_10  and  N_11
REMARK    7  A    between atoms: C_14  and  C_15
REMARK                            x       y       z     vdW  Elec       q    Type
REMARK                         _______ _______ _______ _____ _____    ______ ____
ROOT
ATOM      1  N   UNL     1       5.731   3.752  16.101  0.00  0.00    +0.000 N 
ATOM      2  C   UNL     1       4.784   4.460  16.787  0.00  0.00    +0.000 A 
ATOM      3  N   UNL     1       3.985   3.681  17.603  0.00  0.00    +0.000 NA
ATOM      4  C   UNL     1       3.087   4.252  18.350  0.00  0.00    +0.000 A 
ATOM      5  N   UNL     1       2.256   3.588  19.230  0.00  0.00    +0.000 N 
ATOM      6  N   UNL     1       2.970   5.630  18.279  0.00  0.00    +0.000 N 
ATOM      7  N   UNL     1       2.175   6.374  19.063  0.00  0.00    +0.000 NA
ATOM      8  C   UNL     1       2.409   7.594  18.554  0.00  0.00    +0.000 A 
ATOM      9  N   UNL     1       3.355   7.626  17.541  0.00  0.00    +0.000 NA
ATOM     10  C   UNL     1       3.727   6.369  17.426  0.00  0.00    +0.000 A 
ATOM     11  N   UNL     1       4.679   5.759  16.673  0.00  0.00    +0.000 NA
ATOM     12  H   UNL     1       5.823   2.805  16.457  0.00  0.00    +0.000 HD
ATOM     13  H   UNL     1       1.734   4.196  19.864  0.00  0.00    +0.000 HD
ENDROOT
BRANCH   8  14
ATOM     14  C   UNL     1       1.711   8.808  19.070  0.00  0.00    +0.000 A 
ATOM     15  C   UNL     1       1.386   9.937  18.342  0.00  0.00    +0.000 A 
ATOM     16  C   UNL     1       0.746  10.831  19.237  0.00  0.00    +0.000 A 
ATOM     17  C   UNL     1       0.728  10.200  20.458  0.00  0.00    +0.000 A 
ATOM     18  O   UNL     1       1.288   8.968  20.363  0.00  0.00    +0.000 OA
ENDBRANCH   8  14
BRANCH   1  19
ATOM     19  C   UNL     1       7.016   4.323  15.733  0.00  0.00    +0.000 C 
BRANCH  19  20
ATOM     20  C   UNL     1       7.060   4.646  14.226  0.00  0.00    +0.000 C 
BRANCH  20  21
ATOM     21  N   UNL     1       8.143   5.579  13.878  0.00  0.00    +0.000 NA
ATOM     22  H   UNL     1       8.410   6.097  14.717  0.00  0.00    +0.000 HD
ATOM     23  H   UNL     1       7.787   6.281  13.228  0.00  0.00    +0.000 HD
ENDBRANCH  20  21
ENDBRANCH  19  20
ENDBRANCH   1  19
BRANCH   5  24
ATOM     24  C   UNL     1       2.598   2.291  19.788  0.00  0.00    +0.000 C 
BRANCH  24  25
ATOM     25  C   UNL     1       3.817   2.387  20.725  0.00  0.00    +0.000 C 
BRANCH  25  26
ATOM     26  N   UNL     1       5.038   1.844  20.117  0.00  0.00    +0.000 NA
ATOM     27  H   UNL     1       5.789   2.529  20.208  0.00  0.00    +0.000 HD
ATOM     28  H   UNL     1       4.885   1.734  19.115  0.00  0.00    +0.000 HD
ENDBRANCH  25  26
ENDBRANCH  24  25
ENDBRANCH   5  24
TORSDOF 7
ENDMDL
MODEL 8
REMARK VINA RESULT:      -6.7      4.562      6.732
REMARK  Name = 
REMARK  7 active torsions:
REMARK  status: ('A' for Active; 'I' for Inactive)
REMARK    1  A    between atoms: N_1  and  C_2
REMARK    2  A    between atoms: C_2  and  C_3
REMARK    3  A    between atoms: C_3  and  N_4
REMARK    4  A    between atoms: N_8  and  C_9
REMARK    5  A    between atoms: C_9  and  C_10
REMARK    6  A    between atoms: C_10  and  N_11
REMARK    7  A    between atoms: C_14  and  C_15
REMARK                            x       y       z     vdW  Elec       q    Type
REMARK                         _______ _______ _______ _____ _____    ______ ____
ROOT
ATOM      1  N   UNL     1       5.937   3.888  16.442  0.00  0.00    +0.000 N 
ATOM      2  C   UNL     1       4.980   4.609  17.100  0.00  0.00    +0.000 A 
ATOM      3  N   UNL     1       4.336   3.903  18.098  0.00  0.00    +0.000 NA
ATOM      4  C   UNL     1       3.447   4.504  18.833  0.00  0.00    +0.000 A 
ATOM      5  N   UNL     1       2.764   3.918  19.880  0.00  0.00    +0.000 N 
ATOM      6  N   UNL     1       3.181   5.836  18.564  0.00  0.00    +0.000 N 
ATOM      7  N   UNL     1       2.379   6.622  19.298  0.00  0.00    +0.000 NA
ATOM      8  C   UNL     1       2.442   7.760  18.587  0.00  0.00    +0.000 A 
ATOM      9  N   UNL     1       3.294   7.713  17.495  0.00  0.00    +0.000 NA
ATOM     10  C   UNL     1       3.785   6.492  17.539  0.00  0.00    +0.000 A 
ATOM     11  N   UNL     1       4.731   5.858  16.799  0.00  0.00    +0.000 NA
ATOM     12  H   UNL     1       6.156   3.023  16.928  0.00  0.00    +0.000 HD
ATOM     13  H   UNL     1       2.235   4.571  20.461  0.00  0.00    +0.000 HD
ENDROOT
BRANCH   8  14
ATOM     14  C   UNL     1       1.665   8.973  18.977  0.00  0.00    +0.000 A 
ATOM     15  C   UNL     1       1.436  10.086  18.190  0.00  0.00    +0.000 A 
ATOM     16  C   UNL     1       0.667  10.987  18.969  0.00  0.00    +0.000 A 
ATOM     17  C   UNL     1       0.480  10.375  20.185  0.00  0.00    +0.000 A 
ATOM     18  O   UNL     1       1.060   9.149  20.193  0.00  0.00    +0.000 OA
ENDBRANCH   8  14
BRANCH   1  19
ATOM     19  C   UNL     1       7.122   4.506  15.869  0.00  0.00    +0.000 C 
BRANCH  19  20
ATOM     20  C   UNL     1       6.971   4.667  14.343  0.00  0.00    +0.000 C 
BRANCH  20  21
ATOM     21  N   UNL     1       7.990   5.556  13.763  0.00  0.00    +0.000 NA
ATOM     22  H   UNL     1       8.417   5.084  12.964  0.00  0.00    +0.000 HD
ATOM     23  H   UNL     1       8.745   5.688  14.436  0.00  0.00    +0.000 HD
ENDBRANCH  20  21
ENDBRANCH  19  20
ENDBRANCH   1  19
BRANCH   5  24
ATOM     24  C   UNL     1       3.284   2.765  20.594  0.00  0.00    +0.000 C 
BRANCH  24  25
ATOM     25  C   UNL     1       2.296   2.283  21.674  0.00  0.00    +0.000 C 
BRANCH  25  26
ATOM     26  N   UNL     1       0.940   2.804  21.468  0.00  0.00    +0.000 NA
ATOM     27  H   UNL     1       0.813   3.021  20.478  0.00  0.00    +0.000 HD
ATOM     28  H   UNL     1       0.851   3.693  21.959  0.00  0.00    +0.000 HD
ENDBRANCH  25  26
ENDBRANCH  24  25
ENDBRANCH   5  24
TORSDOF 7
ENDMDL
MODEL 9
REMARK VINA RESULT:      -6.7      2.555      5.358
REMARK  Name = 
REMARK  7 active torsions:
REMARK  status: ('A' for Active; 'I' for Inactive)
REMARK    1  A    between atoms: N_1  and  C_2
REMARK    2  A    between atoms: C_2  and  C_3
REMARK    3  A    between atoms: C_3  and  N_4
REMARK    4  A    between atoms: N_8  and  C_9
REMARK    5  A    between atoms: C_9  and  C_10
REMARK    6  A    between atoms: C_10  and  N_11
REMARK    7  A    between atoms: C_14  and  C_15
REMARK                            x       y       z     vdW  Elec       q    Type
REMARK                         _______ _______ _______ _____ _____    ______ ____
ROOT
ATOM      1  N   UNL     1       7.779   7.833  17.061  0.00  0.00    +0.000 N 
ATOM      2  C   UNL     1       6.746   6.938  17.047  0.00  0.00    +0.000 A 
ATOM      3  N   UNL     1       6.727   6.122  15.931  0.00  0.00    +0.000 NA
ATOM      4  C   UNL     1       5.826   5.191  15.836  0.00  0.00    +0.000 A 
ATOM      5  N   UNL     1       5.727   4.294  14.791  0.00  0.00    +0.000 N 
ATOM      6  N   UNL     1       4.911   5.070  16.869  0.00  0.00    +0.000 N 
ATOM      7  N   UNL     1       3.995   4.095  16.973  0.00  0.00    +0.000 NA
ATOM      8  C   UNL     1       3.368   4.475  18.098  0.00  0.00    +0.000 A 
ATOM      9  N   UNL     1       3.904   5.598  18.709  0.00  0.00    +0.000 NA
ATOM     10  C   UNL     1       4.914   5.921  17.928  0.00  0.00    +0.000 A 
ATOM     11  N   UNL     1       5.879   6.871  18.025  0.00  0.00    +0.000 NA
ATOM     12  H   UNL     1       8.474   7.615  16.353  0.00  0.00    +0.000 HD
ATOM     13  H   UNL     1       5.077   3.522  14.953  0.00  0.00    +0.000 HD
ENDROOT
BRANCH   8  14
ATOM     14  C   UNL     1       2.203   3.717  18.641  0.00  0.00    +0.000 A 
ATOM     15  C   UNL     1       1.613   3.898  19.878  0.00  0.00    +0.000 A 
ATOM     16  C   UNL     1       0.556   2.958  19.969  0.00  0.00    +0.000 A 
ATOM     17  C   UNL     1       0.569   2.254  18.788  0.00  0.00    +0.000 A 
ATOM     18  O   UNL     1       1.546   2.719  17.971  0.00  0.00    +0.000 OA
ENDBRANCH   8  14
BRANCH   1  19
ATOM     19  C   UNL     1       8.387   8.302  18.296  0.00  0.00    +0.000 C 
BRANCH  19  20
ATOM     20  C   UNL     1       8.616   9.826  18.247  0.00  0.00    +0.000 C 
BRANCH  20  21
ATOM     21  N   UNL     1       9.387  10.320  19.399  0.00  0.00    +0.000 NA
ATOM     22  H   UNL     1       9.541   9.545  20.046  0.00  0.00    +0.000 HD
ATOM     23  H   UNL     1       8.826  10.997  19.916  0.00  0.00    +0.000 HD
ENDBRANCH  20  21
ENDBRANCH  19  20
ENDBRANCH   1  19
BRANCH   5  24
ATOM     24  C   UNL     1       6.862   3.957  13.949  0.00  0.00    +0.000 C 
BRANCH  24  25
ATOM     25  C   UNL     1       7.143   5.066  12.916  0.00  0.00    +0.000 C 
BRANCH  25  26
ATOM     26  N   UNL     1       8.378   5.804  13.207  0.00  0.00    +0.000 NA
ATOM     27  H   UNL     1       8.458   5.936  14.216  0.00  0.00    +0.000 HD
ATOM     28  H   UNL     1       8.302   6.740  12.811  0.00  0.00    +0.000 HD
ENDBRANCH  25  26
ENDBRANCH  24  25
ENDBRANCH   5  24
TORSDOF 7
ENDMDL
