MODEL 1
REMARK VINA RESULT:      -7.4      0.000      0.000
REMARK  Name = 
REMARK  8 active torsions:
REMARK  status: ('A' for Active; 'I' for Inactive)
REMARK    1  A    between atoms: C_1  and  C_2
REMARK    2  A    between atoms: C_2  and  C_3
REMARK    3  A    between atoms: C_2  and  C_4
REMARK    4  A    between atoms: C_9  and  C_10
REMARK    5  A    between atoms: C_10  and  O_12
REMARK    6  A    between atoms: C_13  and  O_14
REMARK    7  A    between atoms: C_15  and  C_16
REMARK    8  A    between atoms: C_16  and  C_17
REMARK                            x       y       z     vdW  Elec       q    Type
REMARK                         _______ _______ _______ _____ _____    ______ ____
ROOT
ATOM      1  C   UNL     1       3.408   3.185  19.923  0.00  0.00    +0.000 A 
ATOM      2  C   UNL     1       2.245   2.977  20.685  0.00  0.00    +0.000 A 
ATOM      3  C   UNL     1       1.306   3.985  20.831  0.00  0.00    +0.000 A 
ATOM      4  C   UNL     1       1.523   5.214  20.209  0.00  0.00    +0.000 A 
ATOM      5  C   UNL     1       2.689   5.463  19.445  0.00  0.00    +0.000 A 
ATOM      6  C   UNL     1       2.987   6.689  18.789  0.00  0.00    +0.000 A 
ATOM      7  C   UNL     1       4.179   6.832  18.063  0.00  0.00    +0.000 A 
ATOM      8  C   UNL     1       5.039   5.750  17.936  0.00  0.00    +0.000 A 
ATOM      9  N   UNL     1       4.745   4.581  18.558  0.00  0.00    +0.000 NA
ATOM     10  C   UNL     1       3.633   4.424  19.298  0.00  0.00    +0.000 A 
ENDROOT
BRANCH   1  12
ATOM     11  C   UNL     1       4.756   1.371  21.088  0.00  0.00    +0.000 C 
ATOM     12  C   UNL     1       4.405   2.039  19.754  0.00  0.00    +0.000 C 
ATOM     13  C   UNL     1       3.884   1.019  18.739  0.00  0.00    +0.000 C 
ENDBRANCH   1  12
BRANCH   8  14
ATOM     14  C   UNL     1       6.343   5.786  17.127  0.00  0.00    +0.000 C 
ATOM     15  C   UNL     1       7.372   6.890  17.368  0.00  0.00    +0.000 C 
ATOM     16  C   UNL     1       7.626   5.532  17.932  0.00  0.00    +0.000 C 
BRANCH  14  17
ATOM     17  C   UNL     1       6.289   5.207  15.710  0.00  0.00    +0.000 A 
ATOM     18  C   UNL     1       7.336   5.425  14.794  0.00  0.00    +0.000 A 
ATOM     19  C   UNL     1       7.357   4.784  13.552  0.00  0.00    +0.000 A 
ATOM     20  C   UNL     1       6.322   3.927  13.208  0.00  0.00    +0.000 A 
ATOM     21  F   UNL     1       6.367   3.272  12.040  0.00  0.00    +0.000 F 
ATOM     22  C   UNL     1       5.247   3.729  14.062  0.00  0.00    +0.000 A 
ATOM     23  C   UNL     1       5.226   4.378  15.298  0.00  0.00    +0.000 A 
ENDBRANCH  14  17
ENDBRANCH   8  14
BRANCH   6  24
ATOM     24  C   UNL     1       2.039   7.839  18.862  0.00  0.00    +0.000 C 
ATOM     25  O   UNL     1       1.661   8.355  19.898  0.00  0.00    +0.000 OA
BRANCH  24  26
ATOM     26  O   UNL     1       1.644   8.286  17.647  0.00  0.00    +0.000 OA
ATOM     27  H   UNL     1       1.557   9.261  17.570  0.00  0.00    +0.000 HD
ENDBRANCH  24  26
ENDBRANCH   6  24
BRANCH   7  28
ATOM     28  O   UNL     1       4.512   8.024  17.464  0.00  0.00    +0.000 OA
ATOM     29  H   UNL     1       5.411   7.932  17.086  0.00  0.00    +0.000 HD
ENDBRANCH   7  28
TORSDOF 6
ENDMDL
MODEL 2
REMARK VINA RESULT:      -7.4      2.315      3.903
REMARK  Name = 
REMARK  8 active torsions:
REMARK  status: ('A' for Active; 'I' for Inactive)
REMARK    1  A    between atoms: C_1  and  C_2
REMARK    2  A    between atoms: C_2  and  C_3
REMARK    3  A    between atoms: C_2  and  C_4
REMARK    4  A    between atoms: C_9  and  C_10
REMARK    5  A    between atoms: C_10  and  O_12
REMARK    6  A    between atoms: C_13  and  O_14
REMARK    7  A    between atoms: C_15  and  C_16
REMARK    8  A    between atoms: C_16  and  C_17
REMARK                            x       y       z     vdW  Elec       q    Type
REMARK                         _______ _______ _______ _____ _____    ______ ____
ROOT
ATOM      1  C   UNL     1       2.251   6.635  19.644  0.00  0.00    +0.000 A 
ATOM      2  C   UNL     1       1.262   6.209  20.547  0.00  0.00    +0.000 A 
ATOM      3  C   UNL     1       1.293   4.929  21.077  0.00  0.00    +0.000 A 
ATOM      4  C   UNL     1       2.322   4.063  20.708  0.00  0.00    +0.000 A 
ATOM      5  C   UNL     1       3.328   4.455  19.791  0.00  0.00    +0.000 A 
ATOM      6  C   UNL     1       4.402   3.629  19.359  0.00  0.00    +0.000 A 
ATOM      7  C   UNL     1       5.342   4.115  18.437  0.00  0.00    +0.000 A 
ATOM      8  C   UNL     1       5.253   5.428  17.995  0.00  0.00    +0.000 A 
ATOM      9  N   UNL     1       4.230   6.213  18.417  0.00  0.00    +0.000 NA
ATOM     10  C   UNL     1       3.288   5.764  19.266  0.00  0.00    +0.000 A 
ENDROOT
BRANCH   1  12
ATOM     11  C   UNL     1       1.812   8.119  17.626  0.00  0.00    +0.000 C 
ATOM     12  C   UNL     1       2.206   8.066  19.107  0.00  0.00    +0.000 C 
ATOM     13  C   UNL     1       1.280   8.933  19.963  0.00  0.00    +0.000 C 
ENDBRANCH   1  12
BRANCH   8  14
ATOM     14  C   UNL     1       6.254   6.071  17.025  0.00  0.00    +0.000 C 
ATOM     15  C   UNL     1       6.611   7.552  17.150  0.00  0.00    +0.000 C 
ATOM     16  C   UNL     1       7.578   6.533  17.652  0.00  0.00    +0.000 C 
BRANCH  14  17
ATOM     17  C   UNL     1       6.326   5.473  15.617  0.00  0.00    +0.000 A 
ATOM     18  C   UNL     1       7.504   5.558  14.849  0.00  0.00    +0.000 A 
ATOM     19  C   UNL     1       7.621   4.894  13.625  0.00  0.00    +0.000 A 
ATOM     20  C   UNL     1       6.553   4.145  13.150  0.00  0.00    +0.000 A 
ATOM     21  F   UNL     1       6.683   3.466  12.002  0.00  0.00    +0.000 F 
ATOM     22  C   UNL     1       5.359   4.081  13.853  0.00  0.00    +0.000 A 
ATOM     23  C   UNL     1       5.244   4.754  15.071  0.00  0.00    +0.000 A 
ENDBRANCH  14  17
ENDBRANCH   8  14
BRANCH   6  24
ATOM     24  C   UNL     1       4.547   2.238  19.878  0.00  0.00    +0.000 C 
ATOM     25  O   UNL     1       4.923   1.959  21.002  0.00  0.00    +0.000 OA
BRANCH  24  26
ATOM     26  O   UNL     1       4.193   1.290  18.979  0.00  0.00    +0.000 OA
ATOM     27  H   UNL     1       4.827   1.158  18.241  0.00  0.00    +0.000 HD
ENDBRANCH  24  26
ENDBRANCH   6  24
BRANCH   7  28
ATOM     28  O   UNL     1       6.358   3.318  17.966  0.00  0.00    +0.000 OA
ATOM     29  H   UNL     1       6.218   3.185  17.006  0.00  0.00    +0.000 HD
ENDBRANCH   7  28
TORSDOF 6
ENDMDL
MODEL 3
REMARK VINA RESULT:      -7.3      3.150      5.151
REMARK  Name = 
REMARK  8 active torsions:
REMARK  status: ('A' for Active; 'I' for Inactive)
REMARK    1  A    between atoms: C_1  and  C_2
REMARK    2  A    between atoms: C_2  and  C_3
REMARK    3  A    between atoms: C_2  and  C_4
REMARK    4  A    between atoms: C_9  and  C_10
REMARK    5  A    between atoms: C_10  and  O_12
REMARK    6  A    between atoms: C_13  and  O_14
REMARK    7  A    between atoms: C_15  and  C_16
REMARK    8  A    between atoms: C_16  and  C_17
REMARK                            x       y       z     vdW  Elec       q    Type
REMARK                         _______ _______ _______ _____ _____    ______ ____
ROOT
ATOM      1  C   UNL     1       2.102   6.399  19.757  0.00  0.00    +0.000 A 
ATOM      2  C   UNL     1       1.170   5.862  20.662  0.00  0.00    +0.000 A 
ATOM      3  C   UNL     1       1.142   4.501  20.922  0.00  0.00    +0.000 A 
ATOM      4  C   UNL     1       2.053   3.665  20.278  0.00  0.00    +0.000 A 
ATOM      5  C   UNL     1       2.996   4.170  19.351  0.00  0.00    +0.000 A 
ATOM      6  C   UNL     1       3.950   3.383  18.649  0.00  0.00    +0.000 A 
ATOM      7  C   UNL     1       4.836   3.985  17.743  0.00  0.00    +0.000 A 
ATOM      8  C   UNL     1       4.820   5.364  17.582  0.00  0.00    +0.000 A 
ATOM      9  N   UNL     1       3.912   6.110  18.260  0.00  0.00    +0.000 NA
ATOM     10  C   UNL     1       3.020   5.559  19.102  0.00  0.00    +0.000 A 
ENDROOT
BRANCH   1  12
ATOM     11  C   UNL     1       1.731   8.281  18.088  0.00  0.00    +0.000 C 
ATOM     12  C   UNL     1       2.130   7.909  19.521  0.00  0.00    +0.000 C 
ATOM     13  C   UNL     1       1.254   8.630  20.549  0.00  0.00    +0.000 C 
ENDBRANCH   1  12
BRANCH   8  14
ATOM     14  C   UNL     1       5.775   6.126  16.653  0.00  0.00    +0.000 C 
ATOM     15  C   UNL     1       6.129   5.564  15.277  0.00  0.00    +0.000 C 
ATOM     16  C   UNL     1       5.145   6.681  15.367  0.00  0.00    +0.000 C 
BRANCH  14  17
ATOM     17  C   UNL     1       6.844   6.990  17.328  0.00  0.00    +0.000 A 
ATOM     18  C   UNL     1       6.982   8.356  17.013  0.00  0.00    +0.000 A 
ATOM     19  C   UNL     1       7.859   9.179  17.725  0.00  0.00    +0.000 A 
ATOM     20  C   UNL     1       8.618   8.640  18.754  0.00  0.00    +0.000 A 
ATOM     21  F   UNL     1       9.420   9.439  19.471  0.00  0.00    +0.000 F 
ATOM     22  C   UNL     1       8.549   7.289  19.058  0.00  0.00    +0.000 A 
ATOM     23  C   UNL     1       7.678   6.468  18.337  0.00  0.00    +0.000 A 
ENDBRANCH  14  17
ENDBRANCH   8  14
BRANCH   6  24
ATOM     24  C   UNL     1       4.023   1.908  18.864  0.00  0.00    +0.000 C 
ATOM     25  O   UNL     1       3.267   1.100  18.354  0.00  0.00    +0.000 OA
BRANCH  24  26
ATOM     26  O   UNL     1       5.041   1.534  19.672  0.00  0.00    +0.000 OA
ATOM     27  H   UNL     1       5.853   1.232  19.209  0.00  0.00    +0.000 HD
ENDBRANCH  24  26
ENDBRANCH   6  24
BRANCH   7  28
ATOM     28  O   UNL     1       5.732   3.238  17.015  0.00  0.00    +0.000 OA
ATOM     29  H   UNL     1       5.245   2.485  16.618  0.00  0.00    +0.000 HD
ENDBRANCH   7  28
TORSDOF 6
ENDMDL
MODEL 4
REMARK VINA RESULT:      -7.1      3.168      5.094
REMARK  Name = 
REMARK  8 active torsions:
REMARK  status: ('A' for Active; 'I' for Inactive)
REMARK    1  A    between atoms: C_1  and  C_2
REMARK    2  A    between atoms: C_2  and  C_3
REMARK    3  A    between atoms: C_2  and  C_4
REMARK    4  A    between atoms: C_9  and  C_10
REMARK    5  A    between atoms: C_10  and  O_12
REMARK    6  A    between atoms: C_13  and  O_14
REMARK    7  A    between atoms: C_15  and  C_16
REMARK    8  A    between atoms: C_16  and  C_17
REMARK                            x       y       z     vdW  Elec       q    Type
REMARK                         _______ _______ _______ _____ _____    ______ ____
ROOT
ATOM      1  C   UNL     1       2.107   6.271  19.692  0.00  0.00    +0.000 A 
ATOM      2  C   UNL     1       1.087   5.749  20.507  0.00  0.00    +0.000 A 
ATOM      3  C   UNL     1       0.874   4.382  20.585  0.00  0.00    +0.000 A 
ATOM      4  C   UNL     1       1.687   3.523  19.847  0.00  0.00    +0.000 A 
ATOM      5  C   UNL     1       2.715   4.014  19.006  0.00  0.00    +0.000 A 
ATOM      6  C   UNL     1       3.578   3.204  18.217  0.00  0.00    +0.000 A 
ATOM      7  C   UNL     1       4.561   3.796  17.409  0.00  0.00    +0.000 A 
ATOM      8  C   UNL     1       4.728   5.174  17.431  0.00  0.00    +0.000 A 
ATOM      9  N   UNL     1       3.906   5.940  18.192  0.00  0.00    +0.000 NA
ATOM     10  C   UNL     1       2.926   5.408  18.943  0.00  0.00    +0.000 A 
ENDROOT
BRANCH   1  12
ATOM     11  C   UNL     1       2.011   8.388  18.289  0.00  0.00    +0.000 C 
ATOM     12  C   UNL     1       2.337   7.782  19.658  0.00  0.00    +0.000 C 
ATOM     13  C   UNL     1       1.550   8.471  20.776  0.00  0.00    +0.000 C 
ENDBRANCH   1  12
BRANCH   8  14
ATOM     14  C   UNL     1       5.801   5.916  16.623  0.00  0.00    +0.000 C 
ATOM     15  C   UNL     1       6.399   5.284  15.366  0.00  0.00    +0.000 C 
ATOM     16  C   UNL     1       5.378   6.361  15.216  0.00  0.00    +0.000 C 
BRANCH  14  17
ATOM     17  C   UNL     1       6.714   6.867  17.403  0.00  0.00    +0.000 A 
ATOM     18  C   UNL     1       7.567   6.389  18.417  0.00  0.00    +0.000 A 
ATOM     19  C   UNL     1       8.501   7.226  19.034  0.00  0.00    +0.000 A 
ATOM     20  C   UNL     1       8.583   8.557  18.650  0.00  0.00    +0.000 A 
ATOM     21  F   UNL     1       9.512   9.347  19.203  0.00  0.00    +0.000 F 
ATOM     22  C   UNL     1       7.724   9.077  17.693  0.00  0.00    +0.000 A 
ATOM     23  C   UNL     1       6.786   8.238  17.086  0.00  0.00    +0.000 A 
ENDBRANCH  14  17
ENDBRANCH   8  14
BRANCH   6  24
ATOM     24  C   UNL     1       3.453   1.718  18.236  0.00  0.00    +0.000 C 
ATOM     25  O   UNL     1       4.271   0.965  18.733  0.00  0.00    +0.000 OA
BRANCH  24  26
ATOM     26  O   UNL     1       2.313   1.268  17.663  0.00  0.00    +0.000 OA
ATOM     27  H   UNL     1       2.368   1.104  16.697  0.00  0.00    +0.000 HD
ENDBRANCH  24  26
ENDBRANCH   6  24
BRANCH   7  28
ATOM     28  O   UNL     1       5.372   3.037  16.600  0.00  0.00    +0.000 OA
ATOM     29  H   UNL     1       5.505   2.169  17.034  0.00  0.00    +0.000 HD
ENDBRANCH   7  28
TORSDOF 6
ENDMDL
MODEL 5
REMARK VINA RESULT:      -7.0      0.520      1.269
REMARK  Name = 
REMARK  8 active torsions:
REMARK  status: ('A' for Active; 'I' for Inactive)
REMARK    1  A    between atoms: C_1  and  C_2
REMARK    2  A    between atoms: C_2  and  C_3
REMARK    3  A    between atoms: C_2  and  C_4
REMARK    4  A    between atoms: C_9  and  C_10
REMARK    5  A    between atoms: C_10  and  O_12
REMARK    6  A    between atoms: C_13  and  O_14
REMARK    7  A    between atoms: C_15  and  C_16
REMARK    8  A    between atoms: C_16  and  C_17
REMARK                            x       y       z     vdW  Elec       q    Type
REMARK                         _______ _______ _______ _____ _____    ______ ____
ROOT
ATOM      1  C   UNL     1       2.817   2.983  19.700  0.00  0.00    +0.000 A 
ATOM      2  C   UNL     1       1.565   2.912  20.334  0.00  0.00    +0.000 A 
ATOM      3  C   UNL     1       0.762   4.037  20.439  0.00  0.00    +0.000 A 
ATOM      4  C   UNL     1       1.207   5.245  19.904  0.00  0.00    +0.000 A 
ATOM      5  C   UNL     1       2.468   5.355  19.270  0.00  0.00    +0.000 A 
ATOM      6  C   UNL     1       2.996   6.550  18.708  0.00  0.00    +0.000 A 
ATOM      7  C   UNL     1       4.266   6.551  18.110  0.00  0.00    +0.000 A 
ATOM      8  C   UNL     1       4.978   5.363  18.012  0.00  0.00    +0.000 A 
ATOM      9  N   UNL     1       4.466   4.225  18.544  0.00  0.00    +0.000 NA
ATOM     10  C   UNL     1       3.272   4.200  19.163  0.00  0.00    +0.000 A 
ENDROOT
BRANCH   1  12
ATOM     11  C   UNL     1       3.937   1.346  18.109  0.00  0.00    +0.000 C 
ATOM     12  C   UNL     1       3.661   1.715  19.571  0.00  0.00    +0.000 C 
ATOM     13  C   UNL     1       4.962   1.852  20.367  0.00  0.00    +0.000 C 
ENDBRANCH   1  12
BRANCH   8  14
ATOM     14  C   UNL     1       6.351   5.246  17.337  0.00  0.00    +0.000 C 
ATOM     15  C   UNL     1       7.495   6.176  17.741  0.00  0.00    +0.000 C 
ATOM     16  C   UNL     1       7.496   4.772  18.245  0.00  0.00    +0.000 C 
BRANCH  14  17
ATOM     17  C   UNL     1       6.364   4.744  15.890  0.00  0.00    +0.000 A 
ATOM     18  C   UNL     1       5.314   3.955  15.383  0.00  0.00    +0.000 A 
ATOM     19  C   UNL     1       5.251   3.614  14.029  0.00  0.00    +0.000 A 
ATOM     20  C   UNL     1       6.248   4.050  13.168  0.00  0.00    +0.000 A 
ATOM     21  F   UNL     1       6.162   3.768  11.861  0.00  0.00    +0.000 F 
ATOM     22  C   UNL     1       7.327   4.785  13.640  0.00  0.00    +0.000 A 
ATOM     23  C   UNL     1       7.389   5.115  14.996  0.00  0.00    +0.000 A 
ENDBRANCH  14  17
ENDBRANCH   8  14
BRANCH   6  24
ATOM     24  C   UNL     1       2.211   7.818  18.746  0.00  0.00    +0.000 C 
ATOM     25  O   UNL     1       1.815   8.352  19.767  0.00  0.00    +0.000 OA
BRANCH  24  26
ATOM     26  O   UNL     1       1.993   8.351  17.522  0.00  0.00    +0.000 OA
ATOM     27  H   UNL     1       1.107   8.755  17.394  0.00  0.00    +0.000 HD
ENDBRANCH  24  26
ENDBRANCH   6  24
BRANCH   7  28
ATOM     28  O   UNL     1       4.817   7.705  17.606  0.00  0.00    +0.000 OA
ATOM     29  H   UNL     1       5.747   7.754  17.911  0.00  0.00    +0.000 HD
ENDBRANCH   7  28
TORSDOF 6
ENDMDL
MODEL 6
REMARK VINA RESULT:      -6.9      8.361     12.226
REMARK  Name = 
REMARK  8 active torsions:
REMARK  status: ('A' for Active; 'I' for Inactive)
REMARK    1  A    between atoms: C_1  and  C_2
REMARK    2  A    between atoms: C_2  and  C_3
REMARK    3  A    between atoms: C_2  and  C_4
REMARK    4  A    between atoms: C_9  and  C_10
REMARK    5  A    between atoms: C_10  and  O_12
REMARK    6  A    between atoms: C_13  and  O_14
REMARK    7  A    between atoms: C_15  and  C_16
REMARK    8  A    between atoms: C_16  and  C_17
REMARK                            x       y       z     vdW  Elec       q    Type
REMARK                         _______ _______ _______ _____ _____    ______ ____
ROOT
ATOM      1  C   UNL     1      -3.999  11.271  17.812  0.00  0.00    +0.000 A 
ATOM      2  C   UNL     1      -3.951  10.514  16.628  0.00  0.00    +0.000 A 
ATOM      3  C   UNL     1      -2.778   9.891  16.235  0.00  0.00    +0.000 A 
ATOM      4  C   UNL     1      -1.639  10.017  17.029  0.00  0.00    +0.000 A 
ATOM      5  C   UNL     1      -1.648  10.782  18.221  0.00  0.00    +0.000 A 
ATOM      6  C   UNL     1      -0.529  10.966  19.079  0.00  0.00    +0.000 A 
ATOM      7  C   UNL     1      -0.644  11.754  20.235  0.00  0.00    +0.000 A 
ATOM      8  C   UNL     1      -1.874  12.302  20.570  0.00  0.00    +0.000 A 
ATOM      9  N   UNL     1      -2.940  12.117  19.751  0.00  0.00    +0.000 NA
ATOM     10  C   UNL     1      -2.852  11.405  18.614  0.00  0.00    +0.000 A 
ENDROOT
BRANCH   1  12
ATOM     11  C   UNL     1      -5.981  12.689  17.088  0.00  0.00    +0.000 C 
ATOM     12  C   UNL     1      -5.319  11.916  18.234  0.00  0.00    +0.000 C 
ATOM     13  C   UNL     1      -6.267  10.866  18.819  0.00  0.00    +0.000 C 
ENDBRANCH   1  12
BRANCH   8  14
ATOM     14  C   UNL     1      -2.119  13.139  21.833  0.00  0.00    +0.000 C 
ATOM     15  C   UNL     1      -0.947  13.578  22.710  0.00  0.00    +0.000 C 
ATOM     16  C   UNL     1      -1.572  14.573  21.792  0.00  0.00    +0.000 C 
BRANCH  14  17
ATOM     17  C   UNL     1      -3.458  12.931  22.546  0.00  0.00    +0.000 A 
ATOM     18  C   UNL     1      -3.511  12.508  23.889  0.00  0.00    +0.000 A 
ATOM     19  C   UNL     1      -4.721  12.452  24.585  0.00  0.00    +0.000 A 
ATOM     20  C   UNL     1      -5.897  12.807  23.939  0.00  0.00    +0.000 A 
ATOM     21  F   UNL     1      -7.051  12.804  24.619  0.00  0.00    +0.000 F 
ATOM     22  C   UNL     1      -5.892  13.178  22.602  0.00  0.00    +0.000 A 
ATOM     23  C   UNL     1      -4.681  13.223  21.909  0.00  0.00    +0.000 A 
ENDBRANCH  14  17
ENDBRANCH   8  14
BRANCH   6  24
ATOM     24  C   UNL     1       0.782  10.326  18.765  0.00  0.00    +0.000 C 
ATOM     25  O   UNL     1       1.065   9.171  19.032  0.00  0.00    +0.000 OA
BRANCH  24  26
ATOM     26  O   UNL     1       1.641  11.149  18.122  0.00  0.00    +0.000 OA
ATOM     27  H   UNL     1       1.250  11.664  17.382  0.00  0.00    +0.000 HD
ENDBRANCH  24  26
ENDBRANCH   6  24
BRANCH   7  28
ATOM     28  O   UNL     1       0.437  11.987  21.051  0.00  0.00    +0.000 OA
ATOM     29  H   UNL     1       0.661  12.939  20.992  0.00  0.00    +0.000 HD
ENDBRANCH   7  28
TORSDOF 6
ENDMDL
MODEL 7
REMARK VINA RESULT:      -6.7      8.732     11.690
REMARK  Name = 
REMARK  8 active torsions:
REMARK  status: ('A' for Active; 'I' for Inactive)
REMARK    1  A    between atoms: C_1  and  C_2
REMARK    2  A    between atoms: C_2  and  C_3
REMARK    3  A    between atoms: C_2  and  C_4
REMARK    4  A    between atoms: C_9  and  C_10
REMARK    5  A    between atoms: C_10  and  O_12
REMARK    6  A    between atoms: C_13  and  O_14
REMARK    7  A    between atoms: C_15  and  C_16
REMARK    8  A    between atoms: C_16  and  C_17
REMARK                            x       y       z     vdW  Elec       q    Type
REMARK                         _______ _______ _______ _____ _____    ______ ____
ROOT
ATOM      1  C   UNL     1       9.791  11.959  18.611  0.00  0.00    +0.000 A 
ATOM      2  C   UNL     1      10.911  11.520  17.885  0.00  0.00    +0.000 A 
ATOM      3  C   UNL     1      11.648  12.408  17.118  0.00  0.00    +0.000 A 
ATOM      4  C   UNL     1      11.270  13.749  17.076  0.00  0.00    +0.000 A 
ATOM      5  C   UNL     1      10.140  14.224  17.786  0.00  0.00    +0.000 A 
ATOM      6  C   UNL     1       9.686  15.571  17.786  0.00  0.00    +0.000 A 
ATOM      7  C   UNL     1       8.545  15.934  18.519  0.00  0.00    +0.000 A 
ATOM      8  C   UNL     1       7.897  14.981  19.294  0.00  0.00    +0.000 A 
ATOM      9  N   UNL     1       8.340  13.699  19.294  0.00  0.00    +0.000 NA
ATOM     10  C   UNL     1       9.403  13.310  18.569  0.00  0.00    +0.000 A 
ENDROOT
BRANCH   1  12
ATOM     11  C   UNL     1       9.000   9.555  18.860  0.00  0.00    +0.000 C 
ATOM     12  C   UNL     1       9.021  10.959  19.475  0.00  0.00    +0.000 C 
ATOM     13  C   UNL     1       9.582  10.936  20.899  0.00  0.00    +0.000 C 
ENDBRANCH   1  12
BRANCH   8  14
ATOM     14  C   UNL     1       6.671  15.282  20.167  0.00  0.00    +0.000 C 
ATOM     15  C   UNL     1       6.513  14.619  21.535  0.00  0.00    +0.000 C 
ATOM     16  C   UNL     1       6.959  16.041  21.471  0.00  0.00    +0.000 C 
BRANCH  14  17
ATOM     17  C   UNL     1       5.375  15.637  19.432  0.00  0.00    +0.000 A 
ATOM     18  C   UNL     1       4.476  16.586  19.957  0.00  0.00    +0.000 A 
ATOM     19  C   UNL     1       3.366  17.016  19.225  0.00  0.00    +0.000 A 
ATOM     20  C   UNL     1       3.136  16.490  17.962  0.00  0.00    +0.000 A 
ATOM     21  F   UNL     1       2.102  16.939  17.238  0.00  0.00    +0.000 F 
ATOM     22  C   UNL     1       3.970  15.516  17.433  0.00  0.00    +0.000 A 
ATOM     23  C   UNL     1       5.073  15.083  18.172  0.00  0.00    +0.000 A 
ENDBRANCH  14  17
ENDBRANCH   8  14
BRANCH   6  24
ATOM     24  C   UNL     1      10.413  16.619  17.012  0.00  0.00    +0.000 C 
ATOM     25  O   UNL     1      10.892  17.626  17.499  0.00  0.00    +0.000 OA
BRANCH  24  26
ATOM     26  O   UNL     1      10.519  16.334  15.693  0.00  0.00    +0.000 OA
ATOM     27  H   UNL     1      11.437  16.245  15.358  0.00  0.00    +0.000 HD
ENDBRANCH  24  26
ENDBRANCH   6  24
BRANCH   7  28
ATOM     28  O   UNL     1       8.058  17.219  18.494  0.00  0.00    +0.000 OA
ATOM     29  H   UNL     1       7.082  17.171  18.426  0.00  0.00    +0.000 HD
ENDBRANCH   7  28
TORSDOF 6
ENDMDL
MODEL 8
REMARK VINA RESULT:      -6.7      9.245     13.017
REMARK  Name = 
REMARK  8 active torsions:
REMARK  status: ('A' for Active; 'I' for Inactive)
REMARK    1  A    between atoms: C_1  and  C_2
REMARK    2  A    between atoms: C_2  and  C_3
REMARK    3  A    between atoms: C_2  and  C_4
REMARK    4  A    between atoms: C_9  and  C_10
REMARK    5  A    between atoms: C_10  and  O_12
REMARK    6  A    between atoms: C_13  and  O_14
REMARK    7  A    between atoms: C_15  and  C_16
REMARK    8  A    between atoms: C_16  and  C_17
REMARK                            x       y       z     vdW  Elec       q    Type
REMARK                         _______ _______ _______ _____ _____    ______ ____
ROOT
ATOM      1  C   UNL     1      -1.505  11.941  20.638  0.00  0.00    +0.000 A 
ATOM      2  C   UNL     1      -0.218  11.436  20.386  0.00  0.00    +0.000 A 
ATOM      3  C   UNL     1       0.081  10.837  19.173  0.00  0.00    +0.000 A 
ATOM      4  C   UNL     1      -0.909  10.743  18.196  0.00  0.00    +0.000 A 
ATOM      5  C   UNL     1      -2.220  11.230  18.420  0.00  0.00    +0.000 A 
ATOM      6  C   UNL     1      -3.285  11.163  17.480  0.00  0.00    +0.000 A 
ATOM      7  C   UNL     1      -4.552  11.669  17.809  0.00  0.00    +0.000 A 
ATOM      8  C   UNL     1      -4.745  12.292  19.034  0.00  0.00    +0.000 A 
ATOM      9  N   UNL     1      -3.722  12.359  19.923  0.00  0.00    +0.000 NA
ATOM     10  C   UNL     1      -2.509  11.844  19.657  0.00  0.00    +0.000 A 
ENDROOT
BRANCH   1  12
ATOM     11  C   UNL     1      -1.911  11.626  23.128  0.00  0.00    +0.000 C 
ATOM     12  C   UNL     1      -1.791  12.627  21.973  0.00  0.00    +0.000 C 
ATOM     13  C   UNL     1      -0.733  13.694  22.267  0.00  0.00    +0.000 C 
ENDBRANCH   1  12
BRANCH   8  14
ATOM     14  C   UNL     1      -6.075  12.919  19.473  0.00  0.00    +0.000 C 
ATOM     15  C   UNL     1      -7.305  12.042  19.703  0.00  0.00    +0.000 C 
ATOM     16  C   UNL     1      -6.547  12.546  20.885  0.00  0.00    +0.000 C 
BRANCH  14  17
ATOM     17  C   UNL     1      -6.343  14.354  19.010  0.00  0.00    +0.000 A 
ATOM     18  C   UNL     1      -5.897  15.458  19.764  0.00  0.00    +0.000 A 
ATOM     19  C   UNL     1      -6.014  16.762  19.278  0.00  0.00    +0.000 A 
ATOM     20  C   UNL     1      -6.593  16.979  18.035  0.00  0.00    +0.000 A 
ATOM     21  F   UNL     1      -6.660  18.224  17.546  0.00  0.00    +0.000 F 
ATOM     22  C   UNL     1      -7.093  15.922  17.288  0.00  0.00    +0.000 A 
ATOM     23  C   UNL     1      -6.981  14.621  17.782  0.00  0.00    +0.000 A 
ENDBRANCH  14  17
ENDBRANCH   8  14
BRANCH   6  24
ATOM     24  C   UNL     1      -3.073  10.556  16.134  0.00  0.00    +0.000 C 
ATOM     25  O   UNL     1      -2.874   9.371  15.937  0.00  0.00    +0.000 OA
BRANCH  24  26
ATOM     26  O   UNL     1      -3.147  11.453  15.124  0.00  0.00    +0.000 OA
ATOM     27  H   UNL     1      -3.278  11.066  14.231  0.00  0.00    +0.000 HD
ENDBRANCH  24  26
ENDBRANCH   6  24
BRANCH   7  28
ATOM     28  O   UNL     1      -5.609  11.570  16.935  0.00  0.00    +0.000 OA
ATOM     29  H   UNL     1      -6.153  10.800  17.205  0.00  0.00    +0.000 HD
ENDBRANCH   7  28
TORSDOF 6
ENDMDL
MODEL 9
REMARK VINA RESULT:      -6.7      7.126     10.352
REMARK  Name = 
REMARK  8 active torsions:
REMARK  status: ('A' for Active; 'I' for Inactive)
REMARK    1  A    between atoms: C_1  and  C_2
REMARK    2  A    between atoms: C_2  and  C_3
REMARK    3  A    between atoms: C_2  and  C_4
REMARK    4  A    between atoms: C_9  and  C_10
REMARK    5  A    between atoms: C_10  and  O_12
REMARK    6  A    between atoms: C_13  and  O_14
REMARK    7  A    between atoms: C_15  and  C_16
REMARK    8  A    between atoms: C_16  and  C_17
REMARK                            x       y       z     vdW  Elec       q    Type
REMARK                         _______ _______ _______ _____ _____    ______ ____
ROOT
ATOM      1  C   UNL     1      -4.192  12.828  21.878  0.00  0.00    +0.000 A 
ATOM      2  C   UNL     1      -5.589  12.847  22.024  0.00  0.00    +0.000 A 
ATOM      3  C   UNL     1      -6.416  12.563  20.948  0.00  0.00    +0.000 A 
ATOM      4  C   UNL     1      -5.846  12.253  19.714  0.00  0.00    +0.000 A 
ATOM      5  C   UNL     1      -4.442  12.237  19.528  0.00  0.00    +0.000 A 
ATOM      6  C   UNL     1      -3.787  11.940  18.302  0.00  0.00    +0.000 A 
ATOM      7  C   UNL     1      -2.385  11.962  18.225  0.00  0.00    +0.000 A 
ATOM      8  C   UNL     1      -1.640  12.214  19.368  0.00  0.00    +0.000 A 
ATOM      9  N   UNL     1      -2.272  12.489  20.537  0.00  0.00    +0.000 NA
ATOM     10  C   UNL     1      -3.613  12.520  20.634  0.00  0.00    +0.000 A 
ENDROOT
BRANCH   1  12
ATOM     11  C   UNL     1      -3.075  14.611  23.306  0.00  0.00    +0.000 C 
ATOM     12  C   UNL     1      -3.310  13.111  23.094  0.00  0.00    +0.000 C 
ATOM     13  C   UNL     1      -3.895  12.455  24.347  0.00  0.00    +0.000 C 
ENDBRANCH   1  12
BRANCH   8  14
ATOM     14  C   UNL     1      -0.105  12.215  19.403  0.00  0.00    +0.000 C 
ATOM     15  C   UNL     1       0.685  13.277  18.639  0.00  0.00    +0.000 C 
ATOM     16  C   UNL     1       0.538  13.413  20.117  0.00  0.00    +0.000 C 
BRANCH  14  17
ATOM     17  C   UNL     1       0.579  10.856  19.579  0.00  0.00    +0.000 A 
ATOM     18  C   UNL     1       0.538  10.174  20.810  0.00  0.00    +0.000 A 
ATOM     19  C   UNL     1       1.037   8.875  20.936  0.00  0.00    +0.000 A 
ATOM     20  C   UNL     1       1.596   8.248  19.831  0.00  0.00    +0.000 A 
ATOM     21  F   UNL     1       2.028   6.984  19.938  0.00  0.00    +0.000 F 
ATOM     22  C   UNL     1       1.701   8.907  18.615  0.00  0.00    +0.000 A 
ATOM     23  C   UNL     1       1.209  10.209  18.497  0.00  0.00    +0.000 A 
ENDBRANCH  14  17
ENDBRANCH   8  14
BRANCH   6  24
ATOM     24  C   UNL     1      -4.575  11.601  17.081  0.00  0.00    +0.000 C 
ATOM     25  O   UNL     1      -5.478  12.286  16.633  0.00  0.00    +0.000 OA
BRANCH  24  26
ATOM     26  O   UNL     1      -4.176  10.454  16.487  0.00  0.00    +0.000 OA
ATOM     27  H   UNL     1      -4.003   9.705  17.098  0.00  0.00    +0.000 HD
ENDBRANCH  24  26
ENDBRANCH   6  24
BRANCH   7  28
ATOM     28  O   UNL     1      -1.732  11.729  17.038  0.00  0.00    +0.000 OA
ATOM     29  H   UNL     1      -1.109  12.470  16.885  0.00  0.00    +0.000 HD
ENDBRANCH   7  28
TORSDOF 6
ENDMDL
