MODEL 1
REMARK VINA RESULT:      -6.8      0.000      0.000
REMARK  Name = 
REMARK  8 active torsions:
REMARK  status: ('A' for Active; 'I' for Inactive)
REMARK    1  A    between atoms: C_1  and  C_2
REMARK    2  A    between atoms: C_2  and  C_3
REMARK    3  A    between atoms: C_2  and  C_4
REMARK    4  A    between atoms: C_8  and  C_9
REMARK    5  A    between atoms: C_8  and  C_11
REMARK    6  A    between atoms: C_9  and  N_10
REMARK    7  A    between atoms: C_11  and  C_12
REMARK    8  A    between atoms: C_12  and  O_14
REMARK                            x       y       z     vdW  Elec       q    Type
REMARK                         _______ _______ _______ _____ _____    ______ ____
ROOT
ATOM      1  C   UNL     1       2.093   4.431  18.032  0.00  0.00    +0.000 C 
ATOM      2  C   UNL     1       2.055   5.975  17.893  0.00  0.00    +0.000 C 
ATOM      3  C   UNL     1       3.375   6.632  18.320  0.00  0.00    +0.000 C 
ATOM      4  C   UNL     1       4.519   6.134  17.418  0.00  0.00    +0.000 C 
ATOM      5  C   UNL     1       4.724   4.592  17.497  0.00  0.00    +0.000 C 
ATOM      6  C   UNL     1       3.328   3.912  17.220  0.00  0.00    +0.000 C 
ENDROOT
BRANCH   1   8
ATOM      7  C   UNL     1       1.235   4.883  20.433  0.00  0.00    +0.000 C 
ATOM      8  C   UNL     1       1.970   3.896  19.503  0.00  0.00    +0.000 C 
ATOM      9  C   UNL     1       1.184   2.569  19.556  0.00  0.00    +0.000 C 
ENDBRANCH   1   8
BRANCH   5  10
ATOM     10  C   UNL     1       5.389   4.239  18.872  0.00  0.00    +0.000 C 
BRANCH  10  11
ATOM     11  N   UNL     1       5.202   2.839  19.252  0.00  0.00    +0.000 NA
ATOM     12  H   UNL     1       4.194   2.591  19.211  0.00  0.00    +0.000 HD
ATOM     13  H   UNL     1       5.505   2.725  20.246  0.00  0.00    +0.000 HD
ENDBRANCH  10  11
ENDBRANCH   5  10
BRANCH   5  14
ATOM     14  C   UNL     1       5.686   4.115  16.352  0.00  0.00    +0.000 C 
BRANCH  14  15
ATOM     15  C   UNL     1       7.083   4.699  16.377  0.00  0.00    +0.000 C 
ATOM     16  O   UNL     1       7.357   5.670  15.691  0.00  0.00    +0.000 OA
BRANCH  15  17
ATOM     17  O   UNL     1       8.053   4.128  17.125  0.00  0.00    +0.000 OA
ATOM     18  H   UNL     1       7.854   3.612  17.917  0.00  0.00    +0.000 HD
ENDBRANCH  15  17
ENDBRANCH  14  15
ENDBRANCH   5  14
TORSDOF 6
ENDMDL
MODEL 2
REMARK VINA RESULT:      -6.5      0.731      1.091
REMARK  Name = 
REMARK  8 active torsions:
REMARK  status: ('A' for Active; 'I' for Inactive)
REMARK    1  A    between atoms: C_1  and  C_2
REMARK    2  A    between atoms: C_2  and  C_3
REMARK    3  A    between atoms: C_2  and  C_4
REMARK    4  A    between atoms: C_8  and  C_9
REMARK    5  A    between atoms: C_8  and  C_11
REMARK    6  A    between atoms: C_9  and  N_10
REMARK    7  A    between atoms: C_11  and  C_12
REMARK    8  A    between atoms: C_12  and  O_14
REMARK                            x       y       z     vdW  Elec       q    Type
REMARK                         _______ _______ _______ _____ _____    ______ ____
ROOT
ATOM      1  C   UNL     1       2.160   4.210  18.015  0.00  0.00    +0.000 C 
ATOM      2  C   UNL     1       2.087   5.759  18.005  0.00  0.00    +0.000 C 
ATOM      3  C   UNL     1       3.387   6.408  18.501  0.00  0.00    +0.000 C 
ATOM      4  C   UNL     1       4.551   6.013  17.573  0.00  0.00    +0.000 C 
ATOM      5  C   UNL     1       4.792   4.475  17.525  0.00  0.00    +0.000 C 
ATOM      6  C   UNL     1       3.415   3.789  17.176  0.00  0.00    +0.000 C 
ENDROOT
BRANCH   1   8
ATOM      7  C   UNL     1       0.904   4.172  20.279  0.00  0.00    +0.000 C 
ATOM      8  C   UNL     1       2.035   3.551  19.434  0.00  0.00    +0.000 C 
ATOM      9  C   UNL     1       1.732   2.042  19.331  0.00  0.00    +0.000 C 
ENDBRANCH   1   8
BRANCH   5  10
ATOM     10  C   UNL     1       5.451   4.023  18.874  0.00  0.00    +0.000 C 
BRANCH  10  11
ATOM     11  N   UNL     1       6.218   5.089  19.519  0.00  0.00    +0.000 NA
ATOM     12  H   UNL     1       5.611   5.918  19.676  0.00  0.00    +0.000 HD
ATOM     13  H   UNL     1       6.981   5.385  18.869  0.00  0.00    +0.000 HD
ENDBRANCH  10  11
ENDBRANCH   5  10
BRANCH   5  14
ATOM     14  C   UNL     1       5.776   4.117  16.356  0.00  0.00    +0.000 C 
BRANCH  14  15
ATOM     15  C   UNL     1       7.130   4.793  16.403  0.00  0.00    +0.000 C 
ATOM     16  O   UNL     1       8.019   4.344  17.108  0.00  0.00    +0.000 OA
BRANCH  15  17
ATOM     17  O   UNL     1       7.357   5.926  15.701  0.00  0.00    +0.000 OA
ATOM     18  H   UNL     1       7.373   6.795  16.120  0.00  0.00    +0.000 HD
ENDBRANCH  15  17
ENDBRANCH  14  15
ENDBRANCH   5  14
TORSDOF 6
ENDMDL
MODEL 3
REMARK VINA RESULT:      -6.4      1.386      1.692
REMARK  Name = 
REMARK  8 active torsions:
REMARK  status: ('A' for Active; 'I' for Inactive)
REMARK    1  A    between atoms: C_1  and  C_2
REMARK    2  A    between atoms: C_2  and  C_3
REMARK    3  A    between atoms: C_2  and  C_4
REMARK    4  A    between atoms: C_8  and  C_9
REMARK    5  A    between atoms: C_8  and  C_11
REMARK    6  A    between atoms: C_9  and  N_10
REMARK    7  A    between atoms: C_11  and  C_12
REMARK    8  A    between atoms: C_12  and  O_14
REMARK                            x       y       z     vdW  Elec       q    Type
REMARK                         _______ _______ _______ _____ _____    ______ ____
ROOT
ATOM      1  C   UNL     1       2.858   3.682  17.490  0.00  0.00    +0.000 C 
ATOM      2  C   UNL     1       1.965   4.934  17.691  0.00  0.00    +0.000 C 
ATOM      3  C   UNL     1       2.588   5.945  18.664  0.00  0.00    +0.000 C 
ATOM      4  C   UNL     1       3.932   6.445  18.103  0.00  0.00    +0.000 C 
ATOM      5  C   UNL     1       4.968   5.299  17.903  0.00  0.00    +0.000 C 
ATOM      6  C   UNL     1       4.273   4.177  17.038  0.00  0.00    +0.000 C 
ENDROOT
BRANCH   1   8
ATOM      7  C   UNL     1       1.414   2.201  19.048  0.00  0.00    +0.000 C 
ATOM      8  C   UNL     1       2.840   2.659  18.681  0.00  0.00    +0.000 C 
ATOM      9  C   UNL     1       3.641   1.385  18.342  0.00  0.00    +0.000 C 
ENDBRANCH   1   8
BRANCH   5  10
ATOM     10  C   UNL     1       5.496   4.842  19.306  0.00  0.00    +0.000 C 
BRANCH  10  11
ATOM     11  N   UNL     1       6.800   5.415  19.639  0.00  0.00    +0.000 NA
ATOM     12  H   UNL     1       7.438   4.671  19.983  0.00  0.00    +0.000 HD
ATOM     13  H   UNL     1       6.670   6.094  20.424  0.00  0.00    +0.000 HD
ENDBRANCH  10  11
ENDBRANCH   5  10
BRANCH   5  14
ATOM     14  C   UNL     1       6.190   5.813  17.064  0.00  0.00    +0.000 C 
BRANCH  14  15
ATOM     15  C   UNL     1       7.072   4.742  16.459  0.00  0.00    +0.000 C 
ATOM     16  O   UNL     1       6.925   4.407  15.295  0.00  0.00    +0.000 OA
BRANCH  15  17
ATOM     17  O   UNL     1       8.003   4.113  17.211  0.00  0.00    +0.000 OA
ATOM     18  H   UNL     1       7.773   3.627  18.013  0.00  0.00    +0.000 HD
ENDBRANCH  15  17
ENDBRANCH  14  15
ENDBRANCH   5  14
TORSDOF 6
ENDMDL
MODEL 4
REMARK VINA RESULT:      -6.3      1.337      1.794
REMARK  Name = 
REMARK  8 active torsions:
REMARK  status: ('A' for Active; 'I' for Inactive)
REMARK    1  A    between atoms: C_1  and  C_2
REMARK    2  A    between atoms: C_2  and  C_3
REMARK    3  A    between atoms: C_2  and  C_4
REMARK    4  A    between atoms: C_8  and  C_9
REMARK    5  A    between atoms: C_8  and  C_11
REMARK    6  A    between atoms: C_9  and  N_10
REMARK    7  A    between atoms: C_11  and  C_12
REMARK    8  A    between atoms: C_12  and  O_14
REMARK                            x       y       z     vdW  Elec       q    Type
REMARK                         _______ _______ _______ _____ _____    ______ ____
ROOT
ATOM      1  C   UNL     1       2.783   3.625  17.572  0.00  0.00    +0.000 C 
ATOM      2  C   UNL     1       1.759   4.763  17.820  0.00  0.00    +0.000 C 
ATOM      3  C   UNL     1       2.369   5.937  18.598  0.00  0.00    +0.000 C 
ATOM      4  C   UNL     1       3.526   6.551  17.788  0.00  0.00    +0.000 C 
ATOM      5  C   UNL     1       4.674   5.536  17.509  0.00  0.00    +0.000 C 
ATOM      6  C   UNL     1       4.027   4.254  16.857  0.00  0.00    +0.000 C 
ENDROOT
BRANCH   1   8
ATOM      7  C   UNL     1       1.835   2.420  19.659  0.00  0.00    +0.000 C 
ATOM      8  C   UNL     1       3.094   2.731  18.824  0.00  0.00    +0.000 C 
ATOM      9  C   UNL     1       3.697   1.372  18.411  0.00  0.00    +0.000 C 
ENDBRANCH   1   8
BRANCH   5  10
ATOM     10  C   UNL     1       5.470   5.292  18.838  0.00  0.00    +0.000 C 
BRANCH  10  11
ATOM     11  N   UNL     1       6.243   4.051  18.820  0.00  0.00    +0.000 NA
ATOM     12  H   UNL     1       6.442   3.742  19.791  0.00  0.00    +0.000 HD
ATOM     13  H   UNL     1       7.165   4.244  18.365  0.00  0.00    +0.000 HD
ENDBRANCH  10  11
ENDBRANCH   5  10
BRANCH   5  14
ATOM     14  C   UNL     1       5.668   6.122  16.445  0.00  0.00    +0.000 C 
BRANCH  14  15
ATOM     15  C   UNL     1       6.480   5.104  15.671  0.00  0.00    +0.000 C 
ATOM     16  O   UNL     1       7.485   4.616  16.161  0.00  0.00    +0.000 OA
BRANCH  15  17
ATOM     17  O   UNL     1       6.127   4.758  14.413  0.00  0.00    +0.000 OA
ATOM     18  H   UNL     1       6.627   4.111  13.899  0.00  0.00    +0.000 HD
ENDBRANCH  15  17
ENDBRANCH  14  15
ENDBRANCH   5  14
TORSDOF 6
ENDMDL
MODEL 5
REMARK VINA RESULT:      -6.3      1.658      2.572
REMARK  Name = 
REMARK  8 active torsions:
REMARK  status: ('A' for Active; 'I' for Inactive)
REMARK    1  A    between atoms: C_1  and  C_2
REMARK    2  A    between atoms: C_2  and  C_3
REMARK    3  A    between atoms: C_2  and  C_4
REMARK    4  A    between atoms: C_8  and  C_9
REMARK    5  A    between atoms: C_8  and  C_11
REMARK    6  A    between atoms: C_9  and  N_10
REMARK    7  A    between atoms: C_11  and  C_12
REMARK    8  A    between atoms: C_12  and  O_14
REMARK                            x       y       z     vdW  Elec       q    Type
REMARK                         _______ _______ _______ _____ _____    ______ ____
ROOT
ATOM      1  C   UNL     1       3.334   2.621  19.394  0.00  0.00    +0.000 C 
ATOM      2  C   UNL     1       3.102   2.194  17.921  0.00  0.00    +0.000 C 
ATOM      3  C   UNL     1       3.145   3.386  16.954  0.00  0.00    +0.000 C 
ATOM      4  C   UNL     1       4.534   4.049  17.010  0.00  0.00    +0.000 C 
ATOM      5  C   UNL     1       4.890   4.591  18.426  0.00  0.00    +0.000 C 
ATOM      6  C   UNL     1       4.687   3.409  19.451  0.00  0.00    +0.000 C 
ENDROOT
BRANCH   1   8
ATOM      7  C   UNL     1       0.756   2.815  19.536  0.00  0.00    +0.000 C 
ATOM      8  C   UNL     1       2.108   3.319  20.081  0.00  0.00    +0.000 C 
ATOM      9  C   UNL     1       2.094   3.064  21.603  0.00  0.00    +0.000 C 
ENDBRANCH   1   8
BRANCH   5  10
ATOM     10  C   UNL     1       4.043   5.881  18.703  0.00  0.00    +0.000 C 
BRANCH  10  11
ATOM     11  N   UNL     1       4.024   6.805  17.569  0.00  0.00    +0.000 NA
ATOM     12  H   UNL     1       3.070   7.196  17.446  0.00  0.00    +0.000 HD
ATOM     13  H   UNL     1       4.249   6.266  16.702  0.00  0.00    +0.000 HD
ENDBRANCH  10  11
ENDBRANCH   5  10
BRANCH   5  14
ATOM     14  C   UNL     1       6.409   4.980  18.491  0.00  0.00    +0.000 C 
BRANCH  14  15
ATOM     15  C   UNL     1       7.091   5.200  17.157  0.00  0.00    +0.000 C 
ATOM     16  O   UNL     1       7.899   4.389  16.737  0.00  0.00    +0.000 OA
BRANCH  15  17
ATOM     17  O   UNL     1       6.846   6.318  16.437  0.00  0.00    +0.000 OA
ATOM     18  H   UNL     1       6.260   7.015  16.756  0.00  0.00    +0.000 HD
ENDBRANCH  15  17
ENDBRANCH  14  15
ENDBRANCH   5  14
TORSDOF 6
ENDMDL
MODEL 6
REMARK VINA RESULT:      -6.2      1.904      2.867
REMARK  Name = 
REMARK  8 active torsions:
REMARK  status: ('A' for Active; 'I' for Inactive)
REMARK    1  A    between atoms: C_1  and  C_2
REMARK    2  A    between atoms: C_2  and  C_3
REMARK    3  A    between atoms: C_2  and  C_4
REMARK    4  A    between atoms: C_8  and  C_9
REMARK    5  A    between atoms: C_8  and  C_11
REMARK    6  A    between atoms: C_9  and  N_10
REMARK    7  A    between atoms: C_11  and  C_12
REMARK    8  A    between atoms: C_12  and  O_14
REMARK                            x       y       z     vdW  Elec       q    Type
REMARK                         _______ _______ _______ _____ _____    ______ ____
ROOT
ATOM      1  C   UNL     1       3.159   2.805  19.565  0.00  0.00    +0.000 C 
ATOM      2  C   UNL     1       3.132   2.158  18.156  0.00  0.00    +0.000 C 
ATOM      3  C   UNL     1       2.860   3.185  17.047  0.00  0.00    +0.000 C 
ATOM      4  C   UNL     1       3.982   4.240  17.030  0.00  0.00    +0.000 C 
ATOM      5  C   UNL     1       4.094   5.026  18.370  0.00  0.00    +0.000 C 
ATOM      6  C   UNL     1       4.209   3.967  19.534  0.00  0.00    +0.000 C 
ENDROOT
BRANCH   1   8
ATOM      7  C   UNL     1       0.591   2.562  19.336  0.00  0.00    +0.000 C 
ATOM      8  C   UNL     1       1.749   3.174  20.150  0.00  0.00    +0.000 C 
ATOM      9  C   UNL     1       1.589   2.665  21.598  0.00  0.00    +0.000 C 
ENDBRANCH   1   8
BRANCH   5  10
ATOM     10  C   UNL     1       2.888   6.021  18.476  0.00  0.00    +0.000 C 
BRANCH  10  11
ATOM     11  N   UNL     1       2.726   6.579  19.819  0.00  0.00    +0.000 NA
ATOM     12  H   UNL     1       2.696   5.814  20.520  0.00  0.00    +0.000 HD
ATOM     13  H   UNL     1       1.804   7.071  19.862  0.00  0.00    +0.000 HD
ENDBRANCH  10  11
ENDBRANCH   5  10
BRANCH   5  14
ATOM     14  C   UNL     1       5.422   5.862  18.398  0.00  0.00    +0.000 C 
BRANCH  14  15
ATOM     15  C   UNL     1       6.657   5.122  18.868  0.00  0.00    +0.000 C 
ATOM     16  O   UNL     1       7.150   5.374  19.955  0.00  0.00    +0.000 OA
BRANCH  15  17
ATOM     17  O   UNL     1       7.254   4.207  18.071  0.00  0.00    +0.000 OA
ATOM     18  H   UNL     1       7.653   4.445  17.225  0.00  0.00    +0.000 HD
ENDBRANCH  15  17
ENDBRANCH  14  15
ENDBRANCH   5  14
TORSDOF 6
ENDMDL
MODEL 7
REMARK VINA RESULT:      -6.2      0.782      1.110
REMARK  Name = 
REMARK  8 active torsions:
REMARK  status: ('A' for Active; 'I' for Inactive)
REMARK    1  A    between atoms: C_1  and  C_2
REMARK    2  A    between atoms: C_2  and  C_3
REMARK    3  A    between atoms: C_2  and  C_4
REMARK    4  A    between atoms: C_8  and  C_9
REMARK    5  A    between atoms: C_8  and  C_11
REMARK    6  A    between atoms: C_9  and  N_10
REMARK    7  A    between atoms: C_11  and  C_12
REMARK    8  A    between atoms: C_12  and  O_14
REMARK                            x       y       z     vdW  Elec       q    Type
REMARK                         _______ _______ _______ _____ _____    ______ ____
ROOT
ATOM      1  C   UNL     1       2.059   4.255  17.895  0.00  0.00    +0.000 C 
ATOM      2  C   UNL     1       1.955   5.800  17.985  0.00  0.00    +0.000 C 
ATOM      3  C   UNL     1       3.167   6.425  18.691  0.00  0.00    +0.000 C 
ATOM      4  C   UNL     1       4.449   6.112  17.897  0.00  0.00    +0.000 C 
ATOM      5  C   UNL     1       4.726   4.585  17.773  0.00  0.00    +0.000 C 
ATOM      6  C   UNL     1       3.420   3.910  17.200  0.00  0.00    +0.000 C 
ENDROOT
BRANCH   1   8
ATOM      7  C   UNL     1       0.946   4.339  20.231  0.00  0.00    +0.000 C 
ATOM      8  C   UNL     1       1.766   3.493  19.236  0.00  0.00    +0.000 C 
ATOM      9  C   UNL     1       0.960   2.201  18.986  0.00  0.00    +0.000 C 
ENDBRANCH   1   8
BRANCH   5  10
ATOM     10  C   UNL     1       5.215   4.043  19.160  0.00  0.00    +0.000 C 
BRANCH  10  11
ATOM     11  N   UNL     1       5.050   2.597  19.298  0.00  0.00    +0.000 NA
ATOM     12  H   UNL     1       4.751   2.363  20.265  0.00  0.00    +0.000 HD
ATOM     13  H   UNL     1       5.980   2.144  19.147  0.00  0.00    +0.000 HD
ENDBRANCH  10  11
ENDBRANCH   5  10
BRANCH   5  14
ATOM     14  C   UNL     1       5.860   4.324  16.719  0.00  0.00    +0.000 C 
BRANCH  14  15
ATOM     15  C   UNL     1       6.365   5.545  15.979  0.00  0.00    +0.000 C 
ATOM     16  O   UNL     1       7.401   6.089  16.322  0.00  0.00    +0.000 OA
BRANCH  15  17
ATOM     17  O   UNL     1       5.654   6.072  14.957  0.00  0.00    +0.000 OA
ATOM     18  H   UNL     1       4.693   5.995  14.908  0.00  0.00    +0.000 HD
ENDBRANCH  15  17
ENDBRANCH  14  15
ENDBRANCH   5  14
TORSDOF 6
ENDMDL
MODEL 8
REMARK VINA RESULT:      -6.2      1.308      1.464
REMARK  Name = 
REMARK  8 active torsions:
REMARK  status: ('A' for Active; 'I' for Inactive)
REMARK    1  A    between atoms: C_1  and  C_2
REMARK    2  A    between atoms: C_2  and  C_3
REMARK    3  A    between atoms: C_2  and  C_4
REMARK    4  A    between atoms: C_8  and  C_9
REMARK    5  A    between atoms: C_8  and  C_11
REMARK    6  A    between atoms: C_9  and  N_10
REMARK    7  A    between atoms: C_11  and  C_12
REMARK    8  A    between atoms: C_12  and  O_14
REMARK                            x       y       z     vdW  Elec       q    Type
REMARK                         _______ _______ _______ _____ _____    ______ ____
ROOT
ATOM      1  C   UNL     1       2.601   4.634  18.413  0.00  0.00    +0.000 C 
ATOM      2  C   UNL     1       2.441   6.067  17.841  0.00  0.00    +0.000 C 
ATOM      3  C   UNL     1       3.783   6.806  17.735  0.00  0.00    +0.000 C 
ATOM      4  C   UNL     1       4.719   6.048  16.777  0.00  0.00    +0.000 C 
ATOM      5  C   UNL     1       5.028   4.597  17.253  0.00  0.00    +0.000 C 
ATOM      6  C   UNL     1       3.648   3.882  17.522  0.00  0.00    +0.000 C 
ENDROOT
BRANCH   1   8
ATOM      7  C   UNL     1       1.798   5.360  20.765  0.00  0.00    +0.000 C 
ATOM      8  C   UNL     1       2.847   4.564  19.962  0.00  0.00    +0.000 C 
ATOM      9  C   UNL     1       2.788   3.111  20.477  0.00  0.00    +0.000 C 
ENDBRANCH   1   8
BRANCH   5  10
ATOM     10  C   UNL     1       6.007   4.663  18.476  0.00  0.00    +0.000 C 
BRANCH  10  11
ATOM     11  N   UNL     1       7.387   4.337  18.119  0.00  0.00    +0.000 NA
ATOM     12  H   UNL     1       7.966   4.255  18.977  0.00  0.00    +0.000 HD
ATOM     13  H   UNL     1       7.779   5.129  17.560  0.00  0.00    +0.000 HD
ENDBRANCH  10  11
ENDBRANCH   5  10
BRANCH   5  14
ATOM     14  C   UNL     1       5.731   3.788  16.106  0.00  0.00    +0.000 C 
BRANCH  14  15
ATOM     15  C   UNL     1       6.302   4.613  14.972  0.00  0.00    +0.000 C 
ATOM     16  O   UNL     1       5.755   4.625  13.882  0.00  0.00    +0.000 OA
BRANCH  15  17
ATOM     17  O   UNL     1       7.448   5.311  15.139  0.00  0.00    +0.000 OA
ATOM     18  H   UNL     1       8.304   4.876  15.240  0.00  0.00    +0.000 HD
ENDBRANCH  15  17
ENDBRANCH  14  15
ENDBRANCH   5  14
TORSDOF 6
ENDMDL
MODEL 9
REMARK VINA RESULT:      -6.1      1.568      2.005
REMARK  Name = 
REMARK  8 active torsions:
REMARK  status: ('A' for Active; 'I' for Inactive)
REMARK    1  A    between atoms: C_1  and  C_2
REMARK    2  A    between atoms: C_2  and  C_3
REMARK    3  A    between atoms: C_2  and  C_4
REMARK    4  A    between atoms: C_8  and  C_9
REMARK    5  A    between atoms: C_8  and  C_11
REMARK    6  A    between atoms: C_9  and  N_10
REMARK    7  A    between atoms: C_11  and  C_12
REMARK    8  A    between atoms: C_12  and  O_14
REMARK                            x       y       z     vdW  Elec       q    Type
REMARK                         _______ _______ _______ _____ _____    ______ ____
ROOT
ATOM      1  C   UNL     1       2.745   3.177  18.963  0.00  0.00    +0.000 C 
ATOM      2  C   UNL     1       1.745   4.352  18.813  0.00  0.00    +0.000 C 
ATOM      3  C   UNL     1       2.452   5.711  18.710  0.00  0.00    +0.000 C 
ATOM      4  C   UNL     1       3.354   5.733  17.462  0.00  0.00    +0.000 C 
ATOM      5  C   UNL     1       4.461   4.638  17.495  0.00  0.00    +0.000 C 
ATOM      6  C   UNL     1       3.752   3.254  17.767  0.00  0.00    +0.000 C 
ENDROOT
BRANCH   1   8
ATOM      7  C   UNL     1       2.353   2.665  21.471  0.00  0.00    +0.000 C 
ATOM      8  C   UNL     1       3.387   3.034  20.389  0.00  0.00    +0.000 C 
ATOM      9  C   UNL     1       4.466   1.931  20.413  0.00  0.00    +0.000 C 
ENDBRANCH   1   8
BRANCH   5  10
ATOM     10  C   UNL     1       5.555   5.054  18.538  0.00  0.00    +0.000 C 
BRANCH  10  11
ATOM     11  N   UNL     1       6.710   4.157  18.542  0.00  0.00    +0.000 NA
ATOM     12  H   UNL     1       7.179   4.186  19.468  0.00  0.00    +0.000 HD
ATOM     13  H   UNL     1       7.399   4.504  17.837  0.00  0.00    +0.000 HD
ENDBRANCH  10  11
ENDBRANCH   5  10
BRANCH   5  14
ATOM     14  C   UNL     1       5.147   4.517  16.089  0.00  0.00    +0.000 C 
BRANCH  14  15
ATOM     15  C   UNL     1       5.973   5.710  15.654  0.00  0.00    +0.000 C 
ATOM     16  O   UNL     1       7.190   5.673  15.720  0.00  0.00    +0.000 OA
BRANCH  15  17
ATOM     17  O   UNL     1       5.372   6.843  15.228  0.00  0.00    +0.000 OA
ATOM     18  H   UNL     1       5.239   7.034  14.291  0.00  0.00    +0.000 HD
ENDBRANCH  15  17
ENDBRANCH  14  15
ENDBRANCH   5  14
TORSDOF 6
ENDMDL
