MODEL 1
REMARK VINA RESULT:      -7.1      0.000      0.000
REMARK  Name = 
REMARK  3 active torsions:
REMARK  status: ('A' for Active; 'I' for Inactive)
REMARK    1  A    between atoms: N_1  and  C_2
REMARK    2  A    between atoms: C_11  and  C_12
REMARK    3  A    between atoms: C_16  and  O_17
REMARK                            x       y       z     vdW  Elec       q    Type
REMARK                         _______ _______ _______ _____ _____    ______ ____
ROOT
ATOM      1  C   UNL     1       0.023   9.873  22.206  0.00  0.00    +0.000 A 
ATOM      2  C   UNL     1      -0.738  11.050  22.280  0.00  0.00    +0.000 A 
ATOM      3  C   UNL     1      -1.055  11.807  21.134  0.00  0.00    +0.000 A 
ATOM      4  C   UNL     1      -0.579  11.429  19.881  0.00  0.00    +0.000 A 
ATOM      5  C   UNL     1       0.208  10.293  19.821  0.00  0.00    +0.000 A 
ATOM      6  C   UNL     1       0.514   9.531  20.950  0.00  0.00    +0.000 A 
ATOM      7  C   UNL     1       1.352   8.376  20.562  0.00  0.00    +0.000 C 
ATOM      8  O   UNL     1       1.736   7.487  21.293  0.00  0.00    +0.000 OA
ATOM      9  C   UNL     1       1.563   8.521  19.096  0.00  0.00    +0.000 C 
ATOM     10  C   UNL     1       2.245   7.763  18.228  0.00  0.00    +0.000 C 
ATOM     11  C   UNL     1       0.839   9.729  18.630  0.00  0.00    +0.000 C 
ATOM     12  O   UNL     1       0.764  10.165  17.501  0.00  0.00    +0.000 OA
ENDROOT
BRANCH  10  13
ATOM     13  C   UNL     1       2.971   6.536  18.545  0.00  0.00    +0.000 A 
ATOM     14  C   UNL     1       2.273   5.334  18.692  0.00  0.00    +0.000 A 
ATOM     15  C   UNL     1       2.970   4.149  18.932  0.00  0.00    +0.000 A 
ATOM     16 BR   UNL     1       1.990   2.535  19.115  0.00  0.00    +0.000 Br
ATOM     17  C   UNL     1       4.366   4.154  19.024  0.00  0.00    +0.000 A 
ATOM     18  C   UNL     1       5.060   5.357  18.888  0.00  0.00    +0.000 A 
ATOM     19 BR   UNL     1       6.953   5.428  19.005  0.00  0.00    +0.000 Br
ATOM     20  C   UNL     1       4.367   6.548  18.648  0.00  0.00    +0.000 A 
BRANCH  17  21
ATOM     21  O   UNL     1       5.060   2.990  19.233  0.00  0.00    +0.000 OA
ATOM     22  H   UNL     1       5.028   2.789  20.185  0.00  0.00    +0.000 HD
ENDBRANCH  17  21
ENDBRANCH  10  13
BRANCH   1  23
ATOM     23  N   UNL     1       0.451   9.248  23.379  0.00  0.00    +0.000 N 
ATOM     24  H   UNL     1       0.335   9.789  24.231  0.00  0.00    +0.000 HD
ATOM     25  H   UNL     1       0.134   8.279  23.476  0.00  0.00    +0.000 HD
ENDBRANCH   1  23
TORSDOF 3
ENDMDL
MODEL 2
REMARK VINA RESULT:      -7.0      1.230      1.438
REMARK  Name = 
REMARK  3 active torsions:
REMARK  status: ('A' for Active; 'I' for Inactive)
REMARK    1  A    between atoms: N_1  and  C_2
REMARK    2  A    between atoms: C_11  and  C_12
REMARK    3  A    between atoms: C_16  and  O_17
REMARK                            x       y       z     vdW  Elec       q    Type
REMARK                         _______ _______ _______ _____ _____    ______ ____
ROOT
ATOM      1  C   UNL     1      -0.378  10.031  22.623  0.00  0.00    +0.000 A 
ATOM      2  C   UNL     1      -1.176  11.107  23.040  0.00  0.00    +0.000 A 
ATOM      3  C   UNL     1      -1.654  12.077  22.134  0.00  0.00    +0.000 A 
ATOM      4  C   UNL     1      -1.307  12.019  20.787  0.00  0.00    +0.000 A 
ATOM      5  C   UNL     1      -0.484  10.981  20.390  0.00  0.00    +0.000 A 
ATOM      6  C   UNL     1      -0.018  10.010  21.280  0.00  0.00    +0.000 A 
ATOM      7  C   UNL     1       0.820   9.030  20.556  0.00  0.00    +0.000 C 
ATOM      8  O   UNL     1       1.323   8.029  21.022  0.00  0.00    +0.000 OA
ATOM      9  C   UNL     1       0.857   9.511  19.148  0.00  0.00    +0.000 C 
ATOM     10  C   UNL     1       1.468   9.013  18.066  0.00  0.00    +0.000 C 
ATOM     11  C   UNL     1       0.033  10.740  19.045  0.00  0.00    +0.000 C 
ATOM     12  O   UNL     1      -0.189  11.410  18.059  0.00  0.00    +0.000 OA
ENDROOT
BRANCH  10  13
ATOM     13  C   UNL     1       2.279   7.799  18.020  0.00  0.00    +0.000 A 
ATOM     14  C   UNL     1       1.674   6.553  18.209  0.00  0.00    +0.000 A 
ATOM     15  C   UNL     1       2.434   5.386  18.103  0.00  0.00    +0.000 A 
ATOM     16 BR   UNL     1       1.578   3.713  18.355  0.00  0.00    +0.000 Br
ATOM     17  C   UNL     1       3.799   5.455  17.805  0.00  0.00    +0.000 A 
ATOM     18  C   UNL     1       4.403   6.701  17.628  0.00  0.00    +0.000 A 
ATOM     19 BR   UNL     1       6.250   6.859  17.224  0.00  0.00    +0.000 Br
ATOM     20  C   UNL     1       3.646   7.872  17.734  0.00  0.00    +0.000 A 
BRANCH  17  21
ATOM     21  O   UNL     1       4.547   4.314  17.672  0.00  0.00    +0.000 OA
ATOM     22  H   UNL     1       4.792   4.224  16.735  0.00  0.00    +0.000 HD
ENDBRANCH  17  21
ENDBRANCH  10  13
BRANCH   1  23
ATOM     23  N   UNL     1       0.207   9.192  23.574  0.00  0.00    +0.000 N 
ATOM     24  H   UNL     1       0.132   8.197  23.385  0.00  0.00    +0.000 HD
ATOM     25  H   UNL     1       1.150   9.474  23.858  0.00  0.00    +0.000 HD
ENDBRANCH   1  23
TORSDOF 3
ENDMDL
MODEL 3
REMARK VINA RESULT:      -7.0      0.130      2.020
REMARK  Name = 
REMARK  3 active torsions:
REMARK  status: ('A' for Active; 'I' for Inactive)
REMARK    1  A    between atoms: N_1  and  C_2
REMARK    2  A    between atoms: C_11  and  C_12
REMARK    3  A    between atoms: C_16  and  O_17
REMARK                            x       y       z     vdW  Elec       q    Type
REMARK                         _______ _______ _______ _____ _____    ______ ____
ROOT
ATOM      1  C   UNL     1       0.179   9.812  22.205  0.00  0.00    +0.000 A 
ATOM      2  C   UNL     1      -0.570  10.991  22.337  0.00  0.00    +0.000 A 
ATOM      3  C   UNL     1      -0.928  11.776  21.221  0.00  0.00    +0.000 A 
ATOM      4  C   UNL     1      -0.506  11.424  19.942  0.00  0.00    +0.000 A 
ATOM      5  C   UNL     1       0.270  10.284  19.824  0.00  0.00    +0.000 A 
ATOM      6  C   UNL     1       0.616   9.496  20.923  0.00  0.00    +0.000 A 
ATOM      7  C   UNL     1       1.430   8.344  20.475  0.00  0.00    +0.000 C 
ATOM      8  O   UNL     1       1.838   7.437  21.170  0.00  0.00    +0.000 OA
ATOM      9  C   UNL     1       1.583   8.522  19.005  0.00  0.00    +0.000 C 
ATOM     10  C   UNL     1       2.223   7.780  18.094  0.00  0.00    +0.000 C 
ATOM     11  C   UNL     1       0.849   9.744  18.597  0.00  0.00    +0.000 C 
ATOM     12  O   UNL     1       0.731  10.207  17.481  0.00  0.00    +0.000 OA
ENDROOT
BRANCH  10  13
ATOM     13  C   UNL     1       2.954   6.542  18.354  0.00  0.00    +0.000 A 
ATOM     14  C   UNL     1       4.345   6.574  18.496  0.00  0.00    +0.000 A 
ATOM     15  C   UNL     1       5.040   5.403  18.807  0.00  0.00    +0.000 A 
ATOM     16 BR   UNL     1       6.924   5.486  19.004  0.00  0.00    +0.000 Br
ATOM     17  C   UNL     1       4.354   4.197  18.981  0.00  0.00    +0.000 A 
ATOM     18  C   UNL     1       2.967   4.166  18.826  0.00  0.00    +0.000 A 
ATOM     19 BR   UNL     1       1.981   2.560  19.047  0.00  0.00    +0.000 Br
ATOM     20  C   UNL     1       2.266   5.335  18.515  0.00  0.00    +0.000 A 
BRANCH  17  21
ATOM     21  O   UNL     1       5.025   3.049  19.313  0.00  0.00    +0.000 OA
ATOM     22  H   UNL     1       5.576   3.239  20.093  0.00  0.00    +0.000 HD
ENDBRANCH  17  21
ENDBRANCH  10  13
BRANCH   1  23
ATOM     23  N   UNL     1       0.650   9.158  23.346  0.00  0.00    +0.000 N 
ATOM     24  H   UNL     1       0.780   8.156  23.253  0.00  0.00    +0.000 HD
ATOM     25  H   UNL     1       1.442   9.624  23.798  0.00  0.00    +0.000 HD
ENDBRANCH   1  23
TORSDOF 3
ENDMDL
MODEL 4
REMARK VINA RESULT:      -6.8      2.017      3.450
REMARK  Name = 
REMARK  3 active torsions:
REMARK  status: ('A' for Active; 'I' for Inactive)
REMARK    1  A    between atoms: N_1  and  C_2
REMARK    2  A    between atoms: C_11  and  C_12
REMARK    3  A    between atoms: C_16  and  O_17
REMARK                            x       y       z     vdW  Elec       q    Type
REMARK                         _______ _______ _______ _____ _____    ______ ____
ROOT
ATOM      1  C   UNL     1      -0.621  11.841  19.197  0.00  0.00    +0.000 A 
ATOM      2  C   UNL     1      -1.144  12.969  19.847  0.00  0.00    +0.000 A 
ATOM      3  C   UNL     1      -1.053  13.133  21.245  0.00  0.00    +0.000 A 
ATOM      4  C   UNL     1      -0.473  12.146  22.038  0.00  0.00    +0.000 A 
ATOM      5  C   UNL     1       0.000  11.017  21.395  0.00  0.00    +0.000 A 
ATOM      6  C   UNL     1      -0.074  10.855  20.010  0.00  0.00    +0.000 A 
ATOM      7  C   UNL     1       0.528   9.560  19.625  0.00  0.00    +0.000 C 
ATOM      8  O   UNL     1       0.681   9.143  18.496  0.00  0.00    +0.000 OA
ATOM      9  C   UNL     1       0.944   8.925  20.906  0.00  0.00    +0.000 C 
ATOM     10  C   UNL     1       1.537   7.751  21.152  0.00  0.00    +0.000 C 
ATOM     11  C   UNL     1       0.613   9.847  22.020  0.00  0.00    +0.000 C 
ATOM     12  O   UNL     1       0.812   9.686  23.206  0.00  0.00    +0.000 OA
ENDROOT
BRANCH  10  13
ATOM     13  C   UNL     1       1.945   6.769  20.151  0.00  0.00    +0.000 A 
ATOM     14  C   UNL     1       2.911   7.109  19.198  0.00  0.00    +0.000 A 
ATOM     15  C   UNL     1       3.350   6.153  18.280  0.00  0.00    +0.000 A 
ATOM     16 BR   UNL     1       4.668   6.647  17.010  0.00  0.00    +0.000 Br
ATOM     17  C   UNL     1       2.833   4.854  18.308  0.00  0.00    +0.000 A 
ATOM     18  C   UNL     1       1.860   4.520  19.253  0.00  0.00    +0.000 A 
ATOM     19 BR   UNL     1       1.120   2.775  19.339  0.00  0.00    +0.000 Br
ATOM     20  C   UNL     1       1.417   5.473  20.175  0.00  0.00    +0.000 A 
BRANCH  17  21
ATOM     21  O   UNL     1       3.278   3.902  17.428  0.00  0.00    +0.000 OA
ATOM     22  H   UNL     1       4.245   3.837  17.520  0.00  0.00    +0.000 HD
ENDBRANCH  17  21
ENDBRANCH  10  13
BRANCH   1  23
ATOM     23  N   UNL     1      -0.878  11.643  17.838  0.00  0.00    +0.000 N 
ATOM     24  H   UNL     1      -1.814  11.321  17.612  0.00  0.00    +0.000 HD
ATOM     25  H   UNL     1      -0.563  12.410  17.237  0.00  0.00    +0.000 HD
ENDBRANCH   1  23
TORSDOF 3
ENDMDL
MODEL 5
REMARK VINA RESULT:      -6.8      3.650      7.044
REMARK  Name = 
REMARK  3 active torsions:
REMARK  status: ('A' for Active; 'I' for Inactive)
REMARK    1  A    between atoms: N_1  and  C_2
REMARK    2  A    between atoms: C_11  and  C_12
REMARK    3  A    between atoms: C_16  and  O_17
REMARK                            x       y       z     vdW  Elec       q    Type
REMARK                         _______ _______ _______ _____ _____    ______ ____
ROOT
ATOM      1  C   UNL     1       2.958   4.484  20.264  0.00  0.00    +0.000 A 
ATOM      2  C   UNL     1       3.810   3.391  20.039  0.00  0.00    +0.000 A 
ATOM      3  C   UNL     1       4.759   3.387  18.996  0.00  0.00    +0.000 A 
ATOM      4  C   UNL     1       4.851   4.464  18.117  0.00  0.00    +0.000 A 
ATOM      5  C   UNL     1       3.978   5.518  18.318  0.00  0.00    +0.000 A 
ATOM      6  C   UNL     1       3.046   5.534  19.357  0.00  0.00    +0.000 A 
ATOM      7  C   UNL     1       2.276   6.796  19.318  0.00  0.00    +0.000 C 
ATOM      8  O   UNL     1       1.434   7.152  20.117  0.00  0.00    +0.000 OA
ATOM      9  C   UNL     1       2.795   7.536  18.136  0.00  0.00    +0.000 C 
ATOM     10  C   UNL     1       2.459   8.727  17.628  0.00  0.00    +0.000 C 
ATOM     11  C   UNL     1       3.870   6.729  17.508  0.00  0.00    +0.000 C 
ATOM     12  O   UNL     1       4.539   7.006  16.534  0.00  0.00    +0.000 OA
ENDROOT
BRANCH  10  13
ATOM     13  C   UNL     1       1.446   9.634  18.164  0.00  0.00    +0.000 A 
ATOM     14  C   UNL     1       1.833  10.705  18.976  0.00  0.00    +0.000 A 
ATOM     15  C   UNL     1       0.876  11.610  19.438  0.00  0.00    +0.000 A 
ATOM     16 BR   UNL     1       1.439  13.056  20.527  0.00  0.00    +0.000 Br
ATOM     17  C   UNL     1      -0.470  11.456  19.091  0.00  0.00    +0.000 A 
ATOM     18  C   UNL     1      -0.856  10.379  18.290  0.00  0.00    +0.000 A 
ATOM     19 BR   UNL     1      -2.667  10.116  17.788  0.00  0.00    +0.000 Br
ATOM     20  C   UNL     1       0.099   9.470  17.825  0.00  0.00    +0.000 A 
BRANCH  17  21
ATOM     21  O   UNL     1      -1.413  12.355  19.518  0.00  0.00    +0.000 OA
ATOM     22  H   UNL     1      -1.301  13.174  19.002  0.00  0.00    +0.000 HD
ENDBRANCH  17  21
ENDBRANCH  10  13
BRANCH   1  23
ATOM     23  N   UNL     1       1.927   4.378  21.200  0.00  0.00    +0.000 N 
ATOM     24  H   UNL     1       0.989   4.508  20.835  0.00  0.00    +0.000 HD
ATOM     25  H   UNL     1       2.005   3.565  21.818  0.00  0.00    +0.000 HD
ENDBRANCH   1  23
TORSDOF 3
ENDMDL
MODEL 6
REMARK VINA RESULT:      -6.8      2.046      2.913
REMARK  Name = 
REMARK  3 active torsions:
REMARK  status: ('A' for Active; 'I' for Inactive)
REMARK    1  A    between atoms: N_1  and  C_2
REMARK    2  A    between atoms: C_11  and  C_12
REMARK    3  A    between atoms: C_16  and  O_17
REMARK                            x       y       z     vdW  Elec       q    Type
REMARK                         _______ _______ _______ _____ _____    ______ ____
ROOT
ATOM      1  C   UNL     1      -0.637  11.785  19.190  0.00  0.00    +0.000 A 
ATOM      2  C   UNL     1      -1.195  12.912  19.813  0.00  0.00    +0.000 A 
ATOM      3  C   UNL     1      -1.145  13.092  21.211  0.00  0.00    +0.000 A 
ATOM      4  C   UNL     1      -0.572  12.122  22.030  0.00  0.00    +0.000 A 
ATOM      5  C   UNL     1      -0.063  10.994  21.413  0.00  0.00    +0.000 A 
ATOM      6  C   UNL     1      -0.097  10.817  20.028  0.00  0.00    +0.000 A 
ATOM      7  C   UNL     1       0.536   9.528  19.674  0.00  0.00    +0.000 C 
ATOM      8  O   UNL     1       0.726   9.102  18.553  0.00  0.00    +0.000 OA
ATOM      9  C   UNL     1       0.927   8.913  20.972  0.00  0.00    +0.000 C 
ATOM     10  C   UNL     1       1.530   7.751  21.247  0.00  0.00    +0.000 C 
ATOM     11  C   UNL     1       0.550   9.841  22.067  0.00  0.00    +0.000 C 
ATOM     12  O   UNL     1       0.719   9.696  23.260  0.00  0.00    +0.000 OA
ENDROOT
BRANCH  10  13
ATOM     13  C   UNL     1       1.982   6.765  20.268  0.00  0.00    +0.000 A 
ATOM     14  C   UNL     1       1.422   5.483  20.265  0.00  0.00    +0.000 A 
ATOM     15  C   UNL     1       1.805   4.559  19.291  0.00  0.00    +0.000 A 
ATOM     16 BR   UNL     1       1.017   2.834  19.312  0.00  0.00    +0.000 Br
ATOM     17  C   UNL     1       2.743   4.907  18.314  0.00  0.00    +0.000 A 
ATOM     18  C   UNL     1       3.309   6.183  18.326  0.00  0.00    +0.000 A 
ATOM     19 BR   UNL     1       4.589   6.712  17.029  0.00  0.00    +0.000 Br
ATOM     20  C   UNL     1       2.929   7.113  19.299  0.00  0.00    +0.000 A 
BRANCH  17  21
ATOM     21  O   UNL     1       3.105   4.014  17.339  0.00  0.00    +0.000 OA
ATOM     22  H   UNL     1       4.029   4.197  17.093  0.00  0.00    +0.000 HD
ENDBRANCH  17  21
ENDBRANCH  10  13
BRANCH   1  23
ATOM     23  N   UNL     1      -0.854  11.569  17.827  0.00  0.00    +0.000 N 
ATOM     24  H   UNL     1      -1.592  12.125  17.407  0.00  0.00    +0.000 HD
ATOM     25  H   UNL     1       0.003  11.553  17.265  0.00  0.00    +0.000 HD
ENDBRANCH   1  23
TORSDOF 3
ENDMDL
MODEL 7
REMARK VINA RESULT:      -6.8      3.617      6.746
REMARK  Name = 
REMARK  3 active torsions:
REMARK  status: ('A' for Active; 'I' for Inactive)
REMARK    1  A    between atoms: N_1  and  C_2
REMARK    2  A    between atoms: C_11  and  C_12
REMARK    3  A    between atoms: C_16  and  O_17
REMARK                            x       y       z     vdW  Elec       q    Type
REMARK                         _______ _______ _______ _____ _____    ______ ____
ROOT
ATOM      1  C   UNL     1       2.933   4.551  20.299  0.00  0.00    +0.000 A 
ATOM      2  C   UNL     1       3.776   3.445  20.106  0.00  0.00    +0.000 A 
ATOM      3  C   UNL     1       4.736   3.411  19.074  0.00  0.00    +0.000 A 
ATOM      4  C   UNL     1       4.849   4.468  18.175  0.00  0.00    +0.000 A 
ATOM      5  C   UNL     1       3.985   5.535  18.344  0.00  0.00    +0.000 A 
ATOM      6  C   UNL     1       3.041   5.581  19.372  0.00  0.00    +0.000 A 
ATOM      7  C   UNL     1       2.285   6.850  19.299  0.00  0.00    +0.000 C 
ATOM      8  O   UNL     1       1.438   7.230  20.081  0.00  0.00    +0.000 OA
ATOM      9  C   UNL     1       2.825   7.561  18.108  0.00  0.00    +0.000 C 
ATOM     10  C   UNL     1       2.506   8.745  17.573  0.00  0.00    +0.000 C 
ATOM     11  C   UNL     1       3.898   6.731  17.509  0.00  0.00    +0.000 C 
ATOM     12  O   UNL     1       4.581   6.981  16.537  0.00  0.00    +0.000 OA
ENDROOT
BRANCH  10  13
ATOM     13  C   UNL     1       1.497   9.673  18.079  0.00  0.00    +0.000 A 
ATOM     14  C   UNL     1       0.152   9.482  17.749  0.00  0.00    +0.000 A 
ATOM     15  C   UNL     1      -0.822  10.329  18.282  0.00  0.00    +0.000 A 
ATOM     16 BR   UNL     1      -2.638  10.034  17.822  0.00  0.00    +0.000 Br
ATOM     17  C   UNL     1      -0.462  11.367  19.148  0.00  0.00    +0.000 A 
ATOM     18  C   UNL     1       0.884  11.562  19.466  0.00  0.00    +0.000 A 
ATOM     19 BR   UNL     1       1.434  12.953  20.632  0.00  0.00    +0.000 Br
ATOM     20  C   UNL     1       1.863  10.717  18.935  0.00  0.00    +0.000 A 
BRANCH  17  21
ATOM     21  O   UNL     1      -1.414  12.186  19.696  0.00  0.00    +0.000 OA
ATOM     22  H   UNL     1      -1.946  12.556  18.969  0.00  0.00    +0.000 HD
ENDBRANCH  17  21
ENDBRANCH  10  13
BRANCH   1  23
ATOM     23  N   UNL     1       1.890   4.474  21.225  0.00  0.00    +0.000 N 
ATOM     24  H   UNL     1       2.172   4.443  22.200  0.00  0.00    +0.000 HD
ATOM     25  H   UNL     1       1.127   5.135  21.051  0.00  0.00    +0.000 HD
ENDBRANCH   1  23
TORSDOF 3
ENDMDL
MODEL 8
REMARK VINA RESULT:      -6.7      3.955      7.299
REMARK  Name = 
REMARK  3 active torsions:
REMARK  status: ('A' for Active; 'I' for Inactive)
REMARK    1  A    between atoms: N_1  and  C_2
REMARK    2  A    between atoms: C_11  and  C_12
REMARK    3  A    between atoms: C_16  and  O_17
REMARK                            x       y       z     vdW  Elec       q    Type
REMARK                         _______ _______ _______ _____ _____    ______ ____
ROOT
ATOM      1  C   UNL     1       4.369   6.167  17.084  0.00  0.00    +0.000 A 
ATOM      2  C   UNL     1       5.003   4.931  17.282  0.00  0.00    +0.000 A 
ATOM      3  C   UNL     1       4.712   4.112  18.393  0.00  0.00    +0.000 A 
ATOM      4  C   UNL     1       3.805   4.532  19.363  0.00  0.00    +0.000 A 
ATOM      5  C   UNL     1       3.216   5.770  19.184  0.00  0.00    +0.000 A 
ATOM      6  C   UNL     1       3.491   6.579  18.080  0.00  0.00    +0.000 A 
ATOM      7  C   UNL     1       2.697   7.825  18.163  0.00  0.00    +0.000 C 
ATOM      8  O   UNL     1       2.655   8.709  17.333  0.00  0.00    +0.000 OA
ATOM      9  C   UNL     1       1.941   7.722  19.441  0.00  0.00    +0.000 C 
ATOM     10  C   UNL     1       1.075   8.563  20.019  0.00  0.00    +0.000 C 
ATOM     11  C   UNL     1       2.268   6.425  20.082  0.00  0.00    +0.000 C 
ATOM     12  O   UNL     1       1.838   5.978  21.125  0.00  0.00    +0.000 OA
ENDROOT
BRANCH  10  13
ATOM     13  C   UNL     1       0.642   9.852  19.483  0.00  0.00    +0.000 A 
ATOM     14  C   UNL     1      -0.500   9.920  18.679  0.00  0.00    +0.000 A 
ATOM     15  C   UNL     1      -0.953  11.158  18.217  0.00  0.00    +0.000 A 
ATOM     16 BR   UNL     1      -2.512  11.213  17.139  0.00  0.00    +0.000 Br
ATOM     17  C   UNL     1      -0.275  12.332  18.557  0.00  0.00    +0.000 A 
ATOM     18  C   UNL     1       0.872  12.260  19.350  0.00  0.00    +0.000 A 
ATOM     19 BR   UNL     1       1.837  13.818  19.842  0.00  0.00    +0.000 Br
ATOM     20  C   UNL     1       1.330  11.023  19.815  0.00  0.00    +0.000 A 
BRANCH  17  21
ATOM     21  O   UNL     1      -0.728  13.553  18.130  0.00  0.00    +0.000 OA
ATOM     22  H   UNL     1      -0.135  14.236  18.491  0.00  0.00    +0.000 HD
ENDBRANCH  17  21
ENDBRANCH  10  13
BRANCH   1  23
ATOM     23  N   UNL     1       4.806   7.015  16.064  0.00  0.00    +0.000 N 
ATOM     24  H   UNL     1       5.453   7.744  16.347  0.00  0.00    +0.000 HD
ATOM     25  H   UNL     1       5.102   6.528  15.213  0.00  0.00    +0.000 HD
ENDBRANCH   1  23
TORSDOF 3
ENDMDL
MODEL 9
REMARK VINA RESULT:      -6.6      3.941      7.512
REMARK  Name = 
REMARK  3 active torsions:
REMARK  status: ('A' for Active; 'I' for Inactive)
REMARK    1  A    between atoms: N_1  and  C_2
REMARK    2  A    between atoms: C_11  and  C_12
REMARK    3  A    between atoms: C_16  and  O_17
REMARK                            x       y       z     vdW  Elec       q    Type
REMARK                         _______ _______ _______ _____ _____    ______ ____
ROOT
ATOM      1  C   UNL     1       4.328   6.257  17.122  0.00  0.00    +0.000 A 
ATOM      2  C   UNL     1       5.007   5.048  17.338  0.00  0.00    +0.000 A 
ATOM      3  C   UNL     1       4.754   4.242  18.467  0.00  0.00    +0.000 A 
ATOM      4  C   UNL     1       3.842   4.649  19.438  0.00  0.00    +0.000 A 
ATOM      5  C   UNL     1       3.210   5.863  19.241  0.00  0.00    +0.000 A 
ATOM      6  C   UNL     1       3.446   6.659  18.118  0.00  0.00    +0.000 A 
ATOM      7  C   UNL     1       2.611   7.878  18.186  0.00  0.00    +0.000 C 
ATOM      8  O   UNL     1       2.530   8.744  17.339  0.00  0.00    +0.000 OA
ATOM      9  C   UNL     1       1.870   7.774  19.472  0.00  0.00    +0.000 C 
ATOM     10  C   UNL     1       0.981   8.597  20.042  0.00  0.00    +0.000 C 
ATOM     11  C   UNL     1       2.247   6.502  20.135  0.00  0.00    +0.000 C 
ATOM     12  O   UNL     1       1.843   6.061  21.190  0.00  0.00    +0.000 OA
ENDROOT
BRANCH  10  13
ATOM     13  C   UNL     1       0.499   9.859  19.486  0.00  0.00    +0.000 A 
ATOM     14  C   UNL     1       1.240  11.030  19.677  0.00  0.00    +0.000 A 
ATOM     15  C   UNL     1       0.814  12.225  19.093  0.00  0.00    +0.000 A 
ATOM     16 BR   UNL     1       1.850  13.790  19.364  0.00  0.00    +0.000 Br
ATOM     17  C   UNL     1      -0.347  12.259  18.315  0.00  0.00    +0.000 A 
ATOM     18  C   UNL     1      -1.091  11.092  18.136  0.00  0.00    +0.000 A 
ATOM     19 BR   UNL     1      -2.676  11.076  17.093  0.00  0.00    +0.000 Br
ATOM     20  C   UNL     1      -0.670   9.892  18.718  0.00  0.00    +0.000 A 
BRANCH  17  21
ATOM     21  O   UNL     1      -0.756  13.423  17.716  0.00  0.00    +0.000 OA
ATOM     22  H   UNL     1       0.034  13.881  17.380  0.00  0.00    +0.000 HD
ENDBRANCH  17  21
ENDBRANCH  10  13
BRANCH   1  23
ATOM     23  N   UNL     1       4.727   7.100  16.082  0.00  0.00    +0.000 N 
ATOM     24  H   UNL     1       5.523   6.780  15.540  0.00  0.00    +0.000 HD
ATOM     25  H   UNL     1       3.956   7.436  15.497  0.00  0.00    +0.000 HD
ENDBRANCH   1  23
TORSDOF 3
ENDMDL
