MODEL 1
REMARK VINA RESULT:      -8.3      0.000      0.000
REMARK  Name = 
REMARK  7 active torsions:
REMARK  status: ('A' for Active; 'I' for Inactive)
REMARK    1  A    between atoms: C_1  and  C_2
REMARK    2  A    between atoms: C_2  and  N_3
REMARK    3  A    between atoms: C_7  and  C_8
REMARK    4  A    between atoms: C_13  and  C_14
REMARK    5  A    between atoms: C_16  and  C_17
REMARK    6  A    between atoms: C_21  and  O_22
REMARK    7  A    between atoms: O_22  and  C_23
REMARK                            x       y       z     vdW  Elec       q    Type
REMARK                         _______ _______ _______ _____ _____    ______ ____
ROOT
ATOM      1  C   UNL     1       2.172   6.283  19.985  0.00  0.00    +0.000 A 
ATOM      2  C   UNL     1       1.523   5.108  20.399  0.00  0.00    +0.000 A 
ATOM      3  C   UNL     1       2.013   3.857  20.044  0.00  0.00    +0.000 A 
ATOM      4  C   UNL     1       3.174   3.762  19.283  0.00  0.00    +0.000 A 
ATOM      5  F   UNL     1       3.608   2.524  19.001  0.00  0.00    +0.000 F 
ATOM      6  C   UNL     1       3.863   4.895  18.808  0.00  0.00    +0.000 A 
ATOM      7  C   UNL     1       3.329   6.145  19.182  0.00  0.00    +0.000 A 
ENDROOT
BRANCH   1  12
ATOM      8  N   UNL     1       1.139  10.713  18.808  0.00  0.00    +0.000 N 
ATOM      9  C   UNL     1       1.687  10.014  17.770  0.00  0.00    +0.000 A 
ATOM     10  N   UNL     1       1.992   8.782  18.122  0.00  0.00    +0.000 NA
ATOM     11  C   UNL     1       1.617   8.677  19.449  0.00  0.00    +0.000 A 
ATOM     12  C   UNL     1       1.665   7.609  20.358  0.00  0.00    +0.000 A 
ATOM     13  C   UNL     1       1.171   7.948  21.620  0.00  0.00    +0.000 A 
ATOM     14  N   UNL     1       0.693   9.168  21.994  0.00  0.00    +0.000 NA
ATOM     15  N   UNL     1       0.651  10.157  21.125  0.00  0.00    +0.000 NA
ATOM     16  C   UNL     1       1.105   9.885  19.893  0.00  0.00    +0.000 A 
BRANCH   8  18
ATOM     17  C   UNL     1      -0.843  12.109  18.442  0.00  0.00    +0.000 C 
ATOM     18  C   UNL     1       0.643  12.067  18.752  0.00  0.00    +0.000 C 
ENDBRANCH   8  18
ENDBRANCH   1  12
BRANCH   6  19
ATOM     19  C   UNL     1       5.048   4.775  17.904  0.00  0.00    +0.000 A 
ATOM     20  C   UNL     1       4.817   4.535  16.528  0.00  0.00    +0.000 A 
ATOM     21  C   UNL     1       5.856   4.367  15.609  0.00  0.00    +0.000 A 
ATOM     22  C   UNL     1       7.173   4.459  16.037  0.00  0.00    +0.000 A 
ATOM     23  C   UNL     1       7.443   4.733  17.376  0.00  0.00    +0.000 A 
ATOM     24  C   UNL     1       6.402   4.908  18.308  0.00  0.00    +0.000 A 
BRANCH  21  25
ATOM     25  C   UNL     1       5.561   4.090  14.236  0.00  0.00    +0.000 C 
ATOM     26  N   UNL     1       5.323   3.861  13.126  0.00  0.00    +0.000 NA
ENDBRANCH  21  25
BRANCH  24  27
ATOM     27  O   UNL     1       6.670   5.170  19.634  0.00  0.00    +0.000 OA
ATOM     28  C   UNL     1       7.991   5.625  19.930  0.00  0.00    +0.000 C 
ENDBRANCH  24  27
ENDBRANCH   6  19
TORSDOF 5
ENDMDL
MODEL 2
REMARK VINA RESULT:      -8.2      1.465      2.432
REMARK  Name = 
REMARK  7 active torsions:
REMARK  status: ('A' for Active; 'I' for Inactive)
REMARK    1  A    between atoms: C_1  and  C_2
REMARK    2  A    between atoms: C_2  and  N_3
REMARK    3  A    between atoms: C_7  and  C_8
REMARK    4  A    between atoms: C_13  and  C_14
REMARK    5  A    between atoms: C_16  and  C_17
REMARK    6  A    between atoms: C_21  and  O_22
REMARK    7  A    between atoms: O_22  and  C_23
REMARK                            x       y       z     vdW  Elec       q    Type
REMARK                         _______ _______ _______ _____ _____    ______ ____
ROOT
ATOM      1  C   UNL     1       2.697   6.781  18.597  0.00  0.00    +0.000 A 
ATOM      2  C   UNL     1       2.290   5.687  19.377  0.00  0.00    +0.000 A 
ATOM      3  C   UNL     1       2.877   4.438  19.218  0.00  0.00    +0.000 A 
ATOM      4  C   UNL     1       3.895   4.268  18.286  0.00  0.00    +0.000 A 
ATOM      5  F   UNL     1       4.439   3.043  18.205  0.00  0.00    +0.000 F 
ATOM      6  C   UNL     1       4.337   5.312  17.449  0.00  0.00    +0.000 A 
ATOM      7  C   UNL     1       3.711   6.561  17.636  0.00  0.00    +0.000 A 
ENDROOT
BRANCH   1  12
ATOM      8  N   UNL     1       0.405   9.895  21.268  0.00  0.00    +0.000 N 
ATOM      9  C   UNL     1       0.603   8.706  21.910  0.00  0.00    +0.000 A 
ATOM     10  N   UNL     1       1.225   7.836  21.141  0.00  0.00    +0.000 NA
ATOM     11  C   UNL     1       1.446   8.497  19.947  0.00  0.00    +0.000 A 
ATOM     12  C   UNL     1       2.086   8.106  18.760  0.00  0.00    +0.000 A 
ATOM     13  C   UNL     1       2.084   9.109  17.787  0.00  0.00    +0.000 A 
ATOM     14  N   UNL     1       1.528  10.346  17.910  0.00  0.00    +0.000 NA
ATOM     15  N   UNL     1       0.937  10.697  19.034  0.00  0.00    +0.000 NA
ATOM     16  C   UNL     1       0.917   9.775  20.008  0.00  0.00    +0.000 A 
BRANCH   8  18
ATOM     17  C   UNL     1      -1.011  10.755  23.075  0.00  0.00    +0.000 C 
ATOM     18  C   UNL     1      -0.195  11.078  21.836  0.00  0.00    +0.000 C 
ENDBRANCH   8  18
ENDBRANCH   1  12
BRANCH   6  19
ATOM     19  C   UNL     1       5.359   5.086  16.381  0.00  0.00    +0.000 A 
ATOM     20  C   UNL     1       4.928   4.539  15.148  0.00  0.00    +0.000 A 
ATOM     21  C   UNL     1       5.810   4.253  14.103  0.00  0.00    +0.000 A 
ATOM     22  C   UNL     1       7.161   4.530  14.250  0.00  0.00    +0.000 A 
ATOM     23  C   UNL     1       7.622   5.104  15.433  0.00  0.00    +0.000 A 
ATOM     24  C   UNL     1       6.739   5.400  16.490  0.00  0.00    +0.000 A 
BRANCH  21  25
ATOM     25  C   UNL     1       5.320   3.667  12.893  0.00  0.00    +0.000 C 
ATOM     26  N   UNL     1       4.929   3.192  11.911  0.00  0.00    +0.000 NA
ENDBRANCH  21  25
BRANCH  24  27
ATOM     27  O   UNL     1       7.196   5.959  17.663  0.00  0.00    +0.000 OA
ATOM     28  C   UNL     1       7.552   7.341  17.604  0.00  0.00    +0.000 C 
ENDBRANCH  24  27
ENDBRANCH   6  19
TORSDOF 5
ENDMDL
MODEL 3
REMARK VINA RESULT:      -8.1      1.222      2.064
REMARK  Name = 
REMARK  7 active torsions:
REMARK  status: ('A' for Active; 'I' for Inactive)
REMARK    1  A    between atoms: C_1  and  C_2
REMARK    2  A    between atoms: C_2  and  N_3
REMARK    3  A    between atoms: C_7  and  C_8
REMARK    4  A    between atoms: C_13  and  C_14
REMARK    5  A    between atoms: C_16  and  C_17
REMARK    6  A    between atoms: C_21  and  O_22
REMARK    7  A    between atoms: O_22  and  C_23
REMARK                            x       y       z     vdW  Elec       q    Type
REMARK                         _______ _______ _______ _____ _____    ______ ____
ROOT
ATOM      1  C   UNL     1       2.234   7.031  19.632  0.00  0.00    +0.000 A 
ATOM      2  C   UNL     1       1.702   6.029  20.459  0.00  0.00    +0.000 A 
ATOM      3  C   UNL     1       2.281   4.767  20.517  0.00  0.00    +0.000 A 
ATOM      4  C   UNL     1       3.416   4.494  19.760  0.00  0.00    +0.000 A 
ATOM      5  F   UNL     1       3.942   3.265  19.886  0.00  0.00    +0.000 F 
ATOM      6  C   UNL     1       3.990   5.439  18.888  0.00  0.00    +0.000 A 
ATOM      7  C   UNL     1       3.367   6.704  18.850  0.00  0.00    +0.000 A 
ENDROOT
BRANCH   1  12
ATOM      8  N   UNL     1       0.144  10.653  21.775  0.00  0.00    +0.000 N 
ATOM      9  C   UNL     1       0.397   9.619  22.631  0.00  0.00    +0.000 A 
ATOM     10  N   UNL     1       0.961   8.603  22.011  0.00  0.00    +0.000 NA
ATOM     11  C   UNL     1       1.085   9.002  20.693  0.00  0.00    +0.000 A 
ATOM     12  C   UNL     1       1.632   8.368  19.566  0.00  0.00    +0.000 A 
ATOM     13  C   UNL     1       1.549   9.149  18.410  0.00  0.00    +0.000 A 
ATOM     14  N   UNL     1       0.999  10.392  18.320  0.00  0.00    +0.000 NA
ATOM     15  N   UNL     1       0.495  10.973  19.389  0.00  0.00    +0.000 NA
ATOM     16  C   UNL     1       0.557  10.271  20.530  0.00  0.00    +0.000 A 
BRANCH   8  18
ATOM     17  C   UNL     1      -1.932  11.923  22.072  0.00  0.00    +0.000 C 
ATOM     18  C   UNL     1      -0.415  11.935  22.132  0.00  0.00    +0.000 C 
ENDBRANCH   8  18
ENDBRANCH   1  12
BRANCH   6  19
ATOM     19  C   UNL     1       5.145   5.096  18.003  0.00  0.00    +0.000 A 
ATOM     20  C   UNL     1       4.886   4.826  16.638  0.00  0.00    +0.000 A 
ATOM     21  C   UNL     1       5.891   4.457  15.740  0.00  0.00    +0.000 A 
ATOM     22  C   UNL     1       7.204   4.368  16.178  0.00  0.00    +0.000 A 
ATOM     23  C   UNL     1       7.508   4.661  17.506  0.00  0.00    +0.000 A 
ATOM     24  C   UNL     1       6.502   5.039  18.416  0.00  0.00    +0.000 A 
BRANCH  21  25
ATOM     25  C   UNL     1       5.562   4.162  14.379  0.00  0.00    +0.000 C 
ATOM     26  N   UNL     1       5.290   3.926  13.277  0.00  0.00    +0.000 NA
ENDBRANCH  21  25
BRANCH  24  27
ATOM     27  O   UNL     1       6.802   5.321  19.731  0.00  0.00    +0.000 OA
ATOM     28  C   UNL     1       8.180   5.554  20.025  0.00  0.00    +0.000 C 
ENDBRANCH  24  27
ENDBRANCH   6  19
TORSDOF 5
ENDMDL
MODEL 4
REMARK VINA RESULT:      -8.0      2.686      4.218
REMARK  Name = 
REMARK  7 active torsions:
REMARK  status: ('A' for Active; 'I' for Inactive)
REMARK    1  A    between atoms: C_1  and  C_2
REMARK    2  A    between atoms: C_2  and  N_3
REMARK    3  A    between atoms: C_7  and  C_8
REMARK    4  A    between atoms: C_13  and  C_14
REMARK    5  A    between atoms: C_16  and  C_17
REMARK    6  A    between atoms: C_21  and  O_22
REMARK    7  A    between atoms: O_22  and  C_23
REMARK                            x       y       z     vdW  Elec       q    Type
REMARK                         _______ _______ _______ _____ _____    ______ ____
ROOT
ATOM      1  C   UNL     1       1.265   9.078  20.028  0.00  0.00    +0.000 A 
ATOM      2  C   UNL     1       1.360   9.755  18.801  0.00  0.00    +0.000 A 
ATOM      3  C   UNL     1       2.029   9.190  17.723  0.00  0.00    +0.000 A 
ATOM      4  C   UNL     1       2.598   7.927  17.848  0.00  0.00    +0.000 A 
ATOM      5  F   UNL     1       3.202   7.428  16.759  0.00  0.00    +0.000 F 
ATOM      6  C   UNL     1       2.566   7.199  19.054  0.00  0.00    +0.000 A 
ATOM      7  C   UNL     1       1.887   7.810  20.127  0.00  0.00    +0.000 A 
ENDROOT
BRANCH   1  12
ATOM      8  N   UNL     1      -1.833  12.169  21.736  0.00  0.00    +0.000 N 
ATOM      9  C   UNL     1      -1.677  12.284  20.384  0.00  0.00    +0.000 A 
ATOM     10  N   UNL     1      -0.789  11.428  19.924  0.00  0.00    +0.000 NA
ATOM     11  C   UNL     1      -0.356  10.720  21.030  0.00  0.00    +0.000 A 
ATOM     12  C   UNL     1       0.557   9.664  21.173  0.00  0.00    +0.000 A 
ATOM     13  C   UNL     1       0.696   9.240  22.497  0.00  0.00    +0.000 A 
ATOM     14  N   UNL     1       0.052   9.763  23.578  0.00  0.00    +0.000 NA
ATOM     15  N   UNL     1      -0.806  10.751  23.424  0.00  0.00    +0.000 NA
ATOM     16  C   UNL     1      -0.985  11.192  22.170  0.00  0.00    +0.000 A 
BRANCH   8  18
ATOM     17  C   UNL     1      -4.200  12.687  22.116  0.00  0.00    +0.000 C 
ATOM     18  C   UNL     1      -2.763  12.915  22.550  0.00  0.00    +0.000 C 
ENDBRANCH   8  18
ENDBRANCH   1  12
BRANCH   6  19
ATOM     19  C   UNL     1       3.273   5.890  19.203  0.00  0.00    +0.000 A 
ATOM     20  C   UNL     1       4.624   5.808  18.787  0.00  0.00    +0.000 A 
ATOM     21  C   UNL     1       5.359   4.621  18.848  0.00  0.00    +0.000 A 
ATOM     22  C   UNL     1       4.768   3.473  19.353  0.00  0.00    +0.000 A 
ATOM     23  C   UNL     1       3.452   3.519  19.808  0.00  0.00    +0.000 A 
ATOM     24  C   UNL     1       2.705   4.712  19.756  0.00  0.00    +0.000 A 
BRANCH  21  25
ATOM     25  C   UNL     1       6.711   4.592  18.379  0.00  0.00    +0.000 C 
ATOM     26  N   UNL     1       7.804   4.570  17.995  0.00  0.00    +0.000 NA
ENDBRANCH  21  25
BRANCH  24  27
ATOM     27  O   UNL     1       1.401   4.756  20.198  0.00  0.00    +0.000 OA
ATOM     28  C   UNL     1       0.717   3.504  20.261  0.00  0.00    +0.000 C 
ENDBRANCH  24  27
ENDBRANCH   6  19
TORSDOF 5
ENDMDL
MODEL 5
REMARK VINA RESULT:      -7.5      2.791      4.238
REMARK  Name = 
REMARK  7 active torsions:
REMARK  status: ('A' for Active; 'I' for Inactive)
REMARK    1  A    between atoms: C_1  and  C_2
REMARK    2  A    between atoms: C_2  and  N_3
REMARK    3  A    between atoms: C_7  and  C_8
REMARK    4  A    between atoms: C_13  and  C_14
REMARK    5  A    between atoms: C_16  and  C_17
REMARK    6  A    between atoms: C_21  and  O_22
REMARK    7  A    between atoms: O_22  and  C_23
REMARK                            x       y       z     vdW  Elec       q    Type
REMARK                         _______ _______ _______ _____ _____    ______ ____
ROOT
ATOM      1  C   UNL     1       1.351   9.230  19.940  0.00  0.00    +0.000 A 
ATOM      2  C   UNL     1       1.640  10.098  18.874  0.00  0.00    +0.000 A 
ATOM      3  C   UNL     1       2.274   9.636  17.727  0.00  0.00    +0.000 A 
ATOM      4  C   UNL     1       2.614   8.291  17.621  0.00  0.00    +0.000 A 
ATOM      5  F   UNL     1       3.197   7.907  16.475  0.00  0.00    +0.000 F 
ATOM      6  C   UNL     1       2.381   7.368  18.659  0.00  0.00    +0.000 A 
ATOM      7  C   UNL     1       1.745   7.877  19.809  0.00  0.00    +0.000 A 
ENDROOT
BRANCH   1  12
ATOM      8  N   UNL     1      -1.898  11.941  21.982  0.00  0.00    +0.000 N 
ATOM      9  C   UNL     1      -1.855  12.113  20.628  0.00  0.00    +0.000 A 
ATOM     10  N   UNL     1      -0.924  11.364  20.073  0.00  0.00    +0.000 NA
ATOM     11  C   UNL     1      -0.342  10.670  21.118  0.00  0.00    +0.000 A 
ATOM     12  C   UNL     1       0.678   9.707  21.154  0.00  0.00    +0.000 A 
ATOM     13  C   UNL     1       0.956   9.259  22.448  0.00  0.00    +0.000 A 
ATOM     14  N   UNL     1       0.347   9.681  23.591  0.00  0.00    +0.000 NA
ATOM     15  N   UNL     1      -0.612  10.582  23.537  0.00  0.00    +0.000 NA
ATOM     16  C   UNL     1      -0.927  11.041  22.317  0.00  0.00    +0.000 A 
BRANCH   8  18
ATOM     17  C   UNL     1      -4.159  12.860  22.213  0.00  0.00    +0.000 C 
ATOM     18  C   UNL     1      -2.832  12.564  22.889  0.00  0.00    +0.000 C 
ENDBRANCH   8  18
ENDBRANCH   1  12
BRANCH   6  19
ATOM     19  C   UNL     1       2.848   5.950  18.571  0.00  0.00    +0.000 A 
ATOM     20  C   UNL     1       1.873   4.924  18.563  0.00  0.00    +0.000 A 
ATOM     21  C   UNL     1       2.208   3.568  18.524  0.00  0.00    +0.000 A 
ATOM     22  C   UNL     1       3.542   3.192  18.468  0.00  0.00    +0.000 A 
ATOM     23  C   UNL     1       4.533   4.171  18.436  0.00  0.00    +0.000 A 
ATOM     24  C   UNL     1       4.204   5.541  18.469  0.00  0.00    +0.000 A 
BRANCH  21  25
ATOM     25  C   UNL     1       1.179   2.574  18.554  0.00  0.00    +0.000 C 
ATOM     26  N   UNL     1       0.345   1.770  18.572  0.00  0.00    +0.000 NA
ENDBRANCH  21  25
BRANCH  24  27
ATOM     27  O   UNL     1       5.184   6.508  18.447  0.00  0.00    +0.000 OA
ATOM     28  C   UNL     1       6.106   6.444  17.359  0.00  0.00    +0.000 C 
ENDBRANCH  24  27
ENDBRANCH   6  19
TORSDOF 5
ENDMDL
MODEL 6
REMARK VINA RESULT:      -7.3      4.000      8.340
REMARK  Name = 
REMARK  7 active torsions:
REMARK  status: ('A' for Active; 'I' for Inactive)
REMARK    1  A    between atoms: C_1  and  C_2
REMARK    2  A    between atoms: C_2  and  N_3
REMARK    3  A    between atoms: C_7  and  C_8
REMARK    4  A    between atoms: C_13  and  C_14
REMARK    5  A    between atoms: C_16  and  C_17
REMARK    6  A    between atoms: C_21  and  O_22
REMARK    7  A    between atoms: O_22  and  C_23
REMARK                            x       y       z     vdW  Elec       q    Type
REMARK                         _______ _______ _______ _____ _____    ______ ____
ROOT
ATOM      1  C   UNL     1       1.939   7.768  19.703  0.00  0.00    +0.000 A 
ATOM      2  C   UNL     1       1.733   7.576  21.079  0.00  0.00    +0.000 A 
ATOM      3  C   UNL     1       1.111   8.549  21.851  0.00  0.00    +0.000 A 
ATOM      4  C   UNL     1       0.667   9.725  21.254  0.00  0.00    +0.000 A 
ATOM      5  F   UNL     1       0.048  10.609  22.052  0.00  0.00    +0.000 F 
ATOM      6  C   UNL     1       0.863   9.999  19.886  0.00  0.00    +0.000 A 
ATOM      7  C   UNL     1       1.506   8.991  19.139  0.00  0.00    +0.000 A 
ENDROOT
BRANCH   1  12
ATOM      8  N   UNL     1       2.379   3.275  18.401  0.00  0.00    +0.000 N 
ATOM      9  C   UNL     1       1.450   3.440  19.389  0.00  0.00    +0.000 A 
ATOM     10  N   UNL     1       1.356   4.701  19.760  0.00  0.00    +0.000 NA
ATOM     11  C   UNL     1       2.261   5.383  18.968  0.00  0.00    +0.000 A 
ATOM     12  C   UNL     1       2.592   6.744  18.878  0.00  0.00    +0.000 A 
ATOM     13  C   UNL     1       3.579   7.001  17.923  0.00  0.00    +0.000 A 
ATOM     14  N   UNL     1       4.200   6.074  17.142  0.00  0.00    +0.000 NA
ATOM     15  N   UNL     1       3.873   4.801  17.237  0.00  0.00    +0.000 NA
ATOM     16  C   UNL     1       2.922   4.498  18.133  0.00  0.00    +0.000 A 
BRANCH   8  18
ATOM     17  C   UNL     1       3.781   1.264  18.456  0.00  0.00    +0.000 C 
ATOM     18  C   UNL     1       2.694   2.036  17.730  0.00  0.00    +0.000 C 
ENDBRANCH   8  18
ENDBRANCH   1  12
BRANCH   6  19
ATOM     19  C   UNL     1       0.475  11.311  19.282  0.00  0.00    +0.000 A 
ATOM     20  C   UNL     1       1.408  12.374  19.337  0.00  0.00    +0.000 A 
ATOM     21  C   UNL     1       1.126  13.648  18.837  0.00  0.00    +0.000 A 
ATOM     22  C   UNL     1      -0.102  13.896  18.241  0.00  0.00    +0.000 A 
ATOM     23  C   UNL     1      -1.034  12.866  18.133  0.00  0.00    +0.000 A 
ATOM     24  C   UNL     1      -0.757  11.577  18.629  0.00  0.00    +0.000 A 
BRANCH  21  25
ATOM     25  C   UNL     1       2.097  14.694  18.953  0.00  0.00    +0.000 C 
ATOM     26  N   UNL     1       2.878  15.543  19.049  0.00  0.00    +0.000 NA
ENDBRANCH  21  25
BRANCH  24  27
ATOM     27  O   UNL     1      -1.682  10.562  18.530  0.00  0.00    +0.000 OA
ATOM     28  C   UNL     1      -1.835   9.974  17.238  0.00  0.00    +0.000 C 
ENDBRANCH  24  27
ENDBRANCH   6  19
TORSDOF 5
ENDMDL
MODEL 7
REMARK VINA RESULT:      -7.3      2.938      4.559
REMARK  Name = 
REMARK  7 active torsions:
REMARK  status: ('A' for Active; 'I' for Inactive)
REMARK    1  A    between atoms: C_1  and  C_2
REMARK    2  A    between atoms: C_2  and  N_3
REMARK    3  A    between atoms: C_7  and  C_8
REMARK    4  A    between atoms: C_13  and  C_14
REMARK    5  A    between atoms: C_16  and  C_17
REMARK    6  A    between atoms: C_21  and  O_22
REMARK    7  A    between atoms: O_22  and  C_23
REMARK                            x       y       z     vdW  Elec       q    Type
REMARK                         _______ _______ _______ _____ _____    ______ ____
ROOT
ATOM      1  C   UNL     1       1.105   9.244  20.043  0.00  0.00    +0.000 A 
ATOM      2  C   UNL     1       1.306   9.863  18.799  0.00  0.00    +0.000 A 
ATOM      3  C   UNL     1       1.994   9.216  17.780  0.00  0.00    +0.000 A 
ATOM      4  C   UNL     1       2.477   7.927  17.985  0.00  0.00    +0.000 A 
ATOM      5  F   UNL     1       3.105   7.349  16.949  0.00  0.00    +0.000 F 
ATOM      6  C   UNL     1       2.337   7.253  19.214  0.00  0.00    +0.000 A 
ATOM      7  C   UNL     1       1.642   7.947  20.224  0.00  0.00    +0.000 A 
ENDROOT
BRANCH   1  12
ATOM      8  N   UNL     1      -2.002  12.477  21.445  0.00  0.00    +0.000 N 
ATOM      9  C   UNL     1      -1.813  12.492  20.093  0.00  0.00    +0.000 A 
ATOM     10  N   UNL     1      -0.922  11.597  19.718  0.00  0.00    +0.000 NA
ATOM     11  C   UNL     1      -0.522  10.969  20.883  0.00  0.00    +0.000 A 
ATOM     12  C   UNL     1       0.377   9.918  21.125  0.00  0.00    +0.000 A 
ATOM     13  C   UNL     1       0.479   9.591  22.480  0.00  0.00    +0.000 A 
ATOM     14  N   UNL     1      -0.185  10.197  23.503  0.00  0.00    +0.000 NA
ATOM     15  N   UNL     1      -1.029  11.178  23.257  0.00  0.00    +0.000 NA
ATOM     16  C   UNL     1      -1.174  11.527  21.970  0.00  0.00    +0.000 A 
BRANCH   8  18
ATOM     17  C   UNL     1      -4.362  12.763  22.047  0.00  0.00    +0.000 C 
ATOM     18  C   UNL     1      -2.944  13.288  22.180  0.00  0.00    +0.000 C 
ENDBRANCH   8  18
ENDBRANCH   1  12
BRANCH   6  19
ATOM     19  C   UNL     1       2.953   5.911  19.451  0.00  0.00    +0.000 A 
ATOM     20  C   UNL     1       2.260   4.993  20.275  0.00  0.00    +0.000 A 
ATOM     21  C   UNL     1       2.770   3.730  20.590  0.00  0.00    +0.000 A 
ATOM     22  C   UNL     1       3.991   3.334  20.065  0.00  0.00    +0.000 A 
ATOM     23  C   UNL     1       4.689   4.193  19.218  0.00  0.00    +0.000 A 
ATOM     24  C   UNL     1       4.179   5.465  18.891  0.00  0.00    +0.000 A 
BRANCH  21  25
ATOM     25  C   UNL     1       2.040   2.859  21.458  0.00  0.00    +0.000 C 
ATOM     26  N   UNL     1       1.444   2.153  22.158  0.00  0.00    +0.000 NA
ENDBRANCH  21  25
BRANCH  24  27
ATOM     27  O   UNL     1       4.873   6.317  18.061  0.00  0.00    +0.000 OA
ATOM     28  C   UNL     1       6.271   6.059  17.922  0.00  0.00    +0.000 C 
ENDBRANCH  24  27
ENDBRANCH   6  19
TORSDOF 5
ENDMDL
MODEL 8
REMARK VINA RESULT:      -7.3      2.494      4.011
REMARK  Name = 
REMARK  7 active torsions:
REMARK  status: ('A' for Active; 'I' for Inactive)
REMARK    1  A    between atoms: C_1  and  C_2
REMARK    2  A    between atoms: C_2  and  N_3
REMARK    3  A    between atoms: C_7  and  C_8
REMARK    4  A    between atoms: C_13  and  C_14
REMARK    5  A    between atoms: C_16  and  C_17
REMARK    6  A    between atoms: C_21  and  O_22
REMARK    7  A    between atoms: O_22  and  C_23
REMARK                            x       y       z     vdW  Elec       q    Type
REMARK                         _______ _______ _______ _____ _____    ______ ____
ROOT
ATOM      1  C   UNL     1       0.843   9.241  19.730  0.00  0.00    +0.000 A 
ATOM      2  C   UNL     1       0.494   8.740  20.994  0.00  0.00    +0.000 A 
ATOM      3  C   UNL     1       0.984   7.519  21.440  0.00  0.00    +0.000 A 
ATOM      4  C   UNL     1       1.849   6.787  20.633  0.00  0.00    +0.000 A 
ATOM      5  F   UNL     1       2.309   5.631  21.137  0.00  0.00    +0.000 F 
ATOM      6  C   UNL     1       2.223   7.212  19.343  0.00  0.00    +0.000 A 
ATOM      7  C   UNL     1       1.697   8.451  18.924  0.00  0.00    +0.000 A 
ENDROOT
BRANCH   1  12
ATOM      8  N   UNL     1       0.969  13.937  19.808  0.00  0.00    +0.000 N 
ATOM      9  C   UNL     1       1.851  13.380  20.689  0.00  0.00    +0.000 A 
ATOM     10  N   UNL     1       1.787  12.064  20.672  0.00  0.00    +0.000 NA
ATOM     11  C   UNL     1       0.823  11.757  19.730  0.00  0.00    +0.000 A 
ATOM     12  C   UNL     1       0.334  10.532  19.250  0.00  0.00    +0.000 A 
ATOM     13  C   UNL     1      -0.658  10.686  18.278  0.00  0.00    +0.000 A 
ATOM     14  N   UNL     1      -1.148  11.869  17.814  0.00  0.00    +0.000 NA
ATOM     15  N   UNL     1      -0.673  13.009  18.272  0.00  0.00    +0.000 NA
ATOM     16  C   UNL     1       0.289  12.920  19.201  0.00  0.00    +0.000 A 
BRANCH   8  18
ATOM     17  C   UNL     1       1.973  15.887  18.710  0.00  0.00    +0.000 C 
ATOM     18  C   UNL     1       0.817  15.346  19.534  0.00  0.00    +0.000 C 
ENDBRANCH   8  18
ENDBRANCH   1  12
BRANCH   6  19
ATOM     19  C   UNL     1       3.069   6.364  18.448  0.00  0.00    +0.000 A 
ATOM     20  C   UNL     1       4.375   6.813  18.139  0.00  0.00    +0.000 A 
ATOM     21  C   UNL     1       5.228   6.113  17.281  0.00  0.00    +0.000 A 
ATOM     22  C   UNL     1       4.806   4.918  16.718  0.00  0.00    +0.000 A 
ATOM     23  C   UNL     1       3.541   4.421  17.026  0.00  0.00    +0.000 A 
ATOM     24  C   UNL     1       2.677   5.117  17.894  0.00  0.00    +0.000 A 
BRANCH  21  25
ATOM     25  C   UNL     1       6.525   6.636  16.978  0.00  0.00    +0.000 C 
ATOM     26  N   UNL     1       7.573   7.062  16.728  0.00  0.00    +0.000 NA
ENDBRANCH  21  25
BRANCH  24  27
ATOM     27  O   UNL     1       1.423   4.630  18.191  0.00  0.00    +0.000 OA
ATOM     28  C   UNL     1       1.360   3.262  18.596  0.00  0.00    +0.000 C 
ENDBRANCH  24  27
ENDBRANCH   6  19
TORSDOF 5
ENDMDL
MODEL 9
REMARK VINA RESULT:      -7.2      4.626      9.548
REMARK  Name = 
REMARK  7 active torsions:
REMARK  status: ('A' for Active; 'I' for Inactive)
REMARK    1  A    between atoms: C_1  and  C_2
REMARK    2  A    between atoms: C_2  and  N_3
REMARK    3  A    between atoms: C_7  and  C_8
REMARK    4  A    between atoms: C_13  and  C_14
REMARK    5  A    between atoms: C_16  and  C_17
REMARK    6  A    between atoms: C_21  and  O_22
REMARK    7  A    between atoms: O_22  and  C_23
REMARK                            x       y       z     vdW  Elec       q    Type
REMARK                         _______ _______ _______ _____ _____    ______ ____
ROOT
ATOM      1  C   UNL     1       1.198  10.373  18.535  0.00  0.00    +0.000 A 
ATOM      2  C   UNL     1       1.926  11.574  18.532  0.00  0.00    +0.000 A 
ATOM      3  C   UNL     1       1.279  12.803  18.505  0.00  0.00    +0.000 A 
ATOM      4  C   UNL     1      -0.112  12.850  18.500  0.00  0.00    +0.000 A 
ATOM      5  F   UNL     1      -0.673  14.069  18.505  0.00  0.00    +0.000 F 
ATOM      6  C   UNL     1      -0.908  11.688  18.476  0.00  0.00    +0.000 A 
ATOM      7  C   UNL     1      -0.213  10.461  18.494  0.00  0.00    +0.000 A 
ENDROOT
BRANCH   1  12
ATOM      8  N   UNL     1       1.922   6.227  20.625  0.00  0.00    +0.000 N 
ATOM      9  C   UNL     1       1.059   7.019  21.328  0.00  0.00    +0.000 A 
ATOM     10  N   UNL     1       0.885   8.186  20.742  0.00  0.00    +0.000 NA
ATOM     11  C   UNL     1       1.667   8.143  19.602  0.00  0.00    +0.000 A 
ATOM     12  C   UNL     1       1.873   9.069  18.568  0.00  0.00    +0.000 A 
ATOM     13  C   UNL     1       2.760   8.606  17.593  0.00  0.00    +0.000 A 
ATOM     14  N   UNL     1       3.398   7.403  17.596  0.00  0.00    +0.000 NA
ATOM     15  N   UNL     1       3.189   6.544  18.573  0.00  0.00    +0.000 NA
ATOM     16  C   UNL     1       2.337   6.933  19.532  0.00  0.00    +0.000 A 
BRANCH   8  18
ATOM     17  C   UNL     1       1.211   3.882  20.553  0.00  0.00    +0.000 C 
ATOM     18  C   UNL     1       2.291   4.871  20.954  0.00  0.00    +0.000 C 
ENDBRANCH   8  18
ENDBRANCH   1  12
BRANCH   6  19
ATOM     19  C   UNL     1      -2.398  11.756  18.364  0.00  0.00    +0.000 A 
ATOM     20  C   UNL     1      -3.133  12.199  19.490  0.00  0.00    +0.000 A 
ATOM     21  C   UNL     1      -4.529  12.261  19.499  0.00  0.00    +0.000 A 
ATOM     22  C   UNL     1      -5.240  11.899  18.364  0.00  0.00    +0.000 A 
ATOM     23  C   UNL     1      -4.553  11.493  17.222  0.00  0.00    +0.000 A 
ATOM     24  C   UNL     1      -3.146  11.433  17.202  0.00  0.00    +0.000 A 
BRANCH  21  25
ATOM     25  C   UNL     1      -5.219  12.683  20.680  0.00  0.00    +0.000 C 
ATOM     26  N   UNL     1      -5.773  13.028  21.637  0.00  0.00    +0.000 NA
ENDBRANCH  21  25
BRANCH  24  27
ATOM     27  O   UNL     1      -2.468  11.023  16.075  0.00  0.00    +0.000 OA
ATOM     28  C   UNL     1      -3.272  10.547  14.996  0.00  0.00    +0.000 C 
ENDBRANCH  24  27
ENDBRANCH   6  19
TORSDOF 5
ENDMDL
