MODEL 1
REMARK VINA RESULT:      -8.4      0.000      0.000
REMARK  Name = 
REMARK  6 active torsions:
REMARK  status: ('A' for Active; 'I' for Inactive)
REMARK    1  A    between atoms: C_6  and  O_7
REMARK    2  A    between atoms: O_7  and  C_8
REMARK    3  A    between atoms: C_8  and  C_9
REMARK    4  A    between atoms: C_9  and  O_10
REMARK    5  A    between atoms: O_10  and  C_11
REMARK    6  A    between atoms: C_16  and  N_17
REMARK                            x       y       z     vdW  Elec       q    Type
REMARK                         _______ _______ _______ _____ _____    ______ ____
ROOT
ATOM      1  C   UNL     1       8.125   9.347  17.827  0.00  0.00    +0.000 C 
ENDROOT
BRANCH   1   2
ATOM      2  C   UNL     1       8.090   7.836  18.055  0.00  0.00    +0.000 C 
BRANCH   2   3
ATOM      3  O   UNL     1       7.747   7.205  16.821  0.00  0.00    +0.000 OA
BRANCH   3   9
ATOM      4  C   UNL     1       2.278   4.034  17.579  0.00  0.00    +0.000 A 
ATOM      5  C   UNL     1       2.163   5.320  18.098  0.00  0.00    +0.000 A 
ATOM      6  C   UNL     1       3.254   6.187  18.054  0.00  0.00    +0.000 A 
ATOM      7  C   UNL     1       4.471   5.779  17.489  0.00  0.00    +0.000 A 
ATOM      8  C   UNL     1       5.578   6.646  17.420  0.00  0.00    +0.000 A 
ATOM      9  C   UNL     1       6.780   6.240  16.848  0.00  0.00    +0.000 A 
ATOM     10  C   UNL     1       6.903   4.944  16.344  0.00  0.00    +0.000 A 
ATOM     11  C   UNL     1       5.814   4.069  16.405  0.00  0.00    +0.000 A 
ATOM     12  C   UNL     1       4.591   4.472  16.968  0.00  0.00    +0.000 A 
ATOM     13  C   UNL     1       3.485   3.611  17.021  0.00  0.00    +0.000 A 
ENDBRANCH   3   9
ENDBRANCH   2   3
ENDBRANCH   1   2
BRANCH   1  14
ATOM     14  O   UNL     1       9.078   9.956  18.706  0.00  0.00    +0.000 OA
BRANCH  14  15
ATOM     15  C   UNL     1       9.231  11.377  18.528  0.00  0.00    +0.000 C 
ATOM     16  C   UNL     1      10.539  11.576  17.740  0.00  0.00    +0.000 C 
ATOM     17  C   UNL     1      11.817  11.385  18.556  0.00  0.00    +0.000 C 
ATOM     18  C   UNL     1      11.800  12.034  19.933  0.00  0.00    +0.000 C 
ATOM     19  C   UNL     1      10.495  11.821  20.679  0.00  0.00    +0.000 C 
ATOM     20  C   UNL     1       9.219  12.170  19.878  0.00  0.00    +0.000 C 
BRANCH  20  21
ATOM     21  N   UNL     1       8.792  13.582  19.797  0.00  0.00    +0.000 NA
ATOM     22  C   UNL     1       8.971  14.370  18.578  0.00  0.00    +0.000 C 
ATOM     23  C   UNL     1      10.297  15.136  18.541  0.00  0.00    +0.000 C 
ATOM     24  O   UNL     1      10.425  15.994  19.681  0.00  0.00    +0.000 OA
ATOM     25  C   UNL     1      10.317  15.253  20.905  0.00  0.00    +0.000 C 
ATOM     26  C   UNL     1       9.017  14.429  20.976  0.00  0.00    +0.000 C 
ENDBRANCH  20  21
ENDBRANCH  14  15
ENDBRANCH   1  14
TORSDOF 6
ENDMDL
MODEL 2
REMARK VINA RESULT:      -8.2      2.812      9.871
REMARK  Name = 
REMARK  6 active torsions:
REMARK  status: ('A' for Active; 'I' for Inactive)
REMARK    1  A    between atoms: C_6  and  O_7
REMARK    2  A    between atoms: O_7  and  C_8
REMARK    3  A    between atoms: C_8  and  C_9
REMARK    4  A    between atoms: C_9  and  O_10
REMARK    5  A    between atoms: O_10  and  C_11
REMARK    6  A    between atoms: C_16  and  N_17
REMARK                            x       y       z     vdW  Elec       q    Type
REMARK                         _______ _______ _______ _____ _____    ______ ____
ROOT
ATOM      1  C   UNL     1       7.917   7.309  17.940  0.00  0.00    +0.000 C 
ENDROOT
BRANCH   1   2
ATOM      2  C   UNL     1       8.132   8.821  18.015  0.00  0.00    +0.000 C 
BRANCH   2   3
ATOM      3  O   UNL     1       9.050   9.091  19.075  0.00  0.00    +0.000 OA
BRANCH   3   9
ATOM      4  C   UNL     1      10.965  15.122  18.369  0.00  0.00    +0.000 A 
ATOM      5  C   UNL     1      11.104  14.431  17.169  0.00  0.00    +0.000 A 
ATOM      6  C   UNL     1      10.757  13.082  17.100  0.00  0.00    +0.000 A 
ATOM      7  C   UNL     1      10.267  12.410  18.229  0.00  0.00    +0.000 A 
ATOM      8  C   UNL     1       9.897  11.053  18.174  0.00  0.00    +0.000 A 
ATOM      9  C   UNL     1       9.400  10.393  19.296  0.00  0.00    +0.000 A 
ATOM     10  C   UNL     1       9.279  11.080  20.505  0.00  0.00    +0.000 A 
ATOM     11  C   UNL     1       9.644  12.428  20.577  0.00  0.00    +0.000 A 
ATOM     12  C   UNL     1      10.132  13.108  19.450  0.00  0.00    +0.000 A 
ATOM     13  C   UNL     1      10.487  14.465  19.503  0.00  0.00    +0.000 A 
ENDBRANCH   3   9
ENDBRANCH   2   3
ENDBRANCH   1   2
BRANCH   1  14
ATOM     14  O   UNL     1       6.542   7.021  17.662  0.00  0.00    +0.000 OA
BRANCH  14  15
ATOM     15  C   UNL     1       6.145   5.668  17.957  0.00  0.00    +0.000 C 
ATOM     16  C   UNL     1       7.303   4.767  17.489  0.00  0.00    +0.000 C 
ATOM     17  C   UNL     1       7.396   4.573  15.976  0.00  0.00    +0.000 C 
ATOM     18  C   UNL     1       6.067   4.312  15.281  0.00  0.00    +0.000 C 
ATOM     19  C   UNL     1       4.949   5.217  15.769  0.00  0.00    +0.000 C 
ATOM     20  C   UNL     1       4.778   5.272  17.305  0.00  0.00    +0.000 C 
BRANCH  20  21
ATOM     21  N   UNL     1       4.026   4.194  17.979  0.00  0.00    +0.000 NA
ATOM     22  C   UNL     1       2.820   3.613  17.388  0.00  0.00    +0.000 C 
ATOM     23  C   UNL     1       1.531   4.310  17.834  0.00  0.00    +0.000 C 
ATOM     24  O   UNL     1       1.410   4.302  19.261  0.00  0.00    +0.000 OA
ATOM     25  C   UNL     1       2.546   4.918  19.885  0.00  0.00    +0.000 C 
ATOM     26  C   UNL     1       3.875   4.281  19.438  0.00  0.00    +0.000 C 
ENDBRANCH  20  21
ENDBRANCH  14  15
ENDBRANCH   1  14
TORSDOF 6
ENDMDL
MODEL 3
REMARK VINA RESULT:      -8.1      5.814      9.832
REMARK  Name = 
REMARK  6 active torsions:
REMARK  status: ('A' for Active; 'I' for Inactive)
REMARK    1  A    between atoms: C_6  and  O_7
REMARK    2  A    between atoms: O_7  and  C_8
REMARK    3  A    between atoms: C_8  and  C_9
REMARK    4  A    between atoms: C_9  and  O_10
REMARK    5  A    between atoms: O_10  and  C_11
REMARK    6  A    between atoms: C_16  and  N_17
REMARK                            x       y       z     vdW  Elec       q    Type
REMARK                         _______ _______ _______ _____ _____    ______ ____
ROOT
ATOM      1  C   UNL     1       1.662   5.956  20.536  0.00  0.00    +0.000 C 
ENDROOT
BRANCH   1   2
ATOM      2  C   UNL     1       2.066   7.358  20.080  0.00  0.00    +0.000 C 
BRANCH   2   3
ATOM      3  O   UNL     1       1.797   8.271  21.145  0.00  0.00    +0.000 OA
BRANCH   3   9
ATOM      4  C   UNL     1      -2.599  12.823  21.840  0.00  0.00    +0.000 A 
ATOM      5  C   UNL     1      -2.338  12.218  23.065  0.00  0.00    +0.000 A 
ATOM      6  C   UNL     1      -1.414  11.177  23.142  0.00  0.00    +0.000 A 
ATOM      7  C   UNL     1      -0.740  10.730  21.996  0.00  0.00    +0.000 A 
ATOM      8  C   UNL     1       0.208   9.691  22.057  0.00  0.00    +0.000 A 
ATOM      9  C   UNL     1       0.881   9.259  20.918  0.00  0.00    +0.000 A 
ATOM     10  C   UNL     1       0.606   9.852  19.685  0.00  0.00    +0.000 A 
ATOM     11  C   UNL     1      -0.334  10.884  19.606  0.00  0.00    +0.000 A 
ATOM     12  C   UNL     1      -1.010  11.338  20.750  0.00  0.00    +0.000 A 
ATOM     13  C   UNL     1      -1.944  12.384  20.689  0.00  0.00    +0.000 A 
ENDBRANCH   3   9
ENDBRANCH   2   3
ENDBRANCH   1   2
BRANCH   1  14
ATOM     14  O   UNL     1       2.581   4.986  20.021  0.00  0.00    +0.000 OA
BRANCH  14  15
ATOM     15  C   UNL     1       2.788   5.057  18.597  0.00  0.00    +0.000 C 
ATOM     16  C   UNL     1       1.644   4.251  17.954  0.00  0.00    +0.000 C 
ATOM     17  C   UNL     1       1.792   2.733  18.054  0.00  0.00    +0.000 C 
ATOM     18  C   UNL     1       3.188   2.205  17.756  0.00  0.00    +0.000 C 
ATOM     19  C   UNL     1       4.289   3.025  18.404  0.00  0.00    +0.000 C 
ATOM     20  C   UNL     1       4.201   4.549  18.155  0.00  0.00    +0.000 C 
BRANCH  20  21
ATOM     21  N   UNL     1       4.718   5.096  16.883  0.00  0.00    +0.000 NA
ATOM     22  C   UNL     1       5.637   4.335  16.038  0.00  0.00    +0.000 C 
ATOM     23  C   UNL     1       7.112   4.609  16.347  0.00  0.00    +0.000 C 
ATOM     24  O   UNL     1       7.410   6.006  16.234  0.00  0.00    +0.000 OA
ATOM     25  C   UNL     1       6.571   6.790  17.094  0.00  0.00    +0.000 C 
ATOM     26  C   UNL     1       5.073   6.521  16.852  0.00  0.00    +0.000 C 
ENDBRANCH  20  21
ENDBRANCH  14  15
ENDBRANCH   1  14
TORSDOF 6
ENDMDL
MODEL 4
REMARK VINA RESULT:      -8.0      5.847      9.814
REMARK  Name = 
REMARK  6 active torsions:
REMARK  status: ('A' for Active; 'I' for Inactive)
REMARK    1  A    between atoms: C_6  and  O_7
REMARK    2  A    between atoms: O_7  and  C_8
REMARK    3  A    between atoms: C_8  and  C_9
REMARK    4  A    between atoms: C_9  and  O_10
REMARK    5  A    between atoms: O_10  and  C_11
REMARK    6  A    between atoms: C_16  and  N_17
REMARK                            x       y       z     vdW  Elec       q    Type
REMARK                         _______ _______ _______ _____ _____    ______ ____
ROOT
ATOM      1  C   UNL     1       1.609   5.803  20.608  0.00  0.00    +0.000 C 
ENDROOT
BRANCH   1   2
ATOM      2  C   UNL     1       1.792   7.319  20.538  0.00  0.00    +0.000 C 
BRANCH   2   3
ATOM      3  O   UNL     1       1.382   7.878  21.786  0.00  0.00    +0.000 OA
BRANCH   3   9
ATOM      4  C   UNL     1      -2.155  12.828  19.909  0.00  0.00    +0.000 A 
ATOM      5  C   UNL     1      -1.593  12.194  18.805  0.00  0.00    +0.000 A 
ATOM      6  C   UNL     1      -0.763  11.089  18.987  0.00  0.00    +0.000 A 
ATOM      7  C   UNL     1      -0.486  10.604  20.274  0.00  0.00    +0.000 A 
ATOM      8  C   UNL     1       0.336   9.480  20.476  0.00  0.00    +0.000 A 
ATOM      9  C   UNL     1       0.599   8.997  21.755  0.00  0.00    +0.000 A 
ATOM     10  C   UNL     1       0.051   9.643  22.865  0.00  0.00    +0.000 A 
ATOM     11  C   UNL     1      -0.767  10.763  22.682  0.00  0.00    +0.000 A 
ATOM     12  C   UNL     1      -1.050  11.251  21.396  0.00  0.00    +0.000 A 
ATOM     13  C   UNL     1      -1.883  12.363  21.196  0.00  0.00    +0.000 A 
ENDBRANCH   3   9
ENDBRANCH   2   3
ENDBRANCH   1   2
BRANCH   1  14
ATOM     14  O   UNL     1       2.770   5.142  20.091  0.00  0.00    +0.000 OA
BRANCH  14  15
ATOM     15  C   UNL     1       2.908   5.213  18.659  0.00  0.00    +0.000 C 
ATOM     16  C   UNL     1       1.646   4.555  18.070  0.00  0.00    +0.000 C 
ATOM     17  C   UNL     1       1.621   3.028  18.147  0.00  0.00    +0.000 C 
ATOM     18  C   UNL     1       2.928   2.347  17.769  0.00  0.00    +0.000 C 
ATOM     19  C   UNL     1       4.151   3.024  18.364  0.00  0.00    +0.000 C 
ATOM     20  C   UNL     1       4.227   4.551  18.135  0.00  0.00    +0.000 C 
BRANCH  20  21
ATOM     21  N   UNL     1       4.737   5.055  16.843  0.00  0.00    +0.000 NA
ATOM     22  C   UNL     1       5.665   4.274  16.027  0.00  0.00    +0.000 C 
ATOM     23  C   UNL     1       7.137   4.579  16.324  0.00  0.00    +0.000 C 
ATOM     24  O   UNL     1       7.417   5.974  16.156  0.00  0.00    +0.000 OA
ATOM     25  C   UNL     1       6.568   6.779  16.986  0.00  0.00    +0.000 C 
ATOM     26  C   UNL     1       5.073   6.482  16.756  0.00  0.00    +0.000 C 
ENDBRANCH  20  21
ENDBRANCH  14  15
ENDBRANCH   1  14
TORSDOF 6
ENDMDL
MODEL 5
REMARK VINA RESULT:      -8.0      7.094     10.517
REMARK  Name = 
REMARK  6 active torsions:
REMARK  status: ('A' for Active; 'I' for Inactive)
REMARK    1  A    between atoms: C_6  and  O_7
REMARK    2  A    between atoms: O_7  and  C_8
REMARK    3  A    between atoms: C_8  and  C_9
REMARK    4  A    between atoms: C_9  and  O_10
REMARK    5  A    between atoms: O_10  and  C_11
REMARK    6  A    between atoms: C_16  and  N_17
REMARK                            x       y       z     vdW  Elec       q    Type
REMARK                         _______ _______ _______ _____ _____    ______ ____
ROOT
ATOM      1  C   UNL     1       2.632   7.830  18.452  0.00  0.00    +0.000 C 
ENDROOT
BRANCH   1   2
ATOM      2  C   UNL     1       1.731   8.920  17.870  0.00  0.00    +0.000 C 
BRANCH   2   3
ATOM      3  O   UNL     1       1.235   9.713  18.948  0.00  0.00    +0.000 OA
BRANCH   3   9
ATOM      4  C   UNL     1      -4.557  11.316  16.844  0.00  0.00    +0.000 A 
ATOM      5  C   UNL     1      -3.906  10.526  15.901  0.00  0.00    +0.000 A 
ATOM      6  C   UNL     1      -2.611  10.074  16.150  0.00  0.00    +0.000 A 
ATOM      7  C   UNL     1      -1.953  10.405  17.344  0.00  0.00    +0.000 A 
ATOM      8  C   UNL     1      -0.652   9.944  17.619  0.00  0.00    +0.000 A 
ATOM      9  C   UNL     1      -0.007  10.266  18.810  0.00  0.00    +0.000 A 
ATOM     10  C   UNL     1      -0.652  11.073  19.749  0.00  0.00    +0.000 A 
ATOM     11  C   UNL     1      -1.944  11.541  19.491  0.00  0.00    +0.000 A 
ATOM     12  C   UNL     1      -2.610  11.212  18.298  0.00  0.00    +0.000 A 
ATOM     13  C   UNL     1      -3.913  11.660  18.033  0.00  0.00    +0.000 A 
ENDBRANCH   3   9
ENDBRANCH   2   3
ENDBRANCH   1   2
BRANCH   1  14
ATOM     14  O   UNL     1       2.246   6.548  17.943  0.00  0.00    +0.000 OA
BRANCH  14  15
ATOM     15  C   UNL     1       2.509   5.448  18.835  0.00  0.00    +0.000 C 
ATOM     16  C   UNL     1       3.992   5.562  19.236  0.00  0.00    +0.000 C 
ATOM     17  C   UNL     1       4.985   5.126  18.159  0.00  0.00    +0.000 C 
ATOM     18  C   UNL     1       4.619   3.838  17.435  0.00  0.00    +0.000 C 
ATOM     19  C   UNL     1       3.150   3.759  17.058  0.00  0.00    +0.000 C 
ATOM     20  C   UNL     1       2.164   4.054  18.211  0.00  0.00    +0.000 C 
BRANCH  20  21
ATOM     21  N   UNL     1       1.842   2.977  19.170  0.00  0.00    +0.000 NA
ATOM     22  C   UNL     1       1.092   3.240  20.397  0.00  0.00    +0.000 C 
ATOM     23  C   UNL     1       1.987   3.560  21.598  0.00  0.00    +0.000 C 
ATOM     24  O   UNL     1       2.926   2.504  21.835  0.00  0.00    +0.000 OA
ATOM     25  C   UNL     1       3.729   2.251  20.673  0.00  0.00    +0.000 C 
ATOM     26  C   UNL     1       2.875   1.963  19.423  0.00  0.00    +0.000 C 
ENDBRANCH  20  21
ENDBRANCH  14  15
ENDBRANCH   1  14
TORSDOF 6
ENDMDL
MODEL 6
REMARK VINA RESULT:      -8.0      6.644      9.611
REMARK  Name = 
REMARK  6 active torsions:
REMARK  status: ('A' for Active; 'I' for Inactive)
REMARK    1  A    between atoms: C_6  and  O_7
REMARK    2  A    between atoms: O_7  and  C_8
REMARK    3  A    between atoms: C_8  and  C_9
REMARK    4  A    between atoms: C_9  and  O_10
REMARK    5  A    between atoms: O_10  and  C_11
REMARK    6  A    between atoms: C_16  and  N_17
REMARK                            x       y       z     vdW  Elec       q    Type
REMARK                         _______ _______ _______ _____ _____    ______ ____
ROOT
ATOM      1  C   UNL     1       3.999   6.844  17.309  0.00  0.00    +0.000 C 
ENDROOT
BRANCH   1   2
ATOM      2  C   UNL     1       2.988   7.316  18.354  0.00  0.00    +0.000 C 
BRANCH   2   3
ATOM      3  O   UNL     1       2.213   8.370  17.783  0.00  0.00    +0.000 OA
BRANCH   3   9
ATOM      4  C   UNL     1      -0.802  10.692  22.887  0.00  0.00    +0.000 A 
ATOM      5  C   UNL     1      -0.060   9.569  23.239  0.00  0.00    +0.000 A 
ATOM      6  C   UNL     1       0.670   8.886  22.266  0.00  0.00    +0.000 A 
ATOM      7  C   UNL     1       0.667   9.321  20.932  0.00  0.00    +0.000 A 
ATOM      8  C   UNL     1       1.411   8.655  19.940  0.00  0.00    +0.000 A 
ATOM      9  C   UNL     1       1.413   9.096  18.620  0.00  0.00    +0.000 A 
ATOM     10  C   UNL     1       0.654  10.212  18.262  0.00  0.00    +0.000 A 
ATOM     11  C   UNL     1      -0.092  10.884  19.235  0.00  0.00    +0.000 A 
ATOM     12  C   UNL     1      -0.091  10.457  20.573  0.00  0.00    +0.000 A 
ATOM     13  C   UNL     1      -0.821  11.132  21.563  0.00  0.00    +0.000 A 
ENDBRANCH   3   9
ENDBRANCH   2   3
ENDBRANCH   1   2
BRANCH   1  14
ATOM     14  O   UNL     1       5.240   6.507  17.941  0.00  0.00    +0.000 OA
BRANCH  14  15
ATOM     15  C   UNL     1       5.378   5.115  18.282  0.00  0.00    +0.000 C 
ATOM     16  C   UNL     1       6.849   4.748  18.013  0.00  0.00    +0.000 C 
ATOM     17  C   UNL     1       7.211   4.581  16.537  0.00  0.00    +0.000 C 
ATOM     18  C   UNL     1       6.200   3.795  15.715  0.00  0.00    +0.000 C 
ATOM     19  C   UNL     1       4.760   4.181  16.008  0.00  0.00    +0.000 C 
ATOM     20  C   UNL     1       4.379   4.191  17.506  0.00  0.00    +0.000 C 
BRANCH  20  21
ATOM     21  N   UNL     1       4.035   2.913  18.164  0.00  0.00    +0.000 NA
ATOM     22  C   UNL     1       2.870   2.129  17.754  0.00  0.00    +0.000 C 
ATOM     23  C   UNL     1       1.602   2.470  18.543  0.00  0.00    +0.000 C 
ATOM     24  O   UNL     1       1.813   2.305  19.950  0.00  0.00    +0.000 OA
ATOM     25  C   UNL     1       2.911   3.106  20.410  0.00  0.00    +0.000 C 
ATOM     26  C   UNL     1       4.205   2.831  19.620  0.00  0.00    +0.000 C 
ENDBRANCH  20  21
ENDBRANCH  14  15
ENDBRANCH   1  14
TORSDOF 6
ENDMDL
MODEL 7
REMARK VINA RESULT:      -8.0      2.666     10.075
REMARK  Name = 
REMARK  6 active torsions:
REMARK  status: ('A' for Active; 'I' for Inactive)
REMARK    1  A    between atoms: C_6  and  O_7
REMARK    2  A    between atoms: O_7  and  C_8
REMARK    3  A    between atoms: C_8  and  C_9
REMARK    4  A    between atoms: C_9  and  O_10
REMARK    5  A    between atoms: O_10  and  C_11
REMARK    6  A    between atoms: C_16  and  N_17
REMARK                            x       y       z     vdW  Elec       q    Type
REMARK                         _______ _______ _______ _____ _____    ______ ____
ROOT
ATOM      1  C   UNL     1       8.074   7.551  18.107  0.00  0.00    +0.000 C 
ENDROOT
BRANCH   1   2
ATOM      2  C   UNL     1       8.226   9.072  18.131  0.00  0.00    +0.000 C 
BRANCH   2   3
ATOM      3  O   UNL     1       9.246   9.406  19.071  0.00  0.00    +0.000 OA
BRANCH   3   9
ATOM      4  C   UNL     1      11.088  15.426  18.120  0.00  0.00    +0.000 A 
ATOM      5  C   UNL     1      11.328  14.665  16.980  0.00  0.00    +0.000 A 
ATOM      6  C   UNL     1      11.015  13.307  16.973  0.00  0.00    +0.000 A 
ATOM      7  C   UNL     1      10.456  12.694  18.105  0.00  0.00    +0.000 A 
ATOM      8  C   UNL     1      10.118  11.328  18.110  0.00  0.00    +0.000 A 
ATOM      9  C   UNL     1       9.554  10.727  19.233  0.00  0.00    +0.000 A 
ATOM     10  C   UNL     1       9.330  11.485  20.383  0.00  0.00    +0.000 A 
ATOM     11  C   UNL     1       9.662  12.843  20.395  0.00  0.00    +0.000 A 
ATOM     12  C   UNL     1      10.219  13.464  19.265  0.00  0.00    +0.000 A 
ATOM     13  C   UNL     1      10.541  14.830  19.256  0.00  0.00    +0.000 A 
ENDBRANCH   3   9
ENDBRANCH   2   3
ENDBRANCH   1   2
BRANCH   1  14
ATOM     14  O   UNL     1       6.788   7.192  17.588  0.00  0.00    +0.000 OA
BRANCH  14  15
ATOM     15  C   UNL     1       6.236   5.984  18.144  0.00  0.00    +0.000 C 
ATOM     16  C   UNL     1       7.191   4.846  17.738  0.00  0.00    +0.000 C 
ATOM     17  C   UNL     1       7.082   4.406  16.278  0.00  0.00    +0.000 C 
ATOM     18  C   UNL     1       5.660   4.258  15.758  0.00  0.00    +0.000 C 
ATOM     19  C   UNL     1       4.746   5.396  16.180  0.00  0.00    +0.000 C 
ATOM     20  C   UNL     1       4.760   5.717  17.692  0.00  0.00    +0.000 C 
BRANCH  20  21
ATOM     21  N   UNL     1       3.942   4.893  18.605  0.00  0.00    +0.000 NA
ATOM     22  C   UNL     1       4.198   3.465  18.788  0.00  0.00    +0.000 C 
ATOM     23  C   UNL     1       3.394   2.578  17.834  0.00  0.00    +0.000 C 
ATOM     24  O   UNL     1       1.988   2.827  17.964  0.00  0.00    +0.000 OA
ATOM     25  C   UNL     1       1.681   4.208  17.732  0.00  0.00    +0.000 C 
ATOM     26  C   UNL     1       2.496   5.149  18.639  0.00  0.00    +0.000 C 
ENDBRANCH  20  21
ENDBRANCH  14  15
ENDBRANCH   1  14
TORSDOF 6
ENDMDL
MODEL 8
REMARK VINA RESULT:      -8.0      6.199      9.639
REMARK  Name = 
REMARK  6 active torsions:
REMARK  status: ('A' for Active; 'I' for Inactive)
REMARK    1  A    between atoms: C_6  and  O_7
REMARK    2  A    between atoms: O_7  and  C_8
REMARK    3  A    between atoms: C_8  and  C_9
REMARK    4  A    between atoms: C_9  and  O_10
REMARK    5  A    between atoms: O_10  and  C_11
REMARK    6  A    between atoms: C_16  and  N_17
REMARK                            x       y       z     vdW  Elec       q    Type
REMARK                         _______ _______ _______ _____ _____    ______ ____
ROOT
ATOM      1  C   UNL     1       2.910   8.075  17.908  0.00  0.00    +0.000 C 
ENDROOT
BRANCH   1   2
ATOM      2  C   UNL     1       2.021   9.314  17.803  0.00  0.00    +0.000 C 
BRANCH   2   3
ATOM      3  O   UNL     1       1.149   9.336  18.934  0.00  0.00    +0.000 OA
BRANCH   3   9
ATOM      4  C   UNL     1      -4.486  11.430  16.836  0.00  0.00    +0.000 A 
ATOM      5  C   UNL     1      -3.891  10.613  15.879  0.00  0.00    +0.000 A 
ATOM      6  C   UNL     1      -2.637  10.057  16.124  0.00  0.00    +0.000 A 
ATOM      7  C   UNL     1      -1.964  10.309  17.329  0.00  0.00    +0.000 A 
ATOM      8  C   UNL     1      -0.704   9.742  17.600  0.00  0.00    +0.000 A 
ATOM      9  C   UNL     1      -0.045   9.987  18.802  0.00  0.00    +0.000 A 
ATOM     10  C   UNL     1      -0.632  10.821  19.755  0.00  0.00    +0.000 A 
ATOM     11  C   UNL     1      -1.882  11.393  19.501  0.00  0.00    +0.000 A 
ATOM     12  C   UNL     1      -2.563  11.143  18.298  0.00  0.00    +0.000 A 
ATOM     13  C   UNL     1      -3.826  11.696  18.036  0.00  0.00    +0.000 A 
ENDBRANCH   3   9
ENDBRANCH   2   3
ENDBRANCH   1   2
BRANCH   1  14
ATOM     14  O   UNL     1       2.103   6.901  18.061  0.00  0.00    +0.000 OA
BRANCH  14  15
ATOM     15  C   UNL     1       2.755   5.675  17.681  0.00  0.00    +0.000 C 
ATOM     16  C   UNL     1       1.726   4.551  17.904  0.00  0.00    +0.000 C 
ATOM     17  C   UNL     1       1.506   4.161  19.366  0.00  0.00    +0.000 C 
ATOM     18  C   UNL     1       2.778   4.031  20.192  0.00  0.00    +0.000 C 
ATOM     19  C   UNL     1       3.770   5.153  19.944  0.00  0.00    +0.000 C 
ATOM     20  C   UNL     1       4.093   5.423  18.456  0.00  0.00    +0.000 C 
BRANCH  20  21
ATOM     21  N   UNL     1       5.086   4.569  17.774  0.00  0.00    +0.000 NA
ATOM     22  C   UNL     1       6.494   4.562  18.170  0.00  0.00    +0.000 C 
ATOM     23  C   UNL     1       7.347   5.568  17.392  0.00  0.00    +0.000 C 
ATOM     24  O   UNL     1       7.252   5.340  15.981  0.00  0.00    +0.000 OA
ATOM     25  C   UNL     1       5.889   5.398  15.535  0.00  0.00    +0.000 C 
ATOM     26  C   UNL     1       4.977   4.432  16.315  0.00  0.00    +0.000 C 
ENDBRANCH  20  21
ENDBRANCH  14  15
ENDBRANCH   1  14
TORSDOF 6
ENDMDL
MODEL 9
REMARK VINA RESULT:      -7.9      6.071      9.411
REMARK  Name = 
REMARK  6 active torsions:
REMARK  status: ('A' for Active; 'I' for Inactive)
REMARK    1  A    between atoms: C_6  and  O_7
REMARK    2  A    between atoms: O_7  and  C_8
REMARK    3  A    between atoms: C_8  and  C_9
REMARK    4  A    between atoms: C_9  and  O_10
REMARK    5  A    between atoms: O_10  and  C_11
REMARK    6  A    between atoms: C_16  and  N_17
REMARK                            x       y       z     vdW  Elec       q    Type
REMARK                         _______ _______ _______ _____ _____    ______ ____
ROOT
ATOM      1  C   UNL     1       2.101   5.850  17.761  0.00  0.00    +0.000 C 
ENDROOT
BRANCH   1   2
ATOM      2  C   UNL     1       2.271   6.640  19.059  0.00  0.00    +0.000 C 
BRANCH   2   3
ATOM      3  O   UNL     1       2.460   8.015  18.725  0.00  0.00    +0.000 OA
BRANCH   3   9
ATOM      4  C   UNL     1      -1.354  11.352  22.577  0.00  0.00    +0.000 A 
ATOM      5  C   UNL     1      -0.818  10.264  23.259  0.00  0.00    +0.000 A 
ATOM      6  C   UNL     1       0.036   9.383  22.597  0.00  0.00    +0.000 A 
ATOM      7  C   UNL     1       0.366   9.582  21.248  0.00  0.00    +0.000 A 
ATOM      8  C   UNL     1       1.240   8.712  20.569  0.00  0.00    +0.000 A 
ATOM      9  C   UNL     1       1.572   8.920  19.233  0.00  0.00    +0.000 A 
ATOM     10  C   UNL     1       1.020  10.001  18.543  0.00  0.00    +0.000 A 
ATOM     11  C   UNL     1       0.148  10.873  19.202  0.00  0.00    +0.000 A 
ATOM     12  C   UNL     1      -0.183  10.682  20.554  0.00  0.00    +0.000 A 
ATOM     13  C   UNL     1      -1.043  11.559  21.233  0.00  0.00    +0.000 A 
ENDBRANCH   3   9
ENDBRANCH   2   3
ENDBRANCH   1   2
BRANCH   1  14
ATOM     14  O   UNL     1       2.141   4.443  18.031  0.00  0.00    +0.000 OA
BRANCH  14  15
ATOM     15  C   UNL     1       3.284   3.763  17.480  0.00  0.00    +0.000 C 
ATOM     16  C   UNL     1       2.993   2.256  17.609  0.00  0.00    +0.000 C 
ATOM     17  C   UNL     1       3.144   1.690  19.021  0.00  0.00    +0.000 C 
ATOM     18  C   UNL     1       4.379   2.165  19.773  0.00  0.00    +0.000 C 
ATOM     19  C   UNL     1       4.636   3.655  19.621  0.00  0.00    +0.000 C 
ATOM     20  C   UNL     1       4.632   4.173  18.164  0.00  0.00    +0.000 C 
BRANCH  20  21
ATOM     21  N   UNL     1       5.851   4.010  17.345  0.00  0.00    +0.000 NA
ATOM     22  C   UNL     1       7.119   4.633  17.722  0.00  0.00    +0.000 C 
ATOM     23  C   UNL     1       7.317   6.022  17.109  0.00  0.00    +0.000 C 
ATOM     24  O   UNL     1       7.222   5.971  15.680  0.00  0.00    +0.000 OA
ATOM     25  C   UNL     1       5.965   5.420  15.261  0.00  0.00    +0.000 C 
ATOM     26  C   UNL     1       5.695   4.038  15.884  0.00  0.00    +0.000 C 
ENDBRANCH  20  21
ENDBRANCH  14  15
ENDBRANCH   1  14
TORSDOF 6
ENDMDL
