MODEL 1
REMARK VINA RESULT:      -7.4      0.000      0.000
REMARK  Name = 
REMARK  4 active torsions:
REMARK  status: ('A' for Active; 'I' for Inactive)
REMARK    1  A    between atoms: N_2  and  C_4
REMARK    2  A    between atoms: C_6  and  S_7
REMARK    3  A    between atoms: S_7  and  N_10
REMARK    4  A    between atoms: C_18  and  N_19
REMARK                            x       y       z     vdW  Elec       q    Type
REMARK                         _______ _______ _______ _____ _____    ______ ____
ROOT
ATOM      1  C   UNL     1       1.218   8.822  20.365  0.00  0.00    +0.000 A 
ATOM      2  C   UNL     1       1.886   7.580  20.431  0.00  0.00    +0.000 A 
ATOM      3  C   UNL     1       2.476   7.064  19.283  0.00  0.00    +0.000 A 
ATOM      4  C   UNL     1       2.359   7.749  18.081  0.00  0.00    +0.000 A 
ATOM      5  C   UNL     1       1.692   8.987  18.045  0.00  0.00    +0.000 A 
ATOM      6  C   UNL     1       1.126   9.601  19.188  0.00  0.00    +0.000 A 
ENDROOT
BRANCH   6   7
ATOM      7  N   UNL     1       0.535  10.842  19.072  0.00  0.00    +0.000 N 
ATOM      8  C   UNL     1      -0.895  11.120  18.935  0.00  0.00    +0.000 C 
ATOM      9  C   UNL     1      -0.891  12.498  18.290  0.00  0.00    +0.000 C 
ATOM     10  C   UNL     1       0.236  13.210  19.020  0.00  0.00    +0.000 C 
ATOM     11  C   UNL     1       1.233  12.100  19.377  0.00  0.00    +0.000 C 
ENDBRANCH   6   7
BRANCH   1  13
ATOM     12  O   UNL     1       1.065  10.011  22.318  0.00  0.00    +0.000 OA
ATOM     13  N   UNL     1       0.513   9.185  21.576  0.00  0.00    +0.000 N 
ATOM     14  O   UNL     1      -0.563   8.620  21.813  0.00  0.00    +0.000 OA
ENDBRANCH   1  13
BRANCH   3  15
ATOM     15  S   UNL     1       3.300   5.489  19.360  0.00  0.00    +0.000 S 
ATOM     16  O   UNL     1       4.718   5.776  19.259  0.00  0.00    +0.000 OA
ATOM     17  O   UNL     1       2.753   4.740  20.469  0.00  0.00    +0.000 OA
BRANCH  15  18
ATOM     18  N   UNL     1       2.796   4.748  17.918  0.00  0.00    +0.000 NA
ATOM     19  C   UNL     1       1.437   4.124  17.913  0.00  0.00    +0.000 C 
ATOM     20  C   UNL     1       1.473   2.684  18.452  0.00  0.00    +0.000 C 
ATOM     21  O   UNL     1       2.431   1.877  17.752  0.00  0.00    +0.000 OA
ATOM     22  C   UNL     1       3.747   2.439  17.851  0.00  0.00    +0.000 C 
ATOM     23  C   UNL     1       3.783   3.845  17.251  0.00  0.00    +0.000 C 
ENDBRANCH  15  18
ENDBRANCH   3  15
TORSDOF 4
ENDMDL
MODEL 2
REMARK VINA RESULT:      -7.3      0.385      1.119
REMARK  Name = 
REMARK  4 active torsions:
REMARK  status: ('A' for Active; 'I' for Inactive)
REMARK    1  A    between atoms: N_2  and  C_4
REMARK    2  A    between atoms: C_6  and  S_7
REMARK    3  A    between atoms: S_7  and  N_10
REMARK    4  A    between atoms: C_18  and  N_19
REMARK                            x       y       z     vdW  Elec       q    Type
REMARK                         _______ _______ _______ _____ _____    ______ ____
ROOT
ATOM      1  C   UNL     1       1.195   8.934  20.327  0.00  0.00    +0.000 A 
ATOM      2  C   UNL     1       1.779   7.659  20.486  0.00  0.00    +0.000 A 
ATOM      3  C   UNL     1       2.366   7.041  19.389  0.00  0.00    +0.000 A 
ATOM      4  C   UNL     1       2.329   7.659  18.147  0.00  0.00    +0.000 A 
ATOM      5  C   UNL     1       1.745   8.932  18.019  0.00  0.00    +0.000 A 
ATOM      6  C   UNL     1       1.187   9.647  19.106  0.00  0.00    +0.000 A 
ENDROOT
BRANCH   6   7
ATOM      7  N   UNL     1       0.681  10.914  18.901  0.00  0.00    +0.000 N 
ATOM      8  C   UNL     1       1.452  12.152  18.767  0.00  0.00    +0.000 C 
ATOM      9  C   UNL     1       0.422  13.209  19.140  0.00  0.00    +0.000 C 
ATOM     10  C   UNL     1      -0.843  12.699  18.469  0.00  0.00    +0.000 C 
ATOM     11  C   UNL     1      -0.703  11.173  18.478  0.00  0.00    +0.000 C 
ENDBRANCH   6   7
BRANCH   1  13
ATOM     12  O   UNL     1      -0.536   8.782  21.822  0.00  0.00    +0.000 OA
ATOM     13  N   UNL     1       0.480   9.412  21.492  0.00  0.00    +0.000 N 
ATOM     14  O   UNL     1       0.898  10.435  22.051  0.00  0.00    +0.000 OA
ENDBRANCH   1  13
BRANCH   3  15
ATOM     15  S   UNL     1       3.085   5.424  19.581  0.00  0.00    +0.000 S 
ATOM     16  O   UNL     1       4.515   5.601  19.418  0.00  0.00    +0.000 OA
ATOM     17  O   UNL     1       2.525   4.813  20.766  0.00  0.00    +0.000 OA
BRANCH  15  18
ATOM     18  N   UNL     1       2.485   4.599  18.224  0.00  0.00    +0.000 NA
ATOM     19  C   UNL     1       1.374   3.626  18.456  0.00  0.00    +0.000 C 
ATOM     20  C   UNL     1       1.909   2.241  18.860  0.00  0.00    +0.000 C 
ATOM     21  O   UNL     1       2.865   1.742  17.913  0.00  0.00    +0.000 OA
ATOM     22  C   UNL     1       3.973   2.642  17.777  0.00  0.00    +0.000 C 
ATOM     23  C   UNL     1       3.501   4.016  17.296  0.00  0.00    +0.000 C 
ENDBRANCH  15  18
ENDBRANCH   3  15
TORSDOF 4
ENDMDL
MODEL 3
REMARK VINA RESULT:      -7.3      0.998      1.422
REMARK  Name = 
REMARK  4 active torsions:
REMARK  status: ('A' for Active; 'I' for Inactive)
REMARK    1  A    between atoms: N_2  and  C_4
REMARK    2  A    between atoms: C_6  and  S_7
REMARK    3  A    between atoms: S_7  and  N_10
REMARK    4  A    between atoms: C_18  and  N_19
REMARK                            x       y       z     vdW  Elec       q    Type
REMARK                         _______ _______ _______ _____ _____    ______ ____
ROOT
ATOM      1  C   UNL     1       1.311   8.703  20.248  0.00  0.00    +0.000 A 
ATOM      2  C   UNL     1       2.043   7.504  20.113  0.00  0.00    +0.000 A 
ATOM      3  C   UNL     1       2.576   7.169  18.874  0.00  0.00    +0.000 A 
ATOM      4  C   UNL     1       2.343   7.990  17.779  0.00  0.00    +0.000 A 
ATOM      5  C   UNL     1       1.616   9.183  17.943  0.00  0.00    +0.000 A 
ATOM      6  C   UNL     1       1.101   9.616  19.188  0.00  0.00    +0.000 A 
ENDROOT
BRANCH   6   7
ATOM      7  N   UNL     1       0.443  10.827  19.269  0.00  0.00    +0.000 N 
ATOM      8  C   UNL     1      -0.998  11.048  19.144  0.00  0.00    +0.000 C 
ATOM      9  C   UNL     1      -1.061  12.515  18.743  0.00  0.00    +0.000 C 
ATOM     10  C   UNL     1       0.013  13.149  19.612  0.00  0.00    +0.000 C 
ATOM     11  C   UNL     1       1.064  12.049  19.801  0.00  0.00    +0.000 C 
ENDBRANCH   6   7
BRANCH   1  13
ATOM     12  O   UNL     1      -0.487   8.452  21.646  0.00  0.00    +0.000 OA
ATOM     13  N   UNL     1       0.675   8.873  21.537  0.00  0.00    +0.000 N 
ATOM     14  O   UNL     1       1.307   9.462  22.424  0.00  0.00    +0.000 OA
ENDBRANCH   1  13
BRANCH   3  15
ATOM     15  S   UNL     1       3.480   5.646  18.697  0.00  0.00    +0.000 S 
ATOM     16  O   UNL     1       3.687   5.469  17.273  0.00  0.00    +0.000 OA
ATOM     17  O   UNL     1       4.583   5.659  19.631  0.00  0.00    +0.000 OA
BRANCH  15  18
ATOM     18  N   UNL     1       2.350   4.493  19.225  0.00  0.00    +0.000 NA
ATOM     19  C   UNL     1       2.773   3.586  20.336  0.00  0.00    +0.000 C 
ATOM     20  C   UNL     1       3.537   2.360  19.806  0.00  0.00    +0.000 C 
ATOM     21  O   UNL     1       2.787   1.659  18.803  0.00  0.00    +0.000 OA
ATOM     22  C   UNL     1       2.476   2.520  17.698  0.00  0.00    +0.000 C 
ATOM     23  C   UNL     1       1.643   3.717  18.162  0.00  0.00    +0.000 C 
ENDBRANCH  15  18
ENDBRANCH   3  15
TORSDOF 4
ENDMDL
MODEL 4
REMARK VINA RESULT:      -7.2      0.958      1.452
REMARK  Name = 
REMARK  4 active torsions:
REMARK  status: ('A' for Active; 'I' for Inactive)
REMARK    1  A    between atoms: N_2  and  C_4
REMARK    2  A    between atoms: C_6  and  S_7
REMARK    3  A    between atoms: S_7  and  N_10
REMARK    4  A    between atoms: C_18  and  N_19
REMARK                            x       y       z     vdW  Elec       q    Type
REMARK                         _______ _______ _______ _____ _____    ______ ____
ROOT
ATOM      1  C   UNL     1       1.284   8.732  20.315  0.00  0.00    +0.000 A 
ATOM      2  C   UNL     1       2.003   7.534  20.115  0.00  0.00    +0.000 A 
ATOM      3  C   UNL     1       2.471   7.228  18.843  0.00  0.00    +0.000 A 
ATOM      4  C   UNL     1       2.185   8.075  17.781  0.00  0.00    +0.000 A 
ATOM      5  C   UNL     1       1.472   9.265  18.010  0.00  0.00    +0.000 A 
ATOM      6  C   UNL     1       1.022   9.670  19.290  0.00  0.00    +0.000 A 
ENDROOT
BRANCH   6   7
ATOM      7  N   UNL     1       0.374  10.880  19.433  0.00  0.00    +0.000 N 
ATOM      8  C   UNL     1       1.000  12.187  19.637  0.00  0.00    +0.000 C 
ATOM      9  C   UNL     1      -0.128  12.982  20.280  0.00  0.00    +0.000 C 
ATOM     10  C   UNL     1      -1.350  12.529  19.497  0.00  0.00    +0.000 C 
ATOM     11  C   UNL     1      -1.042  11.082  19.095  0.00  0.00    +0.000 C 
ENDBRANCH   6   7
BRANCH   1  13
ATOM     12  O   UNL     1      -0.445   8.458  21.795  0.00  0.00    +0.000 OA
ATOM     13  N   UNL     1       0.714   8.872  21.639  0.00  0.00    +0.000 N 
ATOM     14  O   UNL     1       1.396   9.432  22.508  0.00  0.00    +0.000 OA
ENDBRANCH   1  13
BRANCH   3  15
ATOM     15  S   UNL     1       3.360   5.707  18.584  0.00  0.00    +0.000 S 
ATOM     16  O   UNL     1       4.084   5.876  17.340  0.00  0.00    +0.000 OA
ATOM     17  O   UNL     1       4.032   5.356  19.814  0.00  0.00    +0.000 OA
BRANCH  15  18
ATOM     18  N   UNL     1       2.102   4.595  18.329  0.00  0.00    +0.000 NA
ATOM     19  C   UNL     1       1.442   4.024  19.543  0.00  0.00    +0.000 C 
ATOM     20  C   UNL     1       2.202   2.799  20.079  0.00  0.00    +0.000 C 
ATOM     21  O   UNL     1       2.394   1.805  19.061  0.00  0.00    +0.000 OA
ATOM     22  C   UNL     1       3.117   2.344  17.945  0.00  0.00    +0.000 C 
ATOM     23  C   UNL     1       2.359   3.518  17.324  0.00  0.00    +0.000 C 
ENDBRANCH  15  18
ENDBRANCH   3  15
TORSDOF 4
ENDMDL
MODEL 5
REMARK VINA RESULT:      -7.1      1.870      2.622
REMARK  Name = 
REMARK  4 active torsions:
REMARK  status: ('A' for Active; 'I' for Inactive)
REMARK    1  A    between atoms: N_2  and  C_4
REMARK    2  A    between atoms: C_6  and  S_7
REMARK    3  A    between atoms: S_7  and  N_10
REMARK    4  A    between atoms: C_18  and  N_19
REMARK                            x       y       z     vdW  Elec       q    Type
REMARK                         _______ _______ _______ _____ _____    ______ ____
ROOT
ATOM      1  C   UNL     1       1.472   8.498  20.074  0.00  0.00    +0.000 A 
ATOM      2  C   UNL     1       2.268   7.357  19.839  0.00  0.00    +0.000 A 
ATOM      3  C   UNL     1       2.814   7.158  18.577  0.00  0.00    +0.000 A 
ATOM      4  C   UNL     1       2.531   8.054  17.555  0.00  0.00    +0.000 A 
ATOM      5  C   UNL     1       1.739   9.186  17.819  0.00  0.00    +0.000 A 
ATOM      6  C   UNL     1       1.206   9.484  19.096  0.00  0.00    +0.000 A 
ENDROOT
BRANCH   6   7
ATOM      7  N   UNL     1       0.482  10.644  19.279  0.00  0.00    +0.000 N 
ATOM      8  C   UNL     1      -0.966  10.803  19.133  0.00  0.00    +0.000 C 
ATOM      9  C   UNL     1      -1.097  12.298  18.880  0.00  0.00    +0.000 C 
ATOM     10  C   UNL     1      -0.081  12.894  19.841  0.00  0.00    +0.000 C 
ATOM     11  C   UNL     1       1.022  11.836  19.950  0.00  0.00    +0.000 C 
ENDBRANCH   6   7
BRANCH   1  13
ATOM     12  O   UNL     1      -0.340   8.119  21.426  0.00  0.00    +0.000 OA
ATOM     13  N   UNL     1       0.832   8.521  21.373  0.00  0.00    +0.000 N 
ATOM     14  O   UNL     1       1.473   8.981  22.328  0.00  0.00    +0.000 OA
ENDBRANCH   1  13
BRANCH   3  15
ATOM     15  S   UNL     1       3.801   5.709  18.272  0.00  0.00    +0.000 S 
ATOM     16  O   UNL     1       4.597   5.510  19.467  0.00  0.00    +0.000 OA
ATOM     17  O   UNL     1       2.940   4.671  17.751  0.00  0.00    +0.000 OA
BRANCH  15  18
ATOM     18  N   UNL     1       4.825   6.227  17.020  0.00  0.00    +0.000 NA
ATOM     19  C   UNL     1       5.150   5.233  15.952  0.00  0.00    +0.000 C 
ATOM     20  C   UNL     1       6.345   4.348  16.345  0.00  0.00    +0.000 C 
ATOM     21  O   UNL     1       7.491   5.131  16.709  0.00  0.00    +0.000 OA
ATOM     22  C   UNL     1       7.188   6.009  17.803  0.00  0.00    +0.000 C 
ATOM     23  C   UNL     1       6.056   6.969  17.431  0.00  0.00    +0.000 C 
ENDBRANCH  15  18
ENDBRANCH   3  15
TORSDOF 4
ENDMDL
MODEL 6
REMARK VINA RESULT:      -7.0      1.876      2.556
REMARK  Name = 
REMARK  4 active torsions:
REMARK  status: ('A' for Active; 'I' for Inactive)
REMARK    1  A    between atoms: N_2  and  C_4
REMARK    2  A    between atoms: C_6  and  S_7
REMARK    3  A    between atoms: S_7  and  N_10
REMARK    4  A    between atoms: C_18  and  N_19
REMARK                            x       y       z     vdW  Elec       q    Type
REMARK                         _______ _______ _______ _____ _____    ______ ____
ROOT
ATOM      1  C   UNL     1       1.454   8.492  20.085  0.00  0.00    +0.000 A 
ATOM      2  C   UNL     1       2.233   7.334  19.876  0.00  0.00    +0.000 A 
ATOM      3  C   UNL     1       2.793   7.110  18.624  0.00  0.00    +0.000 A 
ATOM      4  C   UNL     1       2.542   7.998  17.587  0.00  0.00    +0.000 A 
ATOM      5  C   UNL     1       1.767   9.147  17.826  0.00  0.00    +0.000 A 
ATOM      6  C   UNL     1       1.221   9.471  19.091  0.00  0.00    +0.000 A 
ENDROOT
BRANCH   6   7
ATOM      7  N   UNL     1       0.516  10.646  19.249  0.00  0.00    +0.000 N 
ATOM      8  C   UNL     1       1.014  11.891  19.837  0.00  0.00    +0.000 C 
ATOM      9  C   UNL     1      -0.275  12.579  20.263  0.00  0.00    +0.000 C 
ATOM     10  C   UNL     1      -1.215  12.283  19.105  0.00  0.00    +0.000 C 
ATOM     11  C   UNL     1      -0.757  10.923  18.567  0.00  0.00    +0.000 C 
ENDBRANCH   6   7
BRANCH   1  13
ATOM     12  O   UNL     1       1.470   8.958  22.329  0.00  0.00    +0.000 OA
ATOM     13  N   UNL     1       0.796   8.544  21.374  0.00  0.00    +0.000 N 
ATOM     14  O   UNL     1      -0.370   8.133  21.447  0.00  0.00    +0.000 OA
ENDBRANCH   1  13
BRANCH   3  15
ATOM     15  S   UNL     1       3.758   5.639  18.352  0.00  0.00    +0.000 S 
ATOM     16  O   UNL     1       4.220   5.217  19.660  0.00  0.00    +0.000 OA
ATOM     17  O   UNL     1       3.008   4.755  17.489  0.00  0.00    +0.000 OA
BRANCH  15  18
ATOM     18  N   UNL     1       5.085   6.235  17.477  0.00  0.00    +0.000 NA
ATOM     19  C   UNL     1       5.174   5.857  16.033  0.00  0.00    +0.000 C 
ATOM     20  C   UNL     1       5.867   4.496  15.846  0.00  0.00    +0.000 C 
ATOM     21  O   UNL     1       7.152   4.460  16.485  0.00  0.00    +0.000 OA
ATOM     22  C   UNL     1       7.035   4.728  17.890  0.00  0.00    +0.000 C 
ATOM     23  C   UNL     1       6.424   6.110  18.130  0.00  0.00    +0.000 C 
ENDBRANCH  15  18
ENDBRANCH   3  15
TORSDOF 4
ENDMDL
MODEL 7
REMARK VINA RESULT:      -6.8      1.243      1.833
REMARK  Name = 
REMARK  4 active torsions:
REMARK  status: ('A' for Active; 'I' for Inactive)
REMARK    1  A    between atoms: N_2  and  C_4
REMARK    2  A    between atoms: C_6  and  S_7
REMARK    3  A    between atoms: S_7  and  N_10
REMARK    4  A    between atoms: C_18  and  N_19
REMARK                            x       y       z     vdW  Elec       q    Type
REMARK                         _______ _______ _______ _____ _____    ______ ____
ROOT
ATOM      1  C   UNL     1       1.229   8.736  20.615  0.00  0.00    +0.000 A 
ATOM      2  C   UNL     1       1.887   7.500  20.443  0.00  0.00    +0.000 A 
ATOM      3  C   UNL     1       2.406   7.175  19.195  0.00  0.00    +0.000 A 
ATOM      4  C   UNL     1       2.230   8.045  18.127  0.00  0.00    +0.000 A 
ATOM      5  C   UNL     1       1.575   9.273  18.329  0.00  0.00    +0.000 A 
ATOM      6  C   UNL     1       1.080   9.696  19.586  0.00  0.00    +0.000 A 
ENDROOT
BRANCH   6   7
ATOM      7  N   UNL     1       0.497  10.940  19.706  0.00  0.00    +0.000 N 
ATOM      8  C   UNL     1       1.191  12.219  19.866  0.00  0.00    +0.000 C 
ATOM      9  C   UNL     1       0.115  13.087  20.503  0.00  0.00    +0.000 C 
ATOM     10  C   UNL     1      -1.140  12.677  19.750  0.00  0.00    +0.000 C 
ATOM     11  C   UNL     1      -0.913  11.206  19.382  0.00  0.00    +0.000 C 
ENDBRANCH   6   7
BRANCH   1  13
ATOM     12  O   UNL     1       1.285   9.404  22.807  0.00  0.00    +0.000 OA
ATOM     13  N   UNL     1       0.596   8.901  21.907  0.00  0.00    +0.000 N 
ATOM     14  O   UNL     1      -0.565   8.490  22.041  0.00  0.00    +0.000 OA
ENDBRANCH   1  13
BRANCH   3  15
ATOM     15  S   UNL     1       3.218   5.607  18.970  0.00  0.00    +0.000 S 
ATOM     16  O   UNL     1       2.950   5.213  17.601  0.00  0.00    +0.000 OA
ATOM     17  O   UNL     1       4.566   5.713  19.481  0.00  0.00    +0.000 OA
BRANCH  15  18
ATOM     18  N   UNL     1       2.335   4.593  20.006  0.00  0.00    +0.000 NA
ATOM     19  C   UNL     1       3.075   3.461  20.644  0.00  0.00    +0.000 C 
ATOM     20  C   UNL     1       3.116   2.224  19.730  0.00  0.00    +0.000 C 
ATOM     21  O   UNL     1       1.802   1.830  19.308  0.00  0.00    +0.000 OA
ATOM     22  C   UNL     1       1.144   2.897  18.610  0.00  0.00    +0.000 C 
ATOM     23  C   UNL     1       1.004   4.128  19.508  0.00  0.00    +0.000 C 
ENDBRANCH  15  18
ENDBRANCH   3  15
TORSDOF 4
ENDMDL
MODEL 8
REMARK VINA RESULT:      -6.7      1.719      2.187
REMARK  Name = 
REMARK  4 active torsions:
REMARK  status: ('A' for Active; 'I' for Inactive)
REMARK    1  A    between atoms: N_2  and  C_4
REMARK    2  A    between atoms: C_6  and  S_7
REMARK    3  A    between atoms: S_7  and  N_10
REMARK    4  A    between atoms: C_18  and  N_19
REMARK                            x       y       z     vdW  Elec       q    Type
REMARK                         _______ _______ _______ _____ _____    ______ ____
ROOT
ATOM      1  C   UNL     1       1.206   8.996  20.405  0.00  0.00    +0.000 A 
ATOM      2  C   UNL     1       1.827   7.805  19.972  0.00  0.00    +0.000 A 
ATOM      3  C   UNL     1       2.222   7.688  18.645  0.00  0.00    +0.000 A 
ATOM      4  C   UNL     1       1.959   8.720  17.755  0.00  0.00    +0.000 A 
ATOM      5  C   UNL     1       1.344   9.899  18.214  0.00  0.00    +0.000 A 
ATOM      6  C   UNL     1       0.975  10.110  19.565  0.00  0.00    +0.000 A 
ENDROOT
BRANCH   6   7
ATOM      7  N   UNL     1       0.424  11.318  19.939  0.00  0.00    +0.000 N 
ATOM      8  C   UNL     1      -1.002  11.633  20.044  0.00  0.00    +0.000 C 
ATOM      9  C   UNL     1      -1.003  13.149  19.915  0.00  0.00    +0.000 C 
ATOM     10  C   UNL     1       0.211  13.559  20.733  0.00  0.00    +0.000 C 
ATOM     11  C   UNL     1       1.193  12.390  20.589  0.00  0.00    +0.000 C 
ENDBRANCH   6   7
BRANCH   1  13
ATOM     12  O   UNL     1       1.463   9.334  22.657  0.00  0.00    +0.000 OA
ATOM     13  N   UNL     1       0.700   8.947  21.760  0.00  0.00    +0.000 N 
ATOM     14  O   UNL     1      -0.435   8.482  21.940  0.00  0.00    +0.000 OA
ENDBRANCH   1  13
BRANCH   3  15
ATOM     15  S   UNL     1       2.986   6.178  18.092  0.00  0.00    +0.000 S 
ATOM     16  O   UNL     1       1.898   5.268  17.795  0.00  0.00    +0.000 OA
ATOM     17  O   UNL     1       3.992   6.509  17.109  0.00  0.00    +0.000 OA
BRANCH  15  18
ATOM     18  N   UNL     1       3.773   5.638  19.496  0.00  0.00    +0.000 NA
ATOM     19  C   UNL     1       5.254   5.449  19.415  0.00  0.00    +0.000 C 
ATOM     20  C   UNL     1       5.619   4.058  18.869  0.00  0.00    +0.000 C 
ATOM     21  O   UNL     1       4.988   3.009  19.620  0.00  0.00    +0.000 OA
ATOM     22  C   UNL     1       3.561   3.151  19.603  0.00  0.00    +0.000 C 
ATOM     23  C   UNL     1       3.142   4.489  20.214  0.00  0.00    +0.000 C 
ENDBRANCH  15  18
ENDBRANCH   3  15
TORSDOF 4
ENDMDL
MODEL 9
REMARK VINA RESULT:      -6.7      1.747      2.441
REMARK  Name = 
REMARK  4 active torsions:
REMARK  status: ('A' for Active; 'I' for Inactive)
REMARK    1  A    between atoms: N_2  and  C_4
REMARK    2  A    between atoms: C_6  and  S_7
REMARK    3  A    between atoms: S_7  and  N_10
REMARK    4  A    between atoms: C_18  and  N_19
REMARK                            x       y       z     vdW  Elec       q    Type
REMARK                         _______ _______ _______ _____ _____    ______ ____
ROOT
ATOM      1  C   UNL     1       1.213   8.982  20.430  0.00  0.00    +0.000 A 
ATOM      2  C   UNL     1       1.829   7.791  19.988  0.00  0.00    +0.000 A 
ATOM      3  C   UNL     1       2.225   7.684  18.661  0.00  0.00    +0.000 A 
ATOM      4  C   UNL     1       1.968   8.724  17.778  0.00  0.00    +0.000 A 
ATOM      5  C   UNL     1       1.359   9.902  18.246  0.00  0.00    +0.000 A 
ATOM      6  C   UNL     1       0.989  10.104  19.598  0.00  0.00    +0.000 A 
ENDROOT
BRANCH   6   7
ATOM      7  N   UNL     1       0.443  11.312  19.982  0.00  0.00    +0.000 N 
ATOM      8  C   UNL     1       1.169  12.477  20.490  0.00  0.00    +0.000 C 
ATOM      9  C   UNL     1       0.083  13.220  21.253  0.00  0.00    +0.000 C 
ATOM     10  C   UNL     1      -1.130  13.069  20.349  0.00  0.00    +0.000 C 
ATOM     11  C   UNL     1      -0.930  11.720  19.648  0.00  0.00    +0.000 C 
ENDBRANCH   6   7
BRANCH   1  13
ATOM     12  O   UNL     1      -0.444   8.481  21.931  0.00  0.00    +0.000 OA
ATOM     13  N   UNL     1       0.705   8.925  21.784  0.00  0.00    +0.000 N 
ATOM     14  O   UNL     1       1.424   9.361  22.693  0.00  0.00    +0.000 OA
ENDBRANCH   1  13
BRANCH   3  15
ATOM     15  S   UNL     1       2.982   6.174  18.097  0.00  0.00    +0.000 S 
ATOM     16  O   UNL     1       1.890   5.269  17.796  0.00  0.00    +0.000 OA
ATOM     17  O   UNL     1       3.987   6.508  17.113  0.00  0.00    +0.000 OA
BRANCH  15  18
ATOM     18  N   UNL     1       3.770   5.623  19.496  0.00  0.00    +0.000 NA
ATOM     19  C   UNL     1       5.253   5.447  19.416  0.00  0.00    +0.000 C 
ATOM     20  C   UNL     1       5.631   4.066  18.853  0.00  0.00    +0.000 C 
ATOM     21  O   UNL     1       5.007   3.002  19.588  0.00  0.00    +0.000 OA
ATOM     22  C   UNL     1       3.579   3.132  19.570  0.00  0.00    +0.000 C 
ATOM     23  C   UNL     1       3.147   4.459  20.197  0.00  0.00    +0.000 C 
ENDBRANCH  15  18
ENDBRANCH   3  15
TORSDOF 4
ENDMDL
