MODEL 1
REMARK VINA RESULT:      -7.2      0.000      0.000
REMARK  Name = 
REMARK  7 active torsions:
REMARK  status: ('A' for Active; 'I' for Inactive)
REMARK    1  A    between atoms: C_1  and  C_2
REMARK    2  A    between atoms: C_4  and  C_5
REMARK    3  A    between atoms: C_10  and  C_12
REMARK    4  A    between atoms: C_12  and  N_13
REMARK    5  A    between atoms: N_13  and  C_14
REMARK    6  A    between atoms: N_13  and  C_15
REMARK    7  A    between atoms: C_17  and  C_18
REMARK                            x       y       z     vdW  Elec       q    Type
REMARK                         _______ _______ _______ _____ _____    ______ ____
ROOT
ATOM      1  C   UNL     1       1.208   8.333  21.574  0.00  0.00    +0.000 C 
ATOM      2  C   UNL     1       1.733   7.724  20.313  0.00  0.00    +0.000 A 
ATOM      3  S   UNL     1       2.221   6.120  20.213  0.00  0.00    +0.000 S 
ATOM      4  C   UNL     1       2.463   6.098  18.557  0.00  0.00    +0.000 A 
ATOM      5  C   UNL     1       2.240   7.370  18.063  0.00  0.00    +0.000 A 
ATOM      6  C   UNL     1       1.846   8.313  19.039  0.00  0.00    +0.000 A 
ENDROOT
BRANCH   6   7
ATOM      7  C   UNL     1       1.553   9.745  18.707  0.00  0.00    +0.000 C 
ATOM      8  O   UNL     1       2.072  10.256  17.725  0.00  0.00    +0.000 OA
ATOM      9  N   UNL     1       0.712  10.475  19.502  0.00  0.00    +0.000 N 
ATOM     10  C   UNL     1       0.347  11.832  19.315  0.00  0.00    +0.000 A 
ATOM     11  N   UNL     1       0.646  12.578  18.230  0.00  0.00    +0.000 NA
ATOM     12  C   UNL     1       0.169  13.847  18.365  0.00  0.00    +0.000 A 
ATOM     13  C   UNL     1      -0.494  14.094  19.563  0.00  0.00    +0.000 A 
ATOM     14 CL   UNL     1      -1.187  15.618  20.073  0.00  0.00    +0.000 Cl
ATOM     15  S   UNL     1      -0.516  12.694  20.475  0.00  0.00    +0.000 S 
ATOM     16  H   UNL     1       0.302  10.050  20.338  0.00  0.00    +0.000 HD
ENDBRANCH   6   7
BRANCH   4  17
ATOM     17  C   UNL     1       2.771   4.866  17.756  0.00  0.00    +0.000 C 
ATOM     18  C   UNL     1       1.732   3.752  17.987  0.00  0.00    +0.000 C 
ATOM     19  C   UNL     1       2.463   2.548  17.448  0.00  0.00    +0.000 C 
ATOM     20  C   UNL     1       3.868   2.753  18.019  0.00  0.00    +0.000 C 
ATOM     21  N   UNL     1       4.028   4.192  18.105  0.00  0.00    +0.000 N 
ATOM     22  C   UNL     1       5.239   4.753  18.444  0.00  0.00    +0.000 C 
ATOM     23  O   UNL     1       6.169   4.020  18.721  0.00  0.00    +0.000 OA
BRANCH  22  24
ATOM     24  C   UNL     1       5.472   6.266  18.514  0.00  0.00    +0.000 C 
BRANCH  24  25
ATOM     25  N   UNL     1       6.066   6.865  17.300  0.00  0.00    +0.000 NA
ATOM     26  C   UNL     1       7.487   7.213  17.479  0.00  0.00    +0.000 C 
ATOM     27  C   UNL     1       5.958   5.899  16.188  0.00  0.00    +0.000 C 
ENDBRANCH  24  25
ENDBRANCH  22  24
ENDBRANCH   4  17
TORSDOF 4
ENDMDL
MODEL 2
REMARK VINA RESULT:      -7.0      2.440      3.973
REMARK  Name = 
REMARK  7 active torsions:
REMARK  status: ('A' for Active; 'I' for Inactive)
REMARK    1  A    between atoms: C_1  and  C_2
REMARK    2  A    between atoms: C_4  and  C_5
REMARK    3  A    between atoms: C_10  and  C_12
REMARK    4  A    between atoms: C_12  and  N_13
REMARK    5  A    between atoms: N_13  and  C_14
REMARK    6  A    between atoms: N_13  and  C_15
REMARK    7  A    between atoms: C_17  and  C_18
REMARK                            x       y       z     vdW  Elec       q    Type
REMARK                         _______ _______ _______ _____ _____    ______ ____
ROOT
ATOM      1  C   UNL     1       1.674   9.941  17.737  0.00  0.00    +0.000 C 
ATOM      2  C   UNL     1       2.120   8.628  18.296  0.00  0.00    +0.000 A 
ATOM      3  S   UNL     1       3.146   7.588  17.466  0.00  0.00    +0.000 S 
ATOM      4  C   UNL     1       3.364   6.498  18.718  0.00  0.00    +0.000 A 
ATOM      5  C   UNL     1       2.576   6.888  19.783  0.00  0.00    +0.000 A 
ATOM      6  C   UNL     1       1.847   8.079  19.563  0.00  0.00    +0.000 A 
ENDROOT
BRANCH   6   7
ATOM      7  C   UNL     1       0.936   8.672  20.596  0.00  0.00    +0.000 C 
ATOM      8  O   UNL     1       0.307   7.935  21.342  0.00  0.00    +0.000 OA
ATOM      9  N   UNL     1       0.809  10.030  20.700  0.00  0.00    +0.000 N 
ATOM     10  C   UNL     1      -0.011  10.729  21.621  0.00  0.00    +0.000 A 
ATOM     11  N   UNL     1      -0.680  10.169  22.652  0.00  0.00    +0.000 NA
ATOM     12  C   UNL     1      -1.391  11.106  23.337  0.00  0.00    +0.000 A 
ATOM     13  C   UNL     1      -1.287  12.398  22.833  0.00  0.00    +0.000 A 
ATOM     14 CL   UNL     1      -2.101  13.822  23.444  0.00  0.00    +0.000 Cl
ATOM     15  S   UNL     1      -0.261  12.390  21.514  0.00  0.00    +0.000 S 
ATOM     16  H   UNL     1       1.317  10.641  20.055  0.00  0.00    +0.000 HD
ENDBRANCH   6   7
BRANCH   4  17
ATOM     17  C   UNL     1       4.337   5.354  18.693  0.00  0.00    +0.000 C 
ATOM     18  C   UNL     1       5.729   5.791  18.197  0.00  0.00    +0.000 C 
ATOM     19  C   UNL     1       6.357   4.461  17.866  0.00  0.00    +0.000 C 
ATOM     20  C   UNL     1       5.210   3.742  17.151  0.00  0.00    +0.000 C 
ATOM     21  N   UNL     1       4.004   4.271  17.760  0.00  0.00    +0.000 N 
ATOM     22  C   UNL     1       2.767   3.741  17.463  0.00  0.00    +0.000 C 
ATOM     23  O   UNL     1       2.694   2.848  16.640  0.00  0.00    +0.000 OA
BRANCH  22  24
ATOM     24  C   UNL     1       1.467   4.237  18.104  0.00  0.00    +0.000 C 
BRANCH  24  25
ATOM     25  N   UNL     1       0.910   3.356  19.153  0.00  0.00    +0.000 NA
ATOM     26  C   UNL     1       1.656   2.091  19.282  0.00  0.00    +0.000 C 
ATOM     27  C   UNL     1       0.960   4.063  20.448  0.00  0.00    +0.000 C 
ENDBRANCH  24  25
ENDBRANCH  22  24
ENDBRANCH   4  17
TORSDOF 4
ENDMDL
MODEL 3
REMARK VINA RESULT:      -7.0      1.043      1.163
REMARK  Name = 
REMARK  7 active torsions:
REMARK  status: ('A' for Active; 'I' for Inactive)
REMARK    1  A    between atoms: C_1  and  C_2
REMARK    2  A    between atoms: C_4  and  C_5
REMARK    3  A    between atoms: C_10  and  C_12
REMARK    4  A    between atoms: C_12  and  N_13
REMARK    5  A    between atoms: N_13  and  C_14
REMARK    6  A    between atoms: N_13  and  C_15
REMARK    7  A    between atoms: C_17  and  C_18
REMARK                            x       y       z     vdW  Elec       q    Type
REMARK                         _______ _______ _______ _____ _____    ______ ____
ROOT
ATOM      1  C   UNL     1       1.089   8.367  21.586  0.00  0.00    +0.000 C 
ATOM      2  C   UNL     1       1.636   7.608  20.419  0.00  0.00    +0.000 A 
ATOM      3  S   UNL     1       1.885   5.946  20.452  0.00  0.00    +0.000 S 
ATOM      4  C   UNL     1       2.280   5.782  18.833  0.00  0.00    +0.000 A 
ATOM      5  C   UNL     1       2.300   7.037  18.255  0.00  0.00    +0.000 A 
ATOM      6  C   UNL     1       1.959   8.089  19.136  0.00  0.00    +0.000 A 
ENDROOT
BRANCH   6   7
ATOM      7  C   UNL     1       1.918   9.524  18.703  0.00  0.00    +0.000 C 
ATOM      8  O   UNL     1       2.273   9.825  17.573  0.00  0.00    +0.000 OA
ATOM      9  N   UNL     1       1.487  10.490  19.571  0.00  0.00    +0.000 N 
ATOM     10  C   UNL     1       1.397  11.879  19.304  0.00  0.00    +0.000 A 
ATOM     11  N   UNL     1       1.572  12.455  18.096  0.00  0.00    +0.000 NA
ATOM     12  C   UNL     1       1.438  13.807  18.176  0.00  0.00    +0.000 A 
ATOM     13  C   UNL     1       1.169  14.290  19.453  0.00  0.00    +0.000 A 
ATOM     14 CL   UNL     1       0.984  15.968  19.914  0.00  0.00    +0.000 Cl
ATOM     15  S   UNL     1       1.067  13.002  20.514  0.00  0.00    +0.000 S 
ATOM     16  H   UNL     1       1.217  10.235  20.525  0.00  0.00    +0.000 HD
ENDBRANCH   6   7
BRANCH   4  17
ATOM     17  C   UNL     1       2.476   4.469  18.133  0.00  0.00    +0.000 C 
ATOM     18  C   UNL     1       1.280   3.520  18.340  0.00  0.00    +0.000 C 
ATOM     19  C   UNL     1       1.878   2.196  17.933  0.00  0.00    +0.000 C 
ATOM     20  C   UNL     1       3.251   2.252  18.606  0.00  0.00    +0.000 C 
ATOM     21  N   UNL     1       3.599   3.660  18.623  0.00  0.00    +0.000 N 
ATOM     22  C   UNL     1       4.847   4.079  19.029  0.00  0.00    +0.000 C 
ATOM     23  O   UNL     1       5.645   3.250  19.423  0.00  0.00    +0.000 OA
BRANCH  22  24
ATOM     24  C   UNL     1       5.279   5.549  19.031  0.00  0.00    +0.000 C 
BRANCH  24  25
ATOM     25  N   UNL     1       6.302   5.903  18.024  0.00  0.00    +0.000 NA
ATOM     26  C   UNL     1       5.900   7.049  17.189  0.00  0.00    +0.000 C 
ATOM     27  C   UNL     1       7.558   6.248  18.719  0.00  0.00    +0.000 C 
ENDBRANCH  24  25
ENDBRANCH  22  24
ENDBRANCH   4  17
TORSDOF 4
ENDMDL
MODEL 4
REMARK VINA RESULT:      -7.0      1.063      1.094
REMARK  Name = 
REMARK  7 active torsions:
REMARK  status: ('A' for Active; 'I' for Inactive)
REMARK    1  A    between atoms: C_1  and  C_2
REMARK    2  A    between atoms: C_4  and  C_5
REMARK    3  A    between atoms: C_10  and  C_12
REMARK    4  A    between atoms: C_12  and  N_13
REMARK    5  A    between atoms: N_13  and  C_14
REMARK    6  A    between atoms: N_13  and  C_15
REMARK    7  A    between atoms: C_17  and  C_18
REMARK                            x       y       z     vdW  Elec       q    Type
REMARK                         _______ _______ _______ _____ _____    ______ ____
ROOT
ATOM      1  C   UNL     1       1.260   8.386  21.672  0.00  0.00    +0.000 C 
ATOM      2  C   UNL     1       1.685   7.781  20.372  0.00  0.00    +0.000 A 
ATOM      3  S   UNL     1       2.312   6.226  20.256  0.00  0.00    +0.000 S 
ATOM      4  C   UNL     1       2.352   6.164  18.583  0.00  0.00    +0.000 A 
ATOM      5  C   UNL     1       1.947   7.388  18.087  0.00  0.00    +0.000 A 
ATOM      6  C   UNL     1       1.584   8.328  19.079  0.00  0.00    +0.000 A 
ENDROOT
BRANCH   6   7
ATOM      7  C   UNL     1       1.115   9.712  18.748  0.00  0.00    +0.000 C 
ATOM      8  O   UNL     1       0.173   9.865  17.983  0.00  0.00    +0.000 OA
ATOM      9  N   UNL     1       1.739  10.798  19.299  0.00  0.00    +0.000 N 
ATOM     10  C   UNL     1       1.408  12.158  19.077  0.00  0.00    +0.000 A 
ATOM     11  N   UNL     1       0.320  12.599  18.410  0.00  0.00    +0.000 NA
ATOM     12  C   UNL     1       0.300  13.959  18.355  0.00  0.00    +0.000 A 
ATOM     13  C   UNL     1       1.381  14.582  18.970  0.00  0.00    +0.000 A 
ATOM     14 CL   UNL     1       1.686  16.304  19.044  0.00  0.00    +0.000 Cl
ATOM     15  S   UNL     1       2.382  13.416  19.628  0.00  0.00    +0.000 S 
ATOM     16  H   UNL     1       2.544  10.665  19.917  0.00  0.00    +0.000 HD
ENDBRANCH   6   7
BRANCH   4  17
ATOM     17  C   UNL     1       2.680   4.936  17.783  0.00  0.00    +0.000 C 
ATOM     18  C   UNL     1       1.688   3.789  18.054  0.00  0.00    +0.000 C 
ATOM     19  C   UNL     1       2.444   2.606  17.504  0.00  0.00    +0.000 C 
ATOM     20  C   UNL     1       3.857   2.865  18.031  0.00  0.00    +0.000 C 
ATOM     21  N   UNL     1       3.969   4.310  18.101  0.00  0.00    +0.000 N 
ATOM     22  C   UNL     1       5.169   4.916  18.400  0.00  0.00    +0.000 C 
ATOM     23  O   UNL     1       6.132   4.218  18.655  0.00  0.00    +0.000 OA
BRANCH  22  24
ATOM     24  C   UNL     1       5.350   6.436  18.450  0.00  0.00    +0.000 C 
BRANCH  24  25
ATOM     25  N   UNL     1       5.964   7.034  17.246  0.00  0.00    +0.000 NA
ATOM     26  C   UNL     1       7.438   6.986  17.279  0.00  0.00    +0.000 C 
ATOM     27  C   UNL     1       5.500   6.295  16.055  0.00  0.00    +0.000 C 
ENDBRANCH  24  25
ENDBRANCH  22  24
ENDBRANCH   4  17
TORSDOF 4
ENDMDL
MODEL 5
REMARK VINA RESULT:      -6.9      3.777      8.860
REMARK  Name = 
REMARK  7 active torsions:
REMARK  status: ('A' for Active; 'I' for Inactive)
REMARK    1  A    between atoms: C_1  and  C_2
REMARK    2  A    between atoms: C_4  and  C_5
REMARK    3  A    between atoms: C_10  and  C_12
REMARK    4  A    between atoms: C_12  and  N_13
REMARK    5  A    between atoms: N_13  and  C_14
REMARK    6  A    between atoms: N_13  and  C_15
REMARK    7  A    between atoms: C_17  and  C_18
REMARK                            x       y       z     vdW  Elec       q    Type
REMARK                         _______ _______ _______ _____ _____    ______ ____
ROOT
ATOM      1  C   UNL     1      -1.530  10.012  17.560  0.00  0.00    +0.000 C 
ATOM      2  C   UNL     1      -0.754  10.738  18.613  0.00  0.00    +0.000 A 
ATOM      3  S   UNL     1      -1.409  11.988  19.524  0.00  0.00    +0.000 S 
ATOM      4  C   UNL     1      -0.116  12.153  20.575  0.00  0.00    +0.000 A 
ATOM      5  C   UNL     1       0.884  11.284  20.182  0.00  0.00    +0.000 A 
ATOM      6  C   UNL     1       0.556  10.487  19.062  0.00  0.00    +0.000 A 
ENDROOT
BRANCH   6   7
ATOM      7  C   UNL     1       1.503   9.479  18.482  0.00  0.00    +0.000 C 
ATOM      8  O   UNL     1       2.037   9.702  17.405  0.00  0.00    +0.000 OA
ATOM      9  N   UNL     1       1.765   8.317  19.155  0.00  0.00    +0.000 N 
ATOM     10  C   UNL     1       2.631   7.278  18.731  0.00  0.00    +0.000 A 
ATOM     11  N   UNL     1       3.460   7.339  17.667  0.00  0.00    +0.000 NA
ATOM     12  C   UNL     1       4.144   6.171  17.516  0.00  0.00    +0.000 A 
ATOM     13  C   UNL     1       3.839   5.192  18.456  0.00  0.00    +0.000 A 
ATOM     14 CL   UNL     1       4.498   3.572  18.523  0.00  0.00    +0.000 Cl
ATOM     15  S   UNL     1       2.707   5.797  19.526  0.00  0.00    +0.000 S 
ATOM     16  H   UNL     1       1.294   8.124  20.043  0.00  0.00    +0.000 HD
ENDBRANCH   6   7
BRANCH   4  17
ATOM     17  C   UNL     1      -0.112  13.034  21.791  0.00  0.00    +0.000 C 
ATOM     18  C   UNL     1      -1.300  12.733  22.725  0.00  0.00    +0.000 C 
ATOM     19  C   UNL     1      -1.317  13.967  23.591  0.00  0.00    +0.000 C 
ATOM     20  C   UNL     1      -1.099  15.077  22.560  0.00  0.00    +0.000 C 
ATOM     21  N   UNL     1      -0.286  14.467  21.525  0.00  0.00    +0.000 N 
ATOM     22  C   UNL     1       0.232  15.219  20.494  0.00  0.00    +0.000 C 
ATOM     23  O   UNL     1      -0.043  16.403  20.434  0.00  0.00    +0.000 OA
BRANCH  22  24
ATOM     24  C   UNL     1       1.126  14.634  19.396  0.00  0.00    +0.000 C 
BRANCH  24  25
ATOM     25  N   UNL     1       2.559  14.983  19.502  0.00  0.00    +0.000 NA
ATOM     26  C   UNL     1       3.261  14.185  20.523  0.00  0.00    +0.000 C 
ATOM     27  C   UNL     1       3.207  14.747  18.197  0.00  0.00    +0.000 C 
ENDBRANCH  24  25
ENDBRANCH  22  24
ENDBRANCH   4  17
TORSDOF 4
ENDMDL
MODEL 6
REMARK VINA RESULT:      -6.8      3.865      9.039
REMARK  Name = 
REMARK  7 active torsions:
REMARK  status: ('A' for Active; 'I' for Inactive)
REMARK    1  A    between atoms: C_1  and  C_2
REMARK    2  A    between atoms: C_4  and  C_5
REMARK    3  A    between atoms: C_10  and  C_12
REMARK    4  A    between atoms: C_12  and  N_13
REMARK    5  A    between atoms: N_13  and  C_14
REMARK    6  A    between atoms: N_13  and  C_15
REMARK    7  A    between atoms: C_17  and  C_18
REMARK                            x       y       z     vdW  Elec       q    Type
REMARK                         _______ _______ _______ _____ _____    ______ ____
ROOT
ATOM      1  C   UNL     1      -1.704  10.093  18.316  0.00  0.00    +0.000 C 
ATOM      2  C   UNL     1      -0.542  11.020  18.487  0.00  0.00    +0.000 A 
ATOM      3  S   UNL     1      -0.646  12.670  18.189  0.00  0.00    +0.000 S 
ATOM      4  C   UNL     1       0.877  13.062  18.766  0.00  0.00    +0.000 A 
ATOM      5  C   UNL     1       1.522  11.896  19.131  0.00  0.00    +0.000 A 
ATOM      6  C   UNL     1       0.749  10.725  18.964  0.00  0.00    +0.000 A 
ENDROOT
BRANCH   6   7
ATOM      7  C   UNL     1       1.266   9.359  19.304  0.00  0.00    +0.000 C 
ATOM      8  O   UNL     1       0.951   8.842  20.367  0.00  0.00    +0.000 OA
ATOM      9  N   UNL     1       2.085   8.698  18.431  0.00  0.00    +0.000 N 
ATOM     10  C   UNL     1       2.649   7.411  18.618  0.00  0.00    +0.000 A 
ATOM     11  N   UNL     1       2.339   6.562  19.620  0.00  0.00    +0.000 NA
ATOM     12  C   UNL     1       3.066   5.414  19.529  0.00  0.00    +0.000 A 
ATOM     13  C   UNL     1       3.956   5.373  18.460  0.00  0.00    +0.000 A 
ATOM     14 CL   UNL     1       5.066   4.075  18.080  0.00  0.00    +0.000 Cl
ATOM     15  S   UNL     1       3.820   6.789  17.582  0.00  0.00    +0.000 S 
ATOM     16  H   UNL     1       2.367   9.148  17.555  0.00  0.00    +0.000 HD
ENDBRANCH   6   7
BRANCH   4  17
ATOM     17  C   UNL     1       1.388  14.463  18.940  0.00  0.00    +0.000 C 
ATOM     18  C   UNL     1       2.730  14.682  18.215  0.00  0.00    +0.000 C 
ATOM     19  C   UNL     1       3.217  15.951  18.868  0.00  0.00    +0.000 C 
ATOM     20  C   UNL     1       2.896  15.688  20.341  0.00  0.00    +0.000 C 
ATOM     21  N   UNL     1       1.718  14.841  20.319  0.00  0.00    +0.000 N 
ATOM     22  C   UNL     1       1.053  14.518  21.482  0.00  0.00    +0.000 C 
ATOM     23  O   UNL     1       1.497  14.916  22.541  0.00  0.00    +0.000 OA
BRANCH  22  24
ATOM     24  C   UNL     1      -0.215  13.658  21.511  0.00  0.00    +0.000 C 
BRANCH  24  25
ATOM     25  N   UNL     1      -0.427  12.899  22.762  0.00  0.00    +0.000 NA
ATOM     26  C   UNL     1      -1.585  13.388  23.531  0.00  0.00    +0.000 C 
ATOM     27  C   UNL     1      -0.654  11.479  22.426  0.00  0.00    +0.000 C 
ENDBRANCH  24  25
ENDBRANCH  22  24
ENDBRANCH   4  17
TORSDOF 4
ENDMDL
MODEL 7
REMARK VINA RESULT:      -6.7      4.201      8.991
REMARK  Name = 
REMARK  7 active torsions:
REMARK  status: ('A' for Active; 'I' for Inactive)
REMARK    1  A    between atoms: C_1  and  C_2
REMARK    2  A    between atoms: C_4  and  C_5
REMARK    3  A    between atoms: C_10  and  C_12
REMARK    4  A    between atoms: C_12  and  N_13
REMARK    5  A    between atoms: N_13  and  C_14
REMARK    6  A    between atoms: N_13  and  C_15
REMARK    7  A    between atoms: C_17  and  C_18
REMARK                            x       y       z     vdW  Elec       q    Type
REMARK                         _______ _______ _______ _____ _____    ______ ____
ROOT
ATOM      1  C   UNL     1       2.093  11.916  18.336  0.00  0.00    +0.000 C 
ATOM      2  C   UNL     1       0.847  11.920  19.164  0.00  0.00    +0.000 A 
ATOM      3  S   UNL     1      -0.164  13.257  19.276  0.00  0.00    +0.000 S 
ATOM      4  C   UNL     1      -1.383  12.500  20.139  0.00  0.00    +0.000 A 
ATOM      5  C   UNL     1      -0.985  11.207  20.421  0.00  0.00    +0.000 A 
ATOM      6  C   UNL     1       0.282  10.860  19.898  0.00  0.00    +0.000 A 
ENDROOT
BRANCH   6   7
ATOM      7  C   UNL     1       0.893   9.505  20.090  0.00  0.00    +0.000 C 
ATOM      8  O   UNL     1       0.776   8.937  21.167  0.00  0.00    +0.000 OA
ATOM      9  N   UNL     1       1.577   8.909  19.066  0.00  0.00    +0.000 N 
ATOM     10  C   UNL     1       2.206   7.640  19.103  0.00  0.00    +0.000 A 
ATOM     11  N   UNL     1       2.095   6.742  20.105  0.00  0.00    +0.000 NA
ATOM     12  C   UNL     1       2.835   5.629  19.847  0.00  0.00    +0.000 A 
ATOM     13  C   UNL     1       3.535   5.662  18.645  0.00  0.00    +0.000 A 
ATOM     14 CL   UNL     1       4.609   4.424  18.031  0.00  0.00    +0.000 Cl
ATOM     15  S   UNL     1       3.208   7.102  17.862  0.00  0.00    +0.000 S 
ATOM     16  H   UNL     1       1.694   9.402  18.176  0.00  0.00    +0.000 HD
ENDBRANCH   6   7
BRANCH   4  17
ATOM     17  C   UNL     1      -2.716  13.116  20.452  0.00  0.00    +0.000 C 
ATOM     18  C   UNL     1      -3.004  13.132  21.966  0.00  0.00    +0.000 C 
ATOM     19  C   UNL     1      -4.491  13.379  21.983  0.00  0.00    +0.000 C 
ATOM     20  C   UNL     1      -4.976  12.444  20.872  0.00  0.00    +0.000 C 
ATOM     21  N   UNL     1      -3.879  12.391  19.926  0.00  0.00    +0.000 N 
ATOM     22  C   UNL     1      -4.017  11.752  18.713  0.00  0.00    +0.000 C 
ATOM     23  O   UNL     1      -5.064  11.186  18.464  0.00  0.00    +0.000 OA
BRANCH  22  24
ATOM     24  C   UNL     1      -2.902  11.696  17.663  0.00  0.00    +0.000 C 
BRANCH  24  25
ATOM     25  N   UNL     1      -2.908  10.490  16.808  0.00  0.00    +0.000 NA
ATOM     26  C   UNL     1      -3.069  10.813  15.378  0.00  0.00    +0.000 C 
ATOM     27  C   UNL     1      -1.629   9.773  16.983  0.00  0.00    +0.000 C 
ENDBRANCH  24  25
ENDBRANCH  22  24
ENDBRANCH   4  17
TORSDOF 4
ENDMDL
MODEL 8
REMARK VINA RESULT:      -6.6      1.648      3.126
REMARK  Name = 
REMARK  7 active torsions:
REMARK  status: ('A' for Active; 'I' for Inactive)
REMARK    1  A    between atoms: C_1  and  C_2
REMARK    2  A    between atoms: C_4  and  C_5
REMARK    3  A    between atoms: C_10  and  C_12
REMARK    4  A    between atoms: C_12  and  N_13
REMARK    5  A    between atoms: N_13  and  C_14
REMARK    6  A    between atoms: N_13  and  C_15
REMARK    7  A    between atoms: C_17  and  C_18
REMARK                            x       y       z     vdW  Elec       q    Type
REMARK                         _______ _______ _______ _____ _____    ______ ____
ROOT
ATOM      1  C   UNL     1       0.885   7.738  21.254  0.00  0.00    +0.000 C 
ATOM      2  C   UNL     1       1.857   7.543  20.134  0.00  0.00    +0.000 A 
ATOM      3  S   UNL     1       2.974   6.288  20.109  0.00  0.00    +0.000 S 
ATOM      4  C   UNL     1       3.531   6.563  18.554  0.00  0.00    +0.000 A 
ATOM      5  C   UNL     1       2.907   7.690  18.056  0.00  0.00    +0.000 A 
ATOM      6  C   UNL     1       1.970   8.275  18.937  0.00  0.00    +0.000 A 
ENDROOT
BRANCH   6   7
ATOM      7  C   UNL     1       1.185   9.503  18.585  0.00  0.00    +0.000 C 
ATOM      8  O   UNL     1       0.309   9.436  17.733  0.00  0.00    +0.000 OA
ATOM      9  N   UNL     1       1.448  10.690  19.212  0.00  0.00    +0.000 N 
ATOM     10  C   UNL     1       0.793  11.925  18.981  0.00  0.00    +0.000 A 
ATOM     11  N   UNL     1      -0.308  12.094  18.217  0.00  0.00    +0.000 NA
ATOM     12  C   UNL     1      -0.681  13.403  18.183  0.00  0.00    +0.000 A 
ATOM     13  C   UNL     1       0.138  14.260  18.912  0.00  0.00    +0.000 A 
ATOM     14 CL   UNL     1      -0.029  15.997  19.043  0.00  0.00    +0.000 Cl
ATOM     15  S   UNL     1       1.346  13.369  19.645  0.00  0.00    +0.000 S 
ATOM     16  H   UNL     1       2.200  10.745  19.904  0.00  0.00    +0.000 HD
ENDBRANCH   6   7
BRANCH   4  17
ATOM     17  C   UNL     1       4.476   5.660  17.815  0.00  0.00    +0.000 C 
ATOM     18  C   UNL     1       5.246   6.409  16.711  0.00  0.00    +0.000 C 
ATOM     19  C   UNL     1       5.766   5.263  15.881  0.00  0.00    +0.000 C 
ATOM     20  C   UNL     1       4.544   4.345  15.814  0.00  0.00    +0.000 C 
ATOM     21  N   UNL     1       3.840   4.572  17.062  0.00  0.00    +0.000 N 
ATOM     22  C   UNL     1       2.756   3.799  17.418  0.00  0.00    +0.000 C 
ATOM     23  O   UNL     1       2.363   2.949  16.643  0.00  0.00    +0.000 OA
BRANCH  22  24
ATOM     24  C   UNL     1       2.000   3.973  18.739  0.00  0.00    +0.000 C 
BRANCH  24  25
ATOM     25  N   UNL     1       2.051   2.808  19.647  0.00  0.00    +0.000 NA
ATOM     26  C   UNL     1       3.414   2.533  20.138  0.00  0.00    +0.000 C 
ATOM     27  C   UNL     1       1.179   3.068  20.809  0.00  0.00    +0.000 C 
ENDBRANCH  24  25
ENDBRANCH  22  24
ENDBRANCH   4  17
TORSDOF 4
ENDMDL
MODEL 9
REMARK VINA RESULT:      -6.6      3.736      8.994
REMARK  Name = 
REMARK  7 active torsions:
REMARK  status: ('A' for Active; 'I' for Inactive)
REMARK    1  A    between atoms: C_1  and  C_2
REMARK    2  A    between atoms: C_4  and  C_5
REMARK    3  A    between atoms: C_10  and  C_12
REMARK    4  A    between atoms: C_12  and  N_13
REMARK    5  A    between atoms: N_13  and  C_14
REMARK    6  A    between atoms: N_13  and  C_15
REMARK    7  A    between atoms: C_17  and  C_18
REMARK                            x       y       z     vdW  Elec       q    Type
REMARK                         _______ _______ _______ _____ _____    ______ ____
ROOT
ATOM      1  C   UNL     1      -1.430  10.353  18.680  0.00  0.00    +0.000 C 
ATOM      2  C   UNL     1      -0.264  11.284  18.565  0.00  0.00    +0.000 A 
ATOM      3  S   UNL     1      -0.426  12.955  18.622  0.00  0.00    +0.000 S 
ATOM      4  C   UNL     1       1.211  13.303  18.648  0.00  0.00    +0.000 A 
ATOM      5  C   UNL     1       1.915  12.119  18.534  0.00  0.00    +0.000 A 
ATOM      6  C   UNL     1       1.104  10.964  18.465  0.00  0.00    +0.000 A 
ENDROOT
BRANCH   6   7
ATOM      7  C   UNL     1       1.673   9.582  18.342  0.00  0.00    +0.000 C 
ATOM      8  O   UNL     1       2.189   9.232  17.291  0.00  0.00    +0.000 OA
ATOM      9  N   UNL     1       1.612   8.718  19.402  0.00  0.00    +0.000 N 
ATOM     10  C   UNL     1       2.103   7.389  19.431  0.00  0.00    +0.000 A 
ATOM     11  N   UNL     1       2.853   6.813  18.468  0.00  0.00    +0.000 NA
ATOM     12  C   UNL     1       3.147   5.522  18.787  0.00  0.00    +0.000 A 
ATOM     13  C   UNL     1       2.615   5.086  19.996  0.00  0.00    +0.000 A 
ATOM     14 CL   UNL     1       2.763   3.482  20.679  0.00  0.00    +0.000 Cl
ATOM     15  S   UNL     1       1.776   6.343  20.709  0.00  0.00    +0.000 S 
ATOM     16  H   UNL     1       1.154   9.008  20.270  0.00  0.00    +0.000 HD
ENDBRANCH   6   7
BRANCH   4  17
ATOM     17  C   UNL     1       1.789  14.672  18.861  0.00  0.00    +0.000 C 
ATOM     18  C   UNL     1       2.983  14.947  17.928  0.00  0.00    +0.000 C 
ATOM     19  C   UNL     1       3.619  16.137  18.602  0.00  0.00    +0.000 C 
ATOM     20  C   UNL     1       3.562  15.729  20.076  0.00  0.00    +0.000 C 
ATOM     21  N   UNL     1       2.375  14.904  20.187  0.00  0.00    +0.000 N 
ATOM     22  C   UNL     1       1.922  14.473  21.415  0.00  0.00    +0.000 C 
ATOM     23  O   UNL     1       2.563  14.755  22.409  0.00  0.00    +0.000 OA
BRANCH  22  24
ATOM     24  C   UNL     1       0.654  13.630  21.592  0.00  0.00    +0.000 C 
BRANCH  24  25
ATOM     25  N   UNL     1      -0.232  14.058  22.695  0.00  0.00    +0.000 NA
ATOM     26  C   UNL     1      -0.970  15.295  22.379  0.00  0.00    +0.000 C 
ATOM     27  C   UNL     1      -1.211  12.986  22.965  0.00  0.00    +0.000 C 
ENDBRANCH  24  25
ENDBRANCH  22  24
ENDBRANCH   4  17
TORSDOF 4
ENDMDL
