MODEL 1
REMARK VINA RESULT:      -8.8      0.000      0.000
REMARK  Name = 
REMARK  7 active torsions:
REMARK  status: ('A' for Active; 'I' for Inactive)
REMARK    1  A    between atoms: C_1  and  C_2
REMARK    2  A    between atoms: C_2  and  C_3
REMARK    3  A    between atoms: C_2  and  C_4
REMARK    4  A    between atoms: C_2  and  C_5
REMARK    5  A    between atoms: C_8  and  N_9
REMARK    6  A    between atoms: C_17  and  N_18
REMARK    7  A    between atoms: C_19  and  C_21
REMARK                            x       y       z     vdW  Elec       q    Type
REMARK                         _______ _______ _______ _____ _____    ______ ____
ROOT
ATOM      1  N   UNL     1       1.032   8.839  20.757  0.00  0.00    +0.000 N 
ATOM      2  N   UNL     1       0.676   8.692  22.062  0.00  0.00    +0.000 NA
ATOM      3  C   UNL     1       0.209   9.886  22.423  0.00  0.00    +0.000 A 
ATOM      4  C   UNL     1       0.122  10.776  21.340  0.00  0.00    +0.000 A 
ATOM      5  C   UNL     1       0.678  10.092  20.285  0.00  0.00    +0.000 A 
ATOM      6  C   UNL     1       0.772  10.570  18.890  0.00  0.00    +0.000 C 
ATOM      7  C   UNL     1       0.085  11.920  18.661  0.00  0.00    +0.000 C 
ATOM      8  C   UNL     1      -0.389  12.764  19.861  0.00  0.00    +0.000 C 
ATOM      9  C   UNL     1      -0.427  12.146  21.274  0.00  0.00    +0.000 C 
ENDROOT
BRANCH   1  13
ATOM     10  C   UNL     1       2.848   5.579  18.724  0.00  0.00    +0.000 A 
ATOM     11  C   UNL     1       2.208   5.410  19.964  0.00  0.00    +0.000 A 
ATOM     12  C   UNL     1       1.634   6.492  20.640  0.00  0.00    +0.000 A 
ATOM     13  C   UNL     1       1.647   7.765  20.067  0.00  0.00    +0.000 A 
ATOM     14  C   UNL     1       2.278   7.956  18.837  0.00  0.00    +0.000 A 
ATOM     15  C   UNL     1       2.869   6.876  18.178  0.00  0.00    +0.000 A 
BRANCH  10  17
ATOM     16  C   UNL     1       2.595   3.426  17.331  0.00  0.00    +0.000 C 
ATOM     17  C   UNL     1       3.562   4.430  17.992  0.00  0.00    +0.000 C 
ATOM     18  C   UNL     1       4.421   3.647  19.009  0.00  0.00    +0.000 C 
ATOM     19  C   UNL     1       4.478   4.987  16.880  0.00  0.00    +0.000 C 
ENDBRANCH  10  17
ENDBRANCH   1  13
BRANCH   9  20
ATOM     20  N   UNL     1      -1.781  12.116  21.794  0.00  0.00    +0.000 N 
ATOM     21  C   UNL     1      -2.096  12.738  22.978  0.00  0.00    +0.000 C 
ATOM     22  O   UNL     1      -1.294  13.289  23.716  0.00  0.00    +0.000 OA
ATOM     23  H   UNL     1      -2.545  11.773  21.219  0.00  0.00    +0.000 HD
BRANCH  21  24
ATOM     24  C   UNL     1      -3.575  12.715  23.352  0.00  0.00    +0.000 C 
ATOM     25  N   UNL     1      -3.952  12.048  24.404  0.00  0.00    +0.000 NA
ATOM     26  N   UNL     1      -5.284  12.072  24.712  0.00  0.00    +0.000 N 
ATOM     27  C   UNL     1      -6.303  12.532  23.913  0.00  0.00    +0.000 C 
ATOM     28  O   UNL     1      -7.469  12.491  24.281  0.00  0.00    +0.000 OA
ATOM     29  C   UNL     1      -5.902  13.004  22.542  0.00  0.00    +0.000 C 
ATOM     30  C   UNL     1      -4.495  13.552  22.511  0.00  0.00    +0.000 C 
ATOM     31  H   UNL     1      -5.553  11.666  25.604  0.00  0.00    +0.000 HD
ENDBRANCH  21  24
ENDBRANCH   9  20
TORSDOF 4
ENDMDL
MODEL 2
REMARK VINA RESULT:      -8.7      0.130      1.207
REMARK  Name = 
REMARK  7 active torsions:
REMARK  status: ('A' for Active; 'I' for Inactive)
REMARK    1  A    between atoms: C_1  and  C_2
REMARK    2  A    between atoms: C_2  and  C_3
REMARK    3  A    between atoms: C_2  and  C_4
REMARK    4  A    between atoms: C_2  and  C_5
REMARK    5  A    between atoms: C_8  and  N_9
REMARK    6  A    between atoms: C_17  and  N_18
REMARK    7  A    between atoms: C_19  and  C_21
REMARK                            x       y       z     vdW  Elec       q    Type
REMARK                         _______ _______ _______ _____ _____    ______ ____
ROOT
ATOM      1  N   UNL     1       0.993   8.869  20.798  0.00  0.00    +0.000 N 
ATOM      2  N   UNL     1       0.666   8.770  22.115  0.00  0.00    +0.000 NA
ATOM      3  C   UNL     1       0.173   9.967  22.433  0.00  0.00    +0.000 A 
ATOM      4  C   UNL     1       0.040  10.805  21.314  0.00  0.00    +0.000 A 
ATOM      5  C   UNL     1       0.595  10.090  20.279  0.00  0.00    +0.000 A 
ATOM      6  C   UNL     1       0.649  10.508  18.862  0.00  0.00    +0.000 C 
ATOM      7  C   UNL     1      -0.079  11.826  18.588  0.00  0.00    +0.000 C 
ATOM      8  C   UNL     1      -0.554  12.710  19.759  0.00  0.00    +0.000 C 
ATOM      9  C   UNL     1      -0.549  12.155  21.199  0.00  0.00    +0.000 C 
ENDROOT
BRANCH   1  13
ATOM     10  C   UNL     1       2.917   5.650  18.799  0.00  0.00    +0.000 A 
ATOM     11  C   UNL     1       2.861   6.938  18.238  0.00  0.00    +0.000 A 
ATOM     12  C   UNL     1       2.204   7.987  18.890  0.00  0.00    +0.000 A 
ATOM     13  C   UNL     1       1.626   7.783  20.144  0.00  0.00    +0.000 A 
ATOM     14  C   UNL     1       1.669   6.513  20.719  0.00  0.00    +0.000 A 
ATOM     15  C   UNL     1       2.306   5.464  20.053  0.00  0.00    +0.000 A 
BRANCH  10  17
ATOM     16  C   UNL     1       4.486   4.863  16.912  0.00  0.00    +0.000 C 
ATOM     17  C   UNL     1       3.557   4.455  18.074  0.00  0.00    +0.000 C 
ATOM     18  C   UNL     1       2.438   3.569  17.485  0.00  0.00    +0.000 C 
ATOM     19  C   UNL     1       4.398   3.615  19.061  0.00  0.00    +0.000 C 
ENDBRANCH  10  17
ENDBRANCH   1  13
BRANCH   9  20
ATOM     20  N   UNL     1      -1.891  12.111  21.746  0.00  0.00    +0.000 N 
ATOM     21  C   UNL     1      -2.205  12.790  22.898  0.00  0.00    +0.000 C 
ATOM     22  O   UNL     1      -1.409  13.409  23.587  0.00  0.00    +0.000 OA
ATOM     23  H   UNL     1      -2.653  11.711  21.207  0.00  0.00    +0.000 HD
BRANCH  21  24
ATOM     24  C   UNL     1      -3.676  12.740  23.303  0.00  0.00    +0.000 C 
ATOM     25  N   UNL     1      -4.014  12.102  24.386  0.00  0.00    +0.000 NA
ATOM     26  N   UNL     1      -5.340  12.101  24.719  0.00  0.00    +0.000 N 
ATOM     27  C   UNL     1      -6.386  12.504  23.925  0.00  0.00    +0.000 C 
ATOM     28  O   UNL     1      -7.543  12.445  24.318  0.00  0.00    +0.000 OA
ATOM     29  C   UNL     1      -6.025  12.937  22.531  0.00  0.00    +0.000 C 
ATOM     30  C   UNL     1      -4.634  13.521  22.452  0.00  0.00    +0.000 C 
ATOM     31  H   UNL     1      -5.581  11.720  25.630  0.00  0.00    +0.000 HD
ENDBRANCH  21  24
ENDBRANCH   9  20
TORSDOF 4
ENDMDL
MODEL 3
REMARK VINA RESULT:      -8.7      1.848      2.297
REMARK  Name = 
REMARK  7 active torsions:
REMARK  status: ('A' for Active; 'I' for Inactive)
REMARK    1  A    between atoms: C_1  and  C_2
REMARK    2  A    between atoms: C_2  and  C_3
REMARK    3  A    between atoms: C_2  and  C_4
REMARK    4  A    between atoms: C_2  and  C_5
REMARK    5  A    between atoms: C_8  and  N_9
REMARK    6  A    between atoms: C_17  and  N_18
REMARK    7  A    between atoms: C_19  and  C_21
REMARK                            x       y       z     vdW  Elec       q    Type
REMARK                         _______ _______ _______ _____ _____    ______ ____
ROOT
ATOM      1  N   UNL     1       0.544   9.784  19.438  0.00  0.00    +0.000 N 
ATOM      2  N   UNL     1       0.614  10.404  20.646  0.00  0.00    +0.000 NA
ATOM      3  C   UNL     1      -0.304  11.369  20.586  0.00  0.00    +0.000 A 
ATOM      4  C   UNL     1      -1.071  11.304  19.412  0.00  0.00    +0.000 A 
ATOM      5  C   UNL     1      -0.494  10.294  18.678  0.00  0.00    +0.000 A 
ATOM      6  C   UNL     1      -0.970   9.784  17.375  0.00  0.00    +0.000 C 
ATOM      7  C   UNL     1      -2.281  10.426  16.911  0.00  0.00    +0.000 C 
ATOM      8  C   UNL     1      -2.839  11.665  17.638  0.00  0.00    +0.000 C 
ATOM      9  C   UNL     1      -2.242  12.102  18.992  0.00  0.00    +0.000 C 
ENDROOT
BRANCH   1  13
ATOM     10  C   UNL     1       3.288   6.688  18.462  0.00  0.00    +0.000 A 
ATOM     11  C   UNL     1       3.079   7.785  17.608  0.00  0.00    +0.000 A 
ATOM     12  C   UNL     1       2.156   8.788  17.923  0.00  0.00    +0.000 A 
ATOM     13  C   UNL     1       1.451   8.740  19.127  0.00  0.00    +0.000 A 
ATOM     14  C   UNL     1       1.641   7.660  19.989  0.00  0.00    +0.000 A 
ATOM     15  C   UNL     1       2.548   6.651  19.658  0.00  0.00    +0.000 A 
BRANCH  10  17
ATOM     16  C   UNL     1       3.501   4.188  17.874  0.00  0.00    +0.000 C 
ATOM     17  C   UNL     1       4.231   5.527  18.110  0.00  0.00    +0.000 C 
ATOM     18  C   UNL     1       5.222   5.316  19.275  0.00  0.00    +0.000 C 
ATOM     19  C   UNL     1       5.025   5.849  16.825  0.00  0.00    +0.000 C 
ENDBRANCH  10  17
ENDBRANCH   1  13
BRANCH   9  20
ATOM     20  N   UNL     1      -3.235  12.035  20.047  0.00  0.00    +0.000 N 
ATOM     21  C   UNL     1      -3.580  13.157  20.762  0.00  0.00    +0.000 C 
ATOM     22  O   UNL     1      -3.059  14.254  20.642  0.00  0.00    +0.000 OA
ATOM     23  H   UNL     1      -3.802  11.202  20.167  0.00  0.00    +0.000 HD
BRANCH  21  24
ATOM     24  C   UNL     1      -4.711  12.964  21.769  0.00  0.00    +0.000 C 
ATOM     25  N   UNL     1      -5.712  12.192  21.459  0.00  0.00    +0.000 NA
ATOM     26  N   UNL     1      -6.690  12.034  22.400  0.00  0.00    +0.000 N 
ATOM     27  C   UNL     1      -6.853  12.772  23.547  0.00  0.00    +0.000 C 
ATOM     28  O   UNL     1      -7.780  12.557  24.317  0.00  0.00    +0.000 OA
ATOM     29  C   UNL     1      -5.879  13.901  23.747  0.00  0.00    +0.000 C 
ATOM     30  C   UNL     1      -4.539  13.625  23.106  0.00  0.00    +0.000 C 
ATOM     31  H   UNL     1      -7.397  11.328  22.209  0.00  0.00    +0.000 HD
ENDBRANCH  21  24
ENDBRANCH   9  20
TORSDOF 4
ENDMDL
MODEL 4
REMARK VINA RESULT:      -8.6      1.764      2.384
REMARK  Name = 
REMARK  7 active torsions:
REMARK  status: ('A' for Active; 'I' for Inactive)
REMARK    1  A    between atoms: C_1  and  C_2
REMARK    2  A    between atoms: C_2  and  C_3
REMARK    3  A    between atoms: C_2  and  C_4
REMARK    4  A    between atoms: C_2  and  C_5
REMARK    5  A    between atoms: C_8  and  N_9
REMARK    6  A    between atoms: C_17  and  N_18
REMARK    7  A    between atoms: C_19  and  C_21
REMARK                            x       y       z     vdW  Elec       q    Type
REMARK                         _______ _______ _______ _____ _____    ______ ____
ROOT
ATOM      1  N   UNL     1       0.503   9.873  19.318  0.00  0.00    +0.000 N 
ATOM      2  N   UNL     1       0.615  10.559  20.488  0.00  0.00    +0.000 NA
ATOM      3  C   UNL     1      -0.320  11.505  20.417  0.00  0.00    +0.000 A 
ATOM      4  C   UNL     1      -1.137  11.366  19.283  0.00  0.00    +0.000 A 
ATOM      5  C   UNL     1      -0.576  10.326  18.579  0.00  0.00    +0.000 A 
ATOM      6  C   UNL     1      -1.100   9.739  17.328  0.00  0.00    +0.000 C 
ATOM      7  C   UNL     1      -2.440  10.337  16.889  0.00  0.00    +0.000 C 
ATOM      8  C   UNL     1      -2.987  11.605  17.574  0.00  0.00    +0.000 C 
ATOM      9  C   UNL     1      -2.338  12.123  18.875  0.00  0.00    +0.000 C 
ENDROOT
BRANCH   1  13
ATOM     10  C   UNL     1       3.255   6.770  18.390  0.00  0.00    +0.000 A 
ATOM     11  C   UNL     1       3.042   7.852  17.518  0.00  0.00    +0.000 A 
ATOM     12  C   UNL     1       2.116   8.857  17.818  0.00  0.00    +0.000 A 
ATOM     13  C   UNL     1       1.413   8.827  19.023  0.00  0.00    +0.000 A 
ATOM     14  C   UNL     1       1.608   7.762  19.903  0.00  0.00    +0.000 A 
ATOM     15  C   UNL     1       2.517   6.750  19.588  0.00  0.00    +0.000 A 
BRANCH  10  17
ATOM     16  C   UNL     1       5.163   5.909  16.887  0.00  0.00    +0.000 C 
ATOM     17  C   UNL     1       4.202   5.606  18.056  0.00  0.00    +0.000 C 
ATOM     18  C   UNL     1       3.360   4.375  17.658  0.00  0.00    +0.000 C 
ATOM     19  C   UNL     1       5.069   5.249  19.283  0.00  0.00    +0.000 C 
ENDBRANCH  10  17
ENDBRANCH   1  13
BRANCH   9  20
ATOM     20  N   UNL     1      -3.283  12.099  19.974  0.00  0.00    +0.000 N 
ATOM     21  C   UNL     1      -3.505  13.220  20.737  0.00  0.00    +0.000 C 
ATOM     22  O   UNL     1      -2.906  14.277  20.622  0.00  0.00    +0.000 OA
ATOM     23  H   UNL     1      -3.908  11.308  20.099  0.00  0.00    +0.000 HD
BRANCH  21  24
ATOM     24  C   UNL     1      -4.599  13.083  21.793  0.00  0.00    +0.000 C 
ATOM     25  N   UNL     1      -4.311  12.532  22.936  0.00  0.00    +0.000 NA
ATOM     26  N   UNL     1      -5.317  12.448  23.858  0.00  0.00    +0.000 N 
ATOM     27  C   UNL     1      -6.654  12.674  23.636  0.00  0.00    +0.000 C 
ATOM     28  O   UNL     1      -7.478  12.554  24.533  0.00  0.00    +0.000 OA
ATOM     29  C   UNL     1      -7.042  12.990  22.218  0.00  0.00    +0.000 C 
ATOM     30  C   UNL     1      -5.934  13.684  21.460  0.00  0.00    +0.000 C 
ATOM     31  H   UNL     1      -5.056  12.144  24.792  0.00  0.00    +0.000 HD
ENDBRANCH  21  24
ENDBRANCH   9  20
TORSDOF 4
ENDMDL
MODEL 5
REMARK VINA RESULT:      -8.5      1.589      1.903
REMARK  Name = 
REMARK  7 active torsions:
REMARK  status: ('A' for Active; 'I' for Inactive)
REMARK    1  A    between atoms: C_1  and  C_2
REMARK    2  A    between atoms: C_2  and  C_3
REMARK    3  A    between atoms: C_2  and  C_4
REMARK    4  A    between atoms: C_2  and  C_5
REMARK    5  A    between atoms: C_8  and  N_9
REMARK    6  A    between atoms: C_17  and  N_18
REMARK    7  A    between atoms: C_19  and  C_21
REMARK                            x       y       z     vdW  Elec       q    Type
REMARK                         _______ _______ _______ _____ _____    ______ ____
ROOT
ATOM      1  N   UNL     1       0.707   9.677  19.580  0.00  0.00    +0.000 N 
ATOM      2  N   UNL     1       0.816  10.315  20.777  0.00  0.00    +0.000 NA
ATOM      3  C   UNL     1      -0.052  11.322  20.705  0.00  0.00    +0.000 A 
ATOM      4  C   UNL     1      -0.831  11.275  19.538  0.00  0.00    +0.000 A 
ATOM      5  C   UNL     1      -0.311  10.226  18.818  0.00  0.00    +0.000 A 
ATOM      6  C   UNL     1      -0.822   9.717  17.528  0.00  0.00    +0.000 C 
ATOM      7  C   UNL     1      -2.102  10.416  17.061  0.00  0.00    +0.000 C 
ATOM      8  C   UNL     1      -2.592  11.694  17.770  0.00  0.00    +0.000 C 
ATOM      9  C   UNL     1      -1.963  12.124  19.113  0.00  0.00    +0.000 C 
ENDROOT
BRANCH   1  13
ATOM     10  C   UNL     1       3.231   6.366  18.728  0.00  0.00    +0.000 A 
ATOM     11  C   UNL     1       2.477   6.433  19.913  0.00  0.00    +0.000 A 
ATOM     12  C   UNL     1       1.668   7.537  20.199  0.00  0.00    +0.000 A 
ATOM     13  C   UNL     1       1.558   8.584  19.282  0.00  0.00    +0.000 A 
ATOM     14  C   UNL     1       2.298   8.539  18.100  0.00  0.00    +0.000 A 
ATOM     15  C   UNL     1       3.122   7.444  17.831  0.00  0.00    +0.000 A 
BRANCH  10  17
ATOM     16  C   UNL     1       4.545   5.081  16.922  0.00  0.00    +0.000 C 
ATOM     17  C   UNL     1       4.194   5.209  18.420  0.00  0.00    +0.000 C 
ATOM     18  C   UNL     1       3.538   3.882  18.858  0.00  0.00    +0.000 C 
ATOM     19  C   UNL     1       5.521   5.393  19.188  0.00  0.00    +0.000 C 
ENDBRANCH  10  17
ENDBRANCH   1  13
BRANCH   9  20
ATOM     20  N   UNL     1      -2.951  12.125  20.174  0.00  0.00    +0.000 N 
ATOM     21  C   UNL     1      -3.262  13.283  20.846  0.00  0.00    +0.000 C 
ATOM     22  O   UNL     1      -2.713  14.361  20.679  0.00  0.00    +0.000 OA
ATOM     23  H   UNL     1      -3.539  11.312  20.332  0.00  0.00    +0.000 HD
BRANCH  21  24
ATOM     24  C   UNL     1      -4.390  13.160  21.867  0.00  0.00    +0.000 C 
ATOM     25  N   UNL     1      -4.201  12.444  22.937  0.00  0.00    +0.000 NA
ATOM     26  N   UNL     1      -5.232  12.379  23.833  0.00  0.00    +0.000 N 
ATOM     27  C   UNL     1      -6.525  12.798  23.628  0.00  0.00    +0.000 C 
ATOM     28  O   UNL     1      -7.379  12.678  24.496  0.00  0.00    +0.000 OA
ATOM     29  C   UNL     1      -6.834  13.330  22.255  0.00  0.00    +0.000 C 
ATOM     30  C   UNL     1      -5.630  13.963  21.598  0.00  0.00    +0.000 C 
ATOM     31  H   UNL     1      -5.035  11.935  24.725  0.00  0.00    +0.000 HD
ENDBRANCH  21  24
ENDBRANCH   9  20
TORSDOF 4
ENDMDL
MODEL 6
REMARK VINA RESULT:      -8.5      1.670      2.077
REMARK  Name = 
REMARK  7 active torsions:
REMARK  status: ('A' for Active; 'I' for Inactive)
REMARK    1  A    between atoms: C_1  and  C_2
REMARK    2  A    between atoms: C_2  and  C_3
REMARK    3  A    between atoms: C_2  and  C_4
REMARK    4  A    between atoms: C_2  and  C_5
REMARK    5  A    between atoms: C_8  and  N_9
REMARK    6  A    between atoms: C_17  and  N_18
REMARK    7  A    between atoms: C_19  and  C_21
REMARK                            x       y       z     vdW  Elec       q    Type
REMARK                         _______ _______ _______ _____ _____    ______ ____
ROOT
ATOM      1  N   UNL     1       0.605   9.755  19.747  0.00  0.00    +0.000 N 
ATOM      2  N   UNL     1       0.718  10.395  20.943  0.00  0.00    +0.000 NA
ATOM      3  C   UNL     1      -0.130  11.419  20.861  0.00  0.00    +0.000 A 
ATOM      4  C   UNL     1      -0.901  11.383  19.688  0.00  0.00    +0.000 A 
ATOM      5  C   UNL     1      -0.396  10.321  18.976  0.00  0.00    +0.000 A 
ATOM      6  C   UNL     1      -0.907   9.818  17.683  0.00  0.00    +0.000 C 
ATOM      7  C   UNL     1      -2.169  10.540  17.204  0.00  0.00    +0.000 C 
ATOM      8  C   UNL     1      -2.640  11.830  17.905  0.00  0.00    +0.000 C 
ATOM      9  C   UNL     1      -2.013  12.252  19.251  0.00  0.00    +0.000 C 
ENDROOT
BRANCH   1  13
ATOM     10  C   UNL     1       3.072   6.393  18.928  0.00  0.00    +0.000 A 
ATOM     11  C   UNL     1       2.354   6.505  20.132  0.00  0.00    +0.000 A 
ATOM     12  C   UNL     1       1.564   7.626  20.406  0.00  0.00    +0.000 A 
ATOM     13  C   UNL     1       1.436   8.644  19.459  0.00  0.00    +0.000 A 
ATOM     14  C   UNL     1       2.141   8.555  18.259  0.00  0.00    +0.000 A 
ATOM     15  C   UNL     1       2.946   7.443  18.001  0.00  0.00    +0.000 A 
BRANCH  10  17
ATOM     16  C   UNL     1       5.428   5.391  19.224  0.00  0.00    +0.000 C 
ATOM     17  C   UNL     1       4.015   5.216  18.629  0.00  0.00    +0.000 C 
ATOM     18  C   UNL     1       4.169   5.076  17.099  0.00  0.00    +0.000 C 
ATOM     19  C   UNL     1       3.435   3.904  19.200  0.00  0.00    +0.000 C 
ENDBRANCH  10  17
ENDBRANCH   1  13
BRANCH   9  20
ATOM     20  N   UNL     1      -3.008  12.277  20.305  0.00  0.00    +0.000 N 
ATOM     21  C   UNL     1      -3.277  13.435  20.993  0.00  0.00    +0.000 C 
ATOM     22  O   UNL     1      -2.684  14.492  20.847  0.00  0.00    +0.000 OA
ATOM     23  H   UNL     1      -3.630  11.486  20.445  0.00  0.00    +0.000 HD
BRANCH  21  24
ATOM     24  C   UNL     1      -4.418  13.343  22.003  0.00  0.00    +0.000 C 
ATOM     25  N   UNL     1      -5.168  12.279  22.017  0.00  0.00    +0.000 NA
ATOM     26  N   UNL     1      -6.164  12.231  22.952  0.00  0.00    +0.000 N 
ATOM     27  C   UNL     1      -6.609  13.273  23.730  0.00  0.00    +0.000 C 
ATOM     28  O   UNL     1      -7.524  13.125  24.529  0.00  0.00    +0.000 OA
ATOM     29  C   UNL     1      -5.962  14.607  23.478  0.00  0.00    +0.000 C 
ATOM     30  C   UNL     1      -4.540  14.472  22.985  0.00  0.00    +0.000 C 
ATOM     31  H   UNL     1      -6.656  11.348  23.050  0.00  0.00    +0.000 HD
ENDBRANCH  21  24
ENDBRANCH   9  20
TORSDOF 4
ENDMDL
MODEL 7
REMARK VINA RESULT:      -8.4      1.017      1.382
REMARK  Name = 
REMARK  7 active torsions:
REMARK  status: ('A' for Active; 'I' for Inactive)
REMARK    1  A    between atoms: C_1  and  C_2
REMARK    2  A    between atoms: C_2  and  C_3
REMARK    3  A    between atoms: C_2  and  C_4
REMARK    4  A    between atoms: C_2  and  C_5
REMARK    5  A    between atoms: C_8  and  N_9
REMARK    6  A    between atoms: C_17  and  N_18
REMARK    7  A    between atoms: C_19  and  C_21
REMARK                            x       y       z     vdW  Elec       q    Type
REMARK                         _______ _______ _______ _____ _____    ______ ____
ROOT
ATOM      1  N   UNL     1       1.218   8.513  20.550  0.00  0.00    +0.000 N 
ATOM      2  N   UNL     1       1.063   8.561  21.901  0.00  0.00    +0.000 NA
ATOM      3  C   UNL     1       0.525   9.756  22.138  0.00  0.00    +0.000 A 
ATOM      4  C   UNL     1       0.193  10.438  20.956  0.00  0.00    +0.000 A 
ATOM      5  C   UNL     1       0.669   9.633  19.948  0.00  0.00    +0.000 A 
ATOM      6  C   UNL     1       0.519   9.873  18.498  0.00  0.00    +0.000 C 
ATOM      7  C   UNL     1      -0.335  11.101  18.169  0.00  0.00    +0.000 C 
ATOM      8  C   UNL     1      -0.727  12.095  19.281  0.00  0.00    +0.000 C 
ATOM      9  C   UNL     1      -0.504  11.726  20.762  0.00  0.00    +0.000 C 
ENDROOT
BRANCH   1  13
ATOM     10  C   UNL     1       3.066   5.116  18.787  0.00  0.00    +0.000 A 
ATOM     11  C   UNL     1       2.350   5.023  19.993  0.00  0.00    +0.000 A 
ATOM     12  C   UNL     1       1.766   6.150  20.581  0.00  0.00    +0.000 A 
ATOM     13  C   UNL     1       1.845   7.392  19.950  0.00  0.00    +0.000 A 
ATOM     14  C   UNL     1       2.552   7.508  18.753  0.00  0.00    +0.000 A 
ATOM     15  C   UNL     1       3.152   6.384  18.183  0.00  0.00    +0.000 A 
BRANCH  10  17
ATOM     16  C   UNL     1       4.817   4.316  17.073  0.00  0.00    +0.000 C 
ATOM     17  C   UNL     1       3.791   3.917  18.155  0.00  0.00    +0.000 C 
ATOM     18  C   UNL     1       2.747   2.996  17.488  0.00  0.00    +0.000 C 
ATOM     19  C   UNL     1       4.551   3.117  19.236  0.00  0.00    +0.000 C 
ENDBRANCH  10  17
ENDBRANCH   1  13
BRANCH   9  20
ATOM     20  N   UNL     1      -1.762  11.671  21.482  0.00  0.00    +0.000 N 
ATOM     21  C   UNL     1      -2.353  12.817  21.956  0.00  0.00    +0.000 C 
ATOM     22  O   UNL     1      -1.868  13.936  21.891  0.00  0.00    +0.000 OA
ATOM     23  H   UNL     1      -2.302  10.812  21.509  0.00  0.00    +0.000 HD
BRANCH  21  24
ATOM     24  C   UNL     1      -3.722  12.624  22.603  0.00  0.00    +0.000 C 
ATOM     25  N   UNL     1      -4.781  12.584  21.846  0.00  0.00    +0.000 NA
ATOM     26  N   UNL     1      -5.982  12.390  22.467  0.00  0.00    +0.000 N 
ATOM     27  C   UNL     1      -6.229  12.457  23.818  0.00  0.00    +0.000 C 
ATOM     28  O   UNL     1      -7.352  12.282  24.269  0.00  0.00    +0.000 OA
ATOM     29  C   UNL     1      -5.058  12.837  24.682  0.00  0.00    +0.000 C 
ATOM     30  C   UNL     1      -3.739  12.403  24.088  0.00  0.00    +0.000 C 
ATOM     31  H   UNL     1      -6.785  12.224  21.867  0.00  0.00    +0.000 HD
ENDBRANCH  21  24
ENDBRANCH   9  20
TORSDOF 4
ENDMDL
MODEL 8
REMARK VINA RESULT:      -8.3      0.770      1.278
REMARK  Name = 
REMARK  7 active torsions:
REMARK  status: ('A' for Active; 'I' for Inactive)
REMARK    1  A    between atoms: C_1  and  C_2
REMARK    2  A    between atoms: C_2  and  C_3
REMARK    3  A    between atoms: C_2  and  C_4
REMARK    4  A    between atoms: C_2  and  C_5
REMARK    5  A    between atoms: C_8  and  N_9
REMARK    6  A    between atoms: C_17  and  N_18
REMARK    7  A    between atoms: C_19  and  C_21
REMARK                            x       y       z     vdW  Elec       q    Type
REMARK                         _______ _______ _______ _____ _____    ______ ____
ROOT
ATOM      1  N   UNL     1       1.122   8.686  20.658  0.00  0.00    +0.000 N 
ATOM      2  N   UNL     1       0.756   8.541  21.960  0.00  0.00    +0.000 NA
ATOM      3  C   UNL     1       0.242   9.722  22.301  0.00  0.00    +0.000 A 
ATOM      4  C   UNL     1       0.135  10.595  21.206  0.00  0.00    +0.000 A 
ATOM      5  C   UNL     1       0.729   9.920  20.166  0.00  0.00    +0.000 A 
ATOM      6  C   UNL     1       0.823  10.385  18.767  0.00  0.00    +0.000 C 
ATOM      7  C   UNL     1       0.090  11.705  18.513  0.00  0.00    +0.000 C 
ATOM      8  C   UNL     1      -0.429  12.545  19.696  0.00  0.00    +0.000 C 
ATOM      9  C   UNL     1      -0.463  11.943  21.117  0.00  0.00    +0.000 C 
ENDROOT
BRANCH   1  13
ATOM     10  C   UNL     1       3.137   5.551  18.614  0.00  0.00    +0.000 A 
ATOM     11  C   UNL     1       3.071   6.853  18.086  0.00  0.00    +0.000 A 
ATOM     12  C   UNL     1       2.385   7.874  18.752  0.00  0.00    +0.000 A 
ATOM     13  C   UNL     1       1.785   7.627  19.988  0.00  0.00    +0.000 A 
ATOM     14  C   UNL     1       1.837   6.343  20.530  0.00  0.00    +0.000 A 
ATOM     15  C   UNL     1       2.505   5.323  19.850  0.00  0.00    +0.000 A 
BRANCH  10  17
ATOM     16  C   UNL     1       2.809   3.381  17.264  0.00  0.00    +0.000 C 
ATOM     17  C   UNL     1       3.811   4.386  17.872  0.00  0.00    +0.000 C 
ATOM     18  C   UNL     1       4.703   3.610  18.865  0.00  0.00    +0.000 C 
ATOM     19  C   UNL     1       4.687   4.918  16.717  0.00  0.00    +0.000 C 
ENDBRANCH  10  17
ENDBRANCH   1  13
BRANCH   9  20
ATOM     20  N   UNL     1      -1.821  11.870  21.620  0.00  0.00    +0.000 N 
ATOM     21  C   UNL     1      -2.217  12.632  22.693  0.00  0.00    +0.000 C 
ATOM     22  O   UNL     1      -1.485  13.358  23.347  0.00  0.00    +0.000 OA
ATOM     23  H   UNL     1      -2.538  11.377  21.097  0.00  0.00    +0.000 HD
BRANCH  21  24
ATOM     24  C   UNL     1      -3.698  12.532  23.051  0.00  0.00    +0.000 C 
ATOM     25  N   UNL     1      -4.581  12.500  22.095  0.00  0.00    +0.000 NA
ATOM     26  N   UNL     1      -5.892  12.390  22.463  0.00  0.00    +0.000 N 
ATOM     27  C   UNL     1      -6.405  12.536  23.729  0.00  0.00    +0.000 C 
ATOM     28  O   UNL     1      -7.604  12.433  23.947  0.00  0.00    +0.000 OA
ATOM     29  C   UNL     1      -5.416  12.908  24.800  0.00  0.00    +0.000 C 
ATOM     30  C   UNL     1      -4.028  12.388  24.508  0.00  0.00    +0.000 C 
ATOM     31  H   UNL     1      -6.563  12.228  21.717  0.00  0.00    +0.000 HD
ENDBRANCH  21  24
ENDBRANCH   9  20
TORSDOF 4
ENDMDL
MODEL 9
REMARK VINA RESULT:      -8.3      2.249      2.915
REMARK  Name = 
REMARK  7 active torsions:
REMARK  status: ('A' for Active; 'I' for Inactive)
REMARK    1  A    between atoms: C_1  and  C_2
REMARK    2  A    between atoms: C_2  and  C_3
REMARK    3  A    between atoms: C_2  and  C_4
REMARK    4  A    between atoms: C_2  and  C_5
REMARK    5  A    between atoms: C_8  and  N_9
REMARK    6  A    between atoms: C_17  and  N_18
REMARK    7  A    between atoms: C_19  and  C_21
REMARK                            x       y       z     vdW  Elec       q    Type
REMARK                         _______ _______ _______ _____ _____    ______ ____
ROOT
ATOM      1  N   UNL     1       0.371  10.112  19.254  0.00  0.00    +0.000 N 
ATOM      2  N   UNL     1       0.567  10.957  20.302  0.00  0.00    +0.000 NA
ATOM      3  C   UNL     1      -0.413  11.854  20.201  0.00  0.00    +0.000 A 
ATOM      4  C   UNL     1      -1.332  11.532  19.189  0.00  0.00    +0.000 A 
ATOM      5  C   UNL     1      -0.796  10.423  18.577  0.00  0.00    +0.000 A 
ATOM      6  C   UNL     1      -1.414   9.650  17.479  0.00  0.00    +0.000 C 
ATOM      7  C   UNL     1      -2.817  10.138  17.106  0.00  0.00    +0.000 C 
ATOM      8  C   UNL     1      -3.351  11.471  17.666  0.00  0.00    +0.000 C 
ATOM      9  C   UNL     1      -2.601  12.186  18.809  0.00  0.00    +0.000 C 
ENDROOT
BRANCH   1  13
ATOM     10  C   UNL     1       3.163   7.003  18.478  0.00  0.00    +0.000 A 
ATOM     11  C   UNL     1       2.947   8.046  17.560  0.00  0.00    +0.000 A 
ATOM     12  C   UNL     1       2.008   9.052  17.811  0.00  0.00    +0.000 A 
ATOM     13  C   UNL     1       1.294   9.064  19.010  0.00  0.00    +0.000 A 
ATOM     14  C   UNL     1       1.492   8.038  19.934  0.00  0.00    +0.000 A 
ATOM     15  C   UNL     1       2.414   7.024  19.668  0.00  0.00    +0.000 A 
BRANCH  10  17
ATOM     16  C   UNL     1       4.790   5.268  19.471  0.00  0.00    +0.000 C 
ATOM     17  C   UNL     1       4.125   5.836  18.199  0.00  0.00    +0.000 C 
ATOM     18  C   UNL     1       5.252   6.329  17.266  0.00  0.00    +0.000 C 
ATOM     19  C   UNL     1       3.375   4.673  17.514  0.00  0.00    +0.000 C 
ENDBRANCH  10  17
ENDBRANCH   1  13
BRANCH   9  20
ATOM     20  N   UNL     1      -3.430  12.286  19.995  0.00  0.00    +0.000 N 
ATOM     21  C   UNL     1      -4.760  12.617  19.899  0.00  0.00    +0.000 C 
ATOM     22  O   UNL     1      -5.335  12.919  18.865  0.00  0.00    +0.000 OA
ATOM     23  H   UNL     1      -3.085  11.962  20.893  0.00  0.00    +0.000 HD
BRANCH  21  24
ATOM     24  C   UNL     1      -5.535  12.585  21.213  0.00  0.00    +0.000 C 
ATOM     25  N   UNL     1      -6.638  11.897  21.283  0.00  0.00    +0.000 NA
ATOM     26  N   UNL     1      -7.287  11.881  22.485  0.00  0.00    +0.000 N 
ATOM     27  C   UNL     1      -7.032  12.691  23.566  0.00  0.00    +0.000 C 
ATOM     28  O   UNL     1      -7.689  12.605  24.595  0.00  0.00    +0.000 OA
ATOM     29  C   UNL     1      -5.962  13.730  23.372  0.00  0.00    +0.000 C 
ATOM     30  C   UNL     1      -4.910  13.295  22.379  0.00  0.00    +0.000 C 
ATOM     31  H   UNL     1      -8.069  11.238  22.574  0.00  0.00    +0.000 HD
ENDBRANCH  21  24
ENDBRANCH   9  20
TORSDOF 4
ENDMDL
