MODEL 1
REMARK VINA RESULT:      -8.0      0.000      0.000
REMARK  Name = 
REMARK  5 active torsions:
REMARK  status: ('A' for Active; 'I' for Inactive)
REMARK    1  A    between atoms: C_2  and  O_3
REMARK    2  A    between atoms: C_2  and  C_4
REMARK    3  A    between atoms: C_7  and  N_8
REMARK    4  A    between atoms: N_8  and  C_9
REMARK    5  A    between atoms: C_16  and  C_17
REMARK                            x       y       z     vdW  Elec       q    Type
REMARK                         _______ _______ _______ _____ _____    ______ ____
ROOT
ATOM      1  C   UNL     1       2.122   6.372  20.495  0.00  0.00    +0.000 A 
ATOM      2  N   UNL     1       1.185   7.093  21.126  0.00  0.00    +0.000 NA
ATOM      3  C   UNL     1       0.835   8.246  20.543  0.00  0.00    +0.000 A 
ATOM      4  N   UNL     1       1.353   8.766  19.419  0.00  0.00    +0.000 NA
ATOM      5  C   UNL     1       2.291   8.043  18.803  0.00  0.00    +0.000 A 
ATOM      6  C   UNL     1       2.930   8.553  17.672  0.00  0.00    +0.000 A 
ATOM      7  C   UNL     1       3.954   7.850  17.012  0.00  0.00    +0.000 A 
ATOM      8  C   UNL     1       4.339   6.586  17.457  0.00  0.00    +0.000 A 
ATOM      9  C   UNL     1       3.666   6.055  18.567  0.00  0.00    +0.000 A 
ATOM     10  C   UNL     1       2.685   6.788  19.272  0.00  0.00    +0.000 A 
ENDROOT
BRANCH   8  11
ATOM     11  C   UNL     1       5.445   5.811  16.876  0.00  0.00    +0.000 A 
ATOM     12  C   UNL     1       6.605   5.367  17.497  0.00  0.00    +0.000 A 
ATOM     13  N   UNL     1       7.456   4.599  16.734  0.00  0.00    +0.000 NA
ATOM     14  C   UNL     1       6.954   4.475  15.533  0.00  0.00    +0.000 A 
ATOM     15  S   UNL     1       5.465   5.277  15.243  0.00  0.00    +0.000 S 
ENDBRANCH   8  11
BRANCH   1  16
ATOM     16  N   UNL     1       2.574   5.168  21.075  0.00  0.00    +0.000 N 
ATOM     17  H   UNL     1       3.372   4.852  20.526  0.00  0.00    +0.000 HD
BRANCH  16  21
ATOM     18  C   UNL     1       2.553   2.090  19.266  0.00  0.00    +0.000 C 
ATOM     19  C   UNL     1       3.219   2.251  20.639  0.00  0.00    +0.000 C 
ATOM     20  C   UNL     1       2.271   2.781  21.714  0.00  0.00    +0.000 C 
ATOM     21  C   UNL     1       1.594   4.101  21.313  0.00  0.00    +0.000 C 
ATOM     22  C   UNL     1       0.814   3.838  20.011  0.00  0.00    +0.000 C 
ATOM     23  C   UNL     1       1.706   3.317  18.880  0.00  0.00    +0.000 C 
BRANCH  18  25
ATOM     24  O   UNL     1       3.978   2.646  17.363  0.00  0.00    +0.000 OA
ATOM     25  C   UNL     1       3.613   1.833  18.200  0.00  0.00    +0.000 C 
BRANCH  25  26
ATOM     26  O   UNL     1       4.125   0.580  18.237  0.00  0.00    +0.000 OA
ATOM     27  H   UNL     1       4.550   0.291  17.409  0.00  0.00    +0.000 HD
ENDBRANCH  25  26
ENDBRANCH  18  25
ENDBRANCH  16  21
ENDBRANCH   1  16
TORSDOF 5
ENDMDL
MODEL 2
REMARK VINA RESULT:      -7.3      2.776      5.943
REMARK  Name = 
REMARK  5 active torsions:
REMARK  status: ('A' for Active; 'I' for Inactive)
REMARK    1  A    between atoms: C_2  and  O_3
REMARK    2  A    between atoms: C_2  and  C_4
REMARK    3  A    between atoms: C_7  and  N_8
REMARK    4  A    between atoms: N_8  and  C_9
REMARK    5  A    between atoms: C_16  and  C_17
REMARK                            x       y       z     vdW  Elec       q    Type
REMARK                         _______ _______ _______ _____ _____    ______ ____
ROOT
ATOM      1  C   UNL     1       3.872   3.720  18.201  0.00  0.00    +0.000 A 
ATOM      2  N   UNL     1       4.141   2.467  18.595  0.00  0.00    +0.000 NA
ATOM      3  C   UNL     1       3.601   2.085  19.759  0.00  0.00    +0.000 A 
ATOM      4  N   UNL     1       2.855   2.839  20.583  0.00  0.00    +0.000 NA
ATOM      5  C   UNL     1       2.600   4.086  20.184  0.00  0.00    +0.000 A 
ATOM      6  C   UNL     1       1.896   4.953  21.021  0.00  0.00    +0.000 A 
ATOM      7  C   UNL     1       1.638   6.290  20.667  0.00  0.00    +0.000 A 
ATOM      8  C   UNL     1       2.055   6.782  19.431  0.00  0.00    +0.000 A 
ATOM      9  C   UNL     1       2.724   5.898  18.571  0.00  0.00    +0.000 A 
ATOM     10  C   UNL     1       3.043   4.576  18.953  0.00  0.00    +0.000 A 
ENDROOT
BRANCH   8  11
ATOM     11  C   UNL     1       1.895   8.180  19.005  0.00  0.00    +0.000 A 
ATOM     12  C   UNL     1       2.354   8.785  17.843  0.00  0.00    +0.000 A 
ATOM     13  N   UNL     1       2.009  10.105  17.659  0.00  0.00    +0.000 NA
ATOM     14  C   UNL     1       1.306  10.508  18.686  0.00  0.00    +0.000 A 
ATOM     15  S   UNL     1       1.039   9.352  19.926  0.00  0.00    +0.000 S 
ENDBRANCH   8  11
BRANCH   1  16
ATOM     16  N   UNL     1       4.446   4.206  17.008  0.00  0.00    +0.000 N 
ATOM     17  H   UNL     1       4.802   3.400  16.497  0.00  0.00    +0.000 HD
BRANCH  16  21
ATOM     18  C   UNL     1       6.789   4.958  14.421  0.00  0.00    +0.000 C 
ATOM     19  C   UNL     1       5.453   5.695  14.582  0.00  0.00    +0.000 C 
ATOM     20  C   UNL     1       5.265   6.315  15.966  0.00  0.00    +0.000 C 
ATOM     21  C   UNL     1       5.429   5.293  17.103  0.00  0.00    +0.000 C 
ATOM     22  C   UNL     1       6.845   4.698  16.983  0.00  0.00    +0.000 C 
ATOM     23  C   UNL     1       7.101   4.046  15.622  0.00  0.00    +0.000 C 
BRANCH  18  25
ATOM     24  O   UNL     1       7.330   4.470  12.092  0.00  0.00    +0.000 OA
ATOM     25  C   UNL     1       6.782   4.141  13.134  0.00  0.00    +0.000 C 
BRANCH  25  26
ATOM     26  O   UNL     1       6.077   2.989  13.227  0.00  0.00    +0.000 OA
ATOM     27  H   UNL     1       6.220   2.491  14.052  0.00  0.00    +0.000 HD
ENDBRANCH  25  26
ENDBRANCH  18  25
ENDBRANCH  16  21
ENDBRANCH   1  16
TORSDOF 5
ENDMDL
MODEL 3
REMARK VINA RESULT:      -7.2      2.707      5.840
REMARK  Name = 
REMARK  5 active torsions:
REMARK  status: ('A' for Active; 'I' for Inactive)
REMARK    1  A    between atoms: C_2  and  O_3
REMARK    2  A    between atoms: C_2  and  C_4
REMARK    3  A    between atoms: C_7  and  N_8
REMARK    4  A    between atoms: N_8  and  C_9
REMARK    5  A    between atoms: C_16  and  C_17
REMARK                            x       y       z     vdW  Elec       q    Type
REMARK                         _______ _______ _______ _____ _____    ______ ____
ROOT
ATOM      1  C   UNL     1       4.488   3.445  19.215  0.00  0.00    +0.000 A 
ATOM      2  N   UNL     1       4.761   2.269  19.798  0.00  0.00    +0.000 NA
ATOM      3  C   UNL     1       4.005   1.943  20.854  0.00  0.00    +0.000 A 
ATOM      4  N   UNL     1       3.037   2.690  21.408  0.00  0.00    +0.000 NA
ATOM      5  C   UNL     1       2.779   3.863  20.824  0.00  0.00    +0.000 A 
ATOM      6  C   UNL     1       1.839   4.727  21.387  0.00  0.00    +0.000 A 
ATOM      7  C   UNL     1       1.562   5.992  20.836  0.00  0.00    +0.000 A 
ATOM      8  C   UNL     1       2.205   6.406  19.671  0.00  0.00    +0.000 A 
ATOM      9  C   UNL     1       3.117   5.520  19.081  0.00  0.00    +0.000 A 
ATOM     10  C   UNL     1       3.447   4.279  19.670  0.00  0.00    +0.000 A 
ENDROOT
BRANCH   8  11
ATOM     11  C   UNL     1       2.034   7.735  19.065  0.00  0.00    +0.000 A 
ATOM     12  C   UNL     1       2.456   8.174  17.818  0.00  0.00    +0.000 A 
ATOM     13  N   UNL     1       2.107   9.459  17.468  0.00  0.00    +0.000 NA
ATOM     14  C   UNL     1       1.440  10.002  18.452  0.00  0.00    +0.000 A 
ATOM     15  S   UNL     1       1.211   9.026  19.845  0.00  0.00    +0.000 S 
ENDBRANCH   8  11
BRANCH   1  16
ATOM     16  N   UNL     1       5.274   3.874  18.126  0.00  0.00    +0.000 N 
ATOM     17  H   UNL     1       5.782   3.060  17.784  0.00  0.00    +0.000 HD
BRANCH  16  21
ATOM     18  C   UNL     1       7.051   5.444  15.456  0.00  0.00    +0.000 C 
ATOM     19  C   UNL     1       5.694   5.944  15.968  0.00  0.00    +0.000 C 
ATOM     20  C   UNL     1       5.684   6.241  17.467  0.00  0.00    +0.000 C 
ATOM     21  C   UNL     1       6.143   5.043  18.314  0.00  0.00    +0.000 C 
ATOM     22  C   UNL     1       7.571   4.683  17.861  0.00  0.00    +0.000 C 
ATOM     23  C   UNL     1       7.655   4.359  16.367  0.00  0.00    +0.000 C 
BRANCH  18  25
ATOM     24  O   UNL     1       6.105   4.056  13.685  0.00  0.00    +0.000 OA
ATOM     25  C   UNL     1       6.907   4.909  14.035  0.00  0.00    +0.000 C 
BRANCH  25  26
ATOM     26  O   UNL     1       7.782   5.456  13.159  0.00  0.00    +0.000 OA
ATOM     27  H   UNL     1       8.432   4.831  12.791  0.00  0.00    +0.000 HD
ENDBRANCH  25  26
ENDBRANCH  18  25
ENDBRANCH  16  21
ENDBRANCH   1  16
TORSDOF 5
ENDMDL
MODEL 4
REMARK VINA RESULT:      -7.1      2.896      5.343
REMARK  Name = 
REMARK  5 active torsions:
REMARK  status: ('A' for Active; 'I' for Inactive)
REMARK    1  A    between atoms: C_2  and  O_3
REMARK    2  A    between atoms: C_2  and  C_4
REMARK    3  A    between atoms: C_7  and  N_8
REMARK    4  A    between atoms: N_8  and  C_9
REMARK    5  A    between atoms: C_16  and  C_17
REMARK                            x       y       z     vdW  Elec       q    Type
REMARK                         _______ _______ _______ _____ _____    ______ ____
ROOT
ATOM      1  C   UNL     1       2.845   6.484  19.245  0.00  0.00    +0.000 A 
ATOM      2  N   UNL     1       3.531   5.989  18.205  0.00  0.00    +0.000 NA
ATOM      3  C   UNL     1       3.669   6.799  17.148  0.00  0.00    +0.000 A 
ATOM      4  N   UNL     1       3.158   8.033  17.012  0.00  0.00    +0.000 NA
ATOM      5  C   UNL     1       2.470   8.513  18.050  0.00  0.00    +0.000 A 
ATOM      6  C   UNL     1       1.845   9.757  17.954  0.00  0.00    +0.000 A 
ATOM      7  C   UNL     1       1.073  10.289  19.003  0.00  0.00    +0.000 A 
ATOM      8  C   UNL     1       0.940   9.590  20.202  0.00  0.00    +0.000 A 
ATOM      9  C   UNL     1       1.604   8.360  20.314  0.00  0.00    +0.000 A 
ATOM     10  C   UNL     1       2.323   7.793  19.238  0.00  0.00    +0.000 A 
ENDROOT
BRANCH   8  11
ATOM     11  C   UNL     1       0.097  10.031  21.323  0.00  0.00    +0.000 A 
ATOM     12  C   UNL     1      -0.041   9.452  22.577  0.00  0.00    +0.000 A 
ATOM     13  N   UNL     1      -0.856  10.110  23.471  0.00  0.00    +0.000 NA
ATOM     14  C   UNL     1      -1.350  11.174  22.894  0.00  0.00    +0.000 A 
ATOM     15  S   UNL     1      -0.891  11.435  21.261  0.00  0.00    +0.000 S 
ENDBRANCH   8  11
BRANCH   1  16
ATOM     16  N   UNL     1       2.620   5.670  20.374  0.00  0.00    +0.000 N 
ATOM     17  H   UNL     1       3.491   5.177  20.566  0.00  0.00    +0.000 HD
BRANCH  16  21
ATOM     18  C   UNL     1       2.861   2.147  19.845  0.00  0.00    +0.000 C 
ATOM     19  C   UNL     1       2.790   2.782  21.240  0.00  0.00    +0.000 C 
ATOM     20  C   UNL     1       1.567   3.679  21.436  0.00  0.00    +0.000 C 
ATOM     21  C   UNL     1       1.455   4.776  20.365  0.00  0.00    +0.000 C 
ATOM     22  C   UNL     1       1.376   4.072  18.997  0.00  0.00    +0.000 C 
ATOM     23  C   UNL     1       2.579   3.165  18.725  0.00  0.00    +0.000 C 
BRANCH  18  25
ATOM     24  O   UNL     1       5.185   1.634  20.385  0.00  0.00    +0.000 OA
ATOM     25  C   UNL     1       4.229   1.506  19.635  0.00  0.00    +0.000 C 
BRANCH  25  26
ATOM     26  O   UNL     1       4.315   0.774  18.500  0.00  0.00    +0.000 OA
ATOM     27  H   UNL     1       4.235  -0.188  18.630  0.00  0.00    +0.000 HD
ENDBRANCH  25  26
ENDBRANCH  18  25
ENDBRANCH  16  21
ENDBRANCH   1  16
TORSDOF 5
ENDMDL
MODEL 5
REMARK VINA RESULT:      -7.0      3.132      4.945
REMARK  Name = 
REMARK  5 active torsions:
REMARK  status: ('A' for Active; 'I' for Inactive)
REMARK    1  A    between atoms: C_2  and  O_3
REMARK    2  A    between atoms: C_2  and  C_4
REMARK    3  A    between atoms: C_7  and  N_8
REMARK    4  A    between atoms: N_8  and  C_9
REMARK    5  A    between atoms: C_16  and  C_17
REMARK                            x       y       z     vdW  Elec       q    Type
REMARK                         _______ _______ _______ _____ _____    ______ ____
ROOT
ATOM      1  C   UNL     1       5.507   4.108  17.797  0.00  0.00    +0.000 A 
ATOM      2  N   UNL     1       6.030   4.630  18.916  0.00  0.00    +0.000 NA
ATOM      3  C   UNL     1       7.052   5.479  18.751  0.00  0.00    +0.000 A 
ATOM      4  N   UNL     1       7.626   5.826  17.588  0.00  0.00    +0.000 NA
ATOM      5  C   UNL     1       7.103   5.295  16.481  0.00  0.00    +0.000 A 
ATOM      6  C   UNL     1       7.693   5.548  15.242  0.00  0.00    +0.000 A 
ATOM      7  C   UNL     1       7.207   4.978  14.051  0.00  0.00    +0.000 A 
ATOM      8  C   UNL     1       6.079   4.159  14.074  0.00  0.00    +0.000 A 
ATOM      9  C   UNL     1       5.459   3.940  15.313  0.00  0.00    +0.000 A 
ATOM     10  C   UNL     1       5.986   4.456  16.518  0.00  0.00    +0.000 A 
ENDROOT
BRANCH   8  11
ATOM     11  C   UNL     1       5.543   3.463  12.895  0.00  0.00    +0.000 A 
ATOM     12  C   UNL     1       4.307   3.628  12.285  0.00  0.00    +0.000 A 
ATOM     13  N   UNL     1       4.080   2.890  11.145  0.00  0.00    +0.000 NA
ATOM     14  C   UNL     1       5.132   2.154  10.900  0.00  0.00    +0.000 A 
ATOM     15  S   UNL     1       6.430   2.284  12.015  0.00  0.00    +0.000 S 
ENDBRANCH   8  11
BRANCH   1  16
ATOM     16  N   UNL     1       4.459   3.170  17.897  0.00  0.00    +0.000 N 
ATOM     17  H   UNL     1       4.760   2.331  17.404  0.00  0.00    +0.000 HD
BRANCH  16  21
ATOM     18  C   UNL     1       1.677   3.109  20.135  0.00  0.00    +0.000 C 
ATOM     19  C   UNL     1       2.516   4.367  19.874  0.00  0.00    +0.000 C 
ATOM     20  C   UNL     1       2.596   4.746  18.395  0.00  0.00    +0.000 C 
ATOM     21  C   UNL     1       3.107   3.596  17.513  0.00  0.00    +0.000 C 
ATOM     22  C   UNL     1       2.138   2.412  17.699  0.00  0.00    +0.000 C 
ATOM     23  C   UNL     1       2.018   1.968  19.159  0.00  0.00    +0.000 C 
BRANCH  18  25
ATOM     24  O   UNL     1       0.994   2.586  22.419  0.00  0.00    +0.000 OA
ATOM     25  C   UNL     1       1.874   2.642  21.573  0.00  0.00    +0.000 C 
BRANCH  25  26
ATOM     26  O   UNL     1       3.152   2.299  21.862  0.00  0.00    +0.000 OA
ATOM     27  H   UNL     1       3.278   1.363  22.098  0.00  0.00    +0.000 HD
ENDBRANCH  25  26
ENDBRANCH  18  25
ENDBRANCH  16  21
ENDBRANCH   1  16
TORSDOF 5
ENDMDL
MODEL 6
REMARK VINA RESULT:      -6.9      2.624      6.045
REMARK  Name = 
REMARK  5 active torsions:
REMARK  status: ('A' for Active; 'I' for Inactive)
REMARK    1  A    between atoms: C_2  and  O_3
REMARK    2  A    between atoms: C_2  and  C_4
REMARK    3  A    between atoms: C_7  and  N_8
REMARK    4  A    between atoms: N_8  and  C_9
REMARK    5  A    between atoms: C_16  and  C_17
REMARK                            x       y       z     vdW  Elec       q    Type
REMARK                         _______ _______ _______ _____ _____    ______ ____
ROOT
ATOM      1  C   UNL     1       3.765   3.817  18.075  0.00  0.00    +0.000 A 
ATOM      2  N   UNL     1       4.109   2.553  18.359  0.00  0.00    +0.000 NA
ATOM      3  C   UNL     1       3.676   2.072  19.531  0.00  0.00    +0.000 A 
ATOM      4  N   UNL     1       2.972   2.738  20.460  0.00  0.00    +0.000 NA
ATOM      5  C   UNL     1       2.642   3.998  20.170  0.00  0.00    +0.000 A 
ATOM      6  C   UNL     1       1.976   4.777  21.117  0.00  0.00    +0.000 A 
ATOM      7  C   UNL     1       1.644   6.123  20.877  0.00  0.00    +0.000 A 
ATOM      8  C   UNL     1       1.943   6.713  19.650  0.00  0.00    +0.000 A 
ATOM      9  C   UNL     1       2.573   5.917  18.683  0.00  0.00    +0.000 A 
ATOM     10  C   UNL     1       2.968   4.587  18.946  0.00  0.00    +0.000 A 
ENDROOT
BRANCH   8  11
ATOM     11  C   UNL     1       1.701   8.129  19.337  0.00  0.00    +0.000 A 
ATOM     12  C   UNL     1       1.123   9.102  20.142  0.00  0.00    +0.000 A 
ATOM     13  N   UNL     1       1.072  10.377  19.624  0.00  0.00    +0.000 NA
ATOM     14  C   UNL     1       1.592  10.369  18.424  0.00  0.00    +0.000 A 
ATOM     15  S   UNL     1       2.146   8.852  17.844  0.00  0.00    +0.000 S 
ENDBRANCH   8  11
BRANCH   1  16
ATOM     16  N   UNL     1       4.225   4.405  16.878  0.00  0.00    +0.000 N 
ATOM     17  H   UNL     1       4.375   3.649  16.212  0.00  0.00    +0.000 HD
BRANCH  16  21
ATOM     18  C   UNL     1       6.590   4.808  14.234  0.00  0.00    +0.000 C 
ATOM     19  C   UNL     1       5.387   5.739  14.431  0.00  0.00    +0.000 C 
ATOM     20  C   UNL     1       5.331   6.370  15.823  0.00  0.00    +0.000 C 
ATOM     21  C   UNL     1       5.365   5.328  16.951  0.00  0.00    +0.000 C 
ATOM     22  C   UNL     1       6.670   4.524  16.793  0.00  0.00    +0.000 C 
ATOM     23  C   UNL     1       6.788   3.850  15.423  0.00  0.00    +0.000 C 
BRANCH  18  25
ATOM     24  O   UNL     1       5.558   3.173  12.744  0.00  0.00    +0.000 OA
ATOM     25  C   UNL     1       6.425   4.011  12.944  0.00  0.00    +0.000 C 
BRANCH  25  26
ATOM     26  O   UNL     1       7.361   4.295  12.008  0.00  0.00    +0.000 OA
ATOM     27  H   UNL     1       7.943   5.044  12.230  0.00  0.00    +0.000 HD
ENDBRANCH  25  26
ENDBRANCH  18  25
ENDBRANCH  16  21
ENDBRANCH   1  16
TORSDOF 5
ENDMDL
MODEL 7
REMARK VINA RESULT:      -6.9      6.967     10.375
REMARK  Name = 
REMARK  5 active torsions:
REMARK  status: ('A' for Active; 'I' for Inactive)
REMARK    1  A    between atoms: C_2  and  O_3
REMARK    2  A    between atoms: C_2  and  C_4
REMARK    3  A    between atoms: C_7  and  N_8
REMARK    4  A    between atoms: N_8  and  C_9
REMARK    5  A    between atoms: C_16  and  C_17
REMARK                            x       y       z     vdW  Elec       q    Type
REMARK                         _______ _______ _______ _____ _____    ______ ____
ROOT
ATOM      1  C   UNL     1      -2.342  10.546  17.593  0.00  0.00    +0.000 A 
ATOM      2  N   UNL     1      -2.069  10.092  16.361  0.00  0.00    +0.000 NA
ATOM      3  C   UNL     1      -2.953  10.405  15.406  0.00  0.00    +0.000 A 
ATOM      4  N   UNL     1      -4.097  11.089  15.567  0.00  0.00    +0.000 NA
ATOM      5  C   UNL     1      -4.363  11.530  16.798  0.00  0.00    +0.000 A 
ATOM      6  C   UNL     1      -5.568  12.183  17.058  0.00  0.00    +0.000 A 
ATOM      7  C   UNL     1      -5.915  12.628  18.347  0.00  0.00    +0.000 A 
ATOM      8  C   UNL     1      -5.030  12.459  19.410  0.00  0.00    +0.000 A 
ATOM      9  C   UNL     1      -3.799  11.842  19.140  0.00  0.00    +0.000 A 
ATOM     10  C   UNL     1      -3.479  11.334  17.862  0.00  0.00    +0.000 A 
ENDROOT
BRANCH   8  11
ATOM     11  C   UNL     1      -5.335  12.826  20.801  0.00  0.00    +0.000 A 
ATOM     12  C   UNL     1      -6.572  13.105  21.366  0.00  0.00    +0.000 A 
ATOM     13  N   UNL     1      -6.586  13.361  22.719  0.00  0.00    +0.000 NA
ATOM     14  C   UNL     1      -5.363  13.294  23.177  0.00  0.00    +0.000 A 
ATOM     15  S   UNL     1      -4.137  12.947  22.027  0.00  0.00    +0.000 S 
ENDBRANCH   8  11
BRANCH   1  16
ATOM     16  N   UNL     1      -1.478  10.215  18.657  0.00  0.00    +0.000 N 
ATOM     17  H   UNL     1      -2.019  10.293  19.517  0.00  0.00    +0.000 HD
BRANCH  16  21
ATOM     18  C   UNL     1       0.553  10.214  21.594  0.00  0.00    +0.000 C 
ATOM     19  C   UNL     1       0.763   9.238  20.429  0.00  0.00    +0.000 C 
ATOM     20  C   UNL     1       0.960   9.935  19.083  0.00  0.00    +0.000 C 
ATOM     21  C   UNL     1      -0.183  10.904  18.741  0.00  0.00    +0.000 C 
ATOM     22  C   UNL     1      -0.247  11.952  19.869  0.00  0.00    +0.000 C 
ATOM     23  C   UNL     1      -0.457  11.325  21.250  0.00  0.00    +0.000 C 
BRANCH  18  25
ATOM     24  O   UNL     1       0.590   9.554  23.944  0.00  0.00    +0.000 OA
ATOM     25  C   UNL     1       0.090   9.454  22.833  0.00  0.00    +0.000 C 
BRANCH  25  26
ATOM     26  O   UNL     1      -0.942   8.611  22.597  0.00  0.00    +0.000 OA
ATOM     27  H   UNL     1      -0.808   8.005  21.846  0.00  0.00    +0.000 HD
ENDBRANCH  25  26
ENDBRANCH  18  25
ENDBRANCH  16  21
ENDBRANCH   1  16
TORSDOF 5
ENDMDL
MODEL 8
REMARK VINA RESULT:      -6.8      7.273     10.548
REMARK  Name = 
REMARK  5 active torsions:
REMARK  status: ('A' for Active; 'I' for Inactive)
REMARK    1  A    between atoms: C_2  and  O_3
REMARK    2  A    between atoms: C_2  and  C_4
REMARK    3  A    between atoms: C_7  and  N_8
REMARK    4  A    between atoms: N_8  and  C_9
REMARK    5  A    between atoms: C_16  and  C_17
REMARK                            x       y       z     vdW  Elec       q    Type
REMARK                         _______ _______ _______ _____ _____    ______ ____
ROOT
ATOM      1  C   UNL     1      -2.420  10.481  17.556  0.00  0.00    +0.000 A 
ATOM      2  N   UNL     1      -2.127  10.101  16.304  0.00  0.00    +0.000 NA
ATOM      3  C   UNL     1      -2.980  10.498  15.351  0.00  0.00    +0.000 A 
ATOM      4  N   UNL     1      -4.111  11.199  15.529  0.00  0.00    +0.000 NA
ATOM      5  C   UNL     1      -4.396  11.565  16.780  0.00  0.00    +0.000 A 
ATOM      6  C   UNL     1      -5.592  12.230  17.054  0.00  0.00    +0.000 A 
ATOM      7  C   UNL     1      -5.961  12.599  18.361  0.00  0.00    +0.000 A 
ATOM      8  C   UNL     1      -5.106  12.338  19.431  0.00  0.00    +0.000 A 
ATOM      9  C   UNL     1      -3.885  11.710  19.150  0.00  0.00    +0.000 A 
ATOM     10  C   UNL     1      -3.544  11.278  17.849  0.00  0.00    +0.000 A 
ENDROOT
BRANCH   8  11
ATOM     11  C   UNL     1      -5.437  12.621  20.836  0.00  0.00    +0.000 A 
ATOM     12  C   UNL     1      -4.570  12.818  21.902  0.00  0.00    +0.000 A 
ATOM     13  N   UNL     1      -5.146  13.133  23.113  0.00  0.00    +0.000 NA
ATOM     14  C   UNL     1      -6.446  13.159  22.971  0.00  0.00    +0.000 A 
ATOM     15  S   UNL     1      -7.049  12.791  21.407  0.00  0.00    +0.000 S 
ENDBRANCH   8  11
BRANCH   1  16
ATOM     16  N   UNL     1      -1.591  10.060  18.616  0.00  0.00    +0.000 N 
ATOM     17  H   UNL     1      -2.110  10.208  19.480  0.00  0.00    +0.000 HD
BRANCH  16  21
ATOM     18  C   UNL     1       0.092  10.759  21.687  0.00  0.00    +0.000 C 
ATOM     19  C   UNL     1       0.274   9.448  20.910  0.00  0.00    +0.000 C 
ATOM     20  C   UNL     1       0.717   9.658  19.462  0.00  0.00    +0.000 C 
ATOM     21  C   UNL     1      -0.223  10.591  18.682  0.00  0.00    +0.000 C 
ATOM     22  C   UNL     1      -0.247  11.941  19.424  0.00  0.00    +0.000 C 
ATOM     23  C   UNL     1      -0.696  11.809  20.882  0.00  0.00    +0.000 C 
BRANCH  18  25
ATOM     24  O   UNL     1      -1.686  10.958  23.348  0.00  0.00    +0.000 OA
ATOM     25  C   UNL     1      -0.610  10.484  23.013  0.00  0.00    +0.000 C 
BRANCH  25  26
ATOM     26  O   UNL     1       0.084   9.661  23.833  0.00  0.00    +0.000 OA
ATOM     27  H   UNL     1      -0.272   8.756  23.896  0.00  0.00    +0.000 HD
ENDBRANCH  25  26
ENDBRANCH  18  25
ENDBRANCH  16  21
ENDBRANCH   1  16
TORSDOF 5
ENDMDL
MODEL 9
REMARK VINA RESULT:      -6.8      3.464      6.541
REMARK  Name = 
REMARK  5 active torsions:
REMARK  status: ('A' for Active; 'I' for Inactive)
REMARK    1  A    between atoms: C_2  and  O_3
REMARK    2  A    between atoms: C_2  and  C_4
REMARK    3  A    between atoms: C_7  and  N_8
REMARK    4  A    between atoms: N_8  and  C_9
REMARK    5  A    between atoms: C_16  and  C_17
REMARK                            x       y       z     vdW  Elec       q    Type
REMARK                         _______ _______ _______ _____ _____    ______ ____
ROOT
ATOM      1  C   UNL     1       4.548   4.276  19.387  0.00  0.00    +0.000 A 
ATOM      2  N   UNL     1       4.846   2.971  19.458  0.00  0.00    +0.000 NA
ATOM      3  C   UNL     1       3.872   2.165  19.898  0.00  0.00    +0.000 A 
ATOM      4  N   UNL     1       2.649   2.537  20.309  0.00  0.00    +0.000 NA
ATOM      5  C   UNL     1       2.366   3.839  20.241  0.00  0.00    +0.000 A 
ATOM      6  C   UNL     1       1.143   4.310  20.722  0.00  0.00    +0.000 A 
ATOM      7  C   UNL     1       0.814   5.678  20.713  0.00  0.00    +0.000 A 
ATOM      8  C   UNL     1       1.702   6.611  20.180  0.00  0.00    +0.000 A 
ATOM      9  C   UNL     1       2.911   6.132  19.658  0.00  0.00    +0.000 A 
ATOM     10  C   UNL     1       3.273   4.769  19.728  0.00  0.00    +0.000 A 
ENDROOT
BRANCH   8  11
ATOM     11  C   UNL     1       1.475   8.064  20.195  0.00  0.00    +0.000 A 
ATOM     12  C   UNL     1       1.508   8.951  19.128  0.00  0.00    +0.000 A 
ATOM     13  N   UNL     1       1.194  10.262  19.408  0.00  0.00    +0.000 NA
ATOM     14  C   UNL     1       0.940  10.374  20.686  0.00  0.00    +0.000 A 
ATOM     15  S   UNL     1       1.081   8.941  21.619  0.00  0.00    +0.000 S 
ENDBRANCH   8  11
BRANCH   1  16
ATOM     16  N   UNL     1       5.542   5.189  18.977  0.00  0.00    +0.000 N 
ATOM     17  H   UNL     1       5.099   6.104  18.911  0.00  0.00    +0.000 HD
BRANCH  16  21
ATOM     18  C   UNL     1       7.882   7.448  17.505  0.00  0.00    +0.000 C 
ATOM     19  C   UNL     1       8.287   6.350  18.498  0.00  0.00    +0.000 C 
ATOM     20  C   UNL     1       7.847   4.951  18.067  0.00  0.00    +0.000 C 
ATOM     21  C   UNL     1       6.338   4.861  17.788  0.00  0.00    +0.000 C 
ATOM     22  C   UNL     1       6.017   5.877  16.675  0.00  0.00    +0.000 C 
ATOM     23  C   UNL     1       6.420   7.308  17.044  0.00  0.00    +0.000 C 
BRANCH  18  25
ATOM     24  O   UNL     1       7.620   9.865  17.716  0.00  0.00    +0.000 OA
ATOM     25  C   UNL     1       8.103   8.821  18.130  0.00  0.00    +0.000 C 
BRANCH  25  26
ATOM     26  O   UNL     1       8.923   8.801  19.207  0.00  0.00    +0.000 OA
ATOM     27  H   UNL     1       8.821   9.560  19.809  0.00  0.00    +0.000 HD
ENDBRANCH  25  26
ENDBRANCH  18  25
ENDBRANCH  16  21
ENDBRANCH   1  16
TORSDOF 5
ENDMDL
