MODEL 1
REMARK VINA RESULT:      -8.1      0.000      0.000
REMARK  Name = 
REMARK  5 active torsions:
REMARK  status: ('A' for Active; 'I' for Inactive)
REMARK    1  A    between atoms: S_2  and  N_4
REMARK    2  A    between atoms: S_2  and  C_19
REMARK    3  A    between atoms: N_4  and  C_5
REMARK    4  A    between atoms: C_10  and  N_11
REMARK    5  A    between atoms: N_11  and  C_12
REMARK                            x       y       z     vdW  Elec       q    Type
REMARK                         _______ _______ _______ _____ _____    ______ ____
ROOT
ATOM      1  C   UNL     1       6.659   4.355  17.229  0.00  0.00    +0.000 A 
ATOM      2  C   UNL     1       7.611   5.278  17.666  0.00  0.00    +0.000 A 
ATOM      3  C   UNL     1       7.507   5.759  18.959  0.00  0.00    +0.000 A 
ATOM      4  N   UNL     1       6.528   5.400  19.808  0.00  0.00    +0.000 NA
ATOM      5  C   UNL     1       5.595   4.538  19.331  0.00  0.00    +0.000 A 
ATOM      6  C   UNL     1       5.592   3.960  18.061  0.00  0.00    +0.000 A 
ENDROOT
BRANCH   1   7
ATOM      7  N   UNL     1       6.764   3.836  15.883  0.00  0.00    +0.000 N 
ATOM      8  H   UNL     1       7.670   3.391  15.714  0.00  0.00    +0.000 HD
BRANCH   7  10
ATOM      9  O   UNL     1       5.462   5.870  14.963  0.00  0.00    +0.000 OA
ATOM     10  S   UNL     1       6.543   4.972  14.613  0.00  0.00    +0.000 S 
ATOM     11  O   UNL     1       7.884   5.505  14.420  0.00  0.00    +0.000 OA
BRANCH  10  12
ATOM     12  C   UNL     1       6.068   3.907  13.139  0.00  0.00    +0.000 C 
ATOM     13  F   UNL     1       4.736   4.000  12.847  0.00  0.00    +0.000 F 
ATOM     14  F   UNL     1       6.744   4.238  12.005  0.00  0.00    +0.000 F 
ATOM     15  F   UNL     1       6.320   2.585  13.364  0.00  0.00    +0.000 F 
ENDBRANCH  10  12
ENDBRANCH   7  10
ENDBRANCH   1   7
BRANCH   6  16
ATOM     16  N   UNL     1       4.597   3.114  17.587  0.00  0.00    +0.000 N 
ATOM     17  H   UNL     1       4.778   2.123  17.709  0.00  0.00    +0.000 HD
BRANCH  16  18
ATOM     18  C   UNL     1       3.241   3.546  17.234  0.00  0.00    +0.000 C 
ATOM     19  C   UNL     1       2.213   2.542  17.801  0.00  0.00    +0.000 C 
ATOM     20  C   UNL     1       2.279   2.346  19.312  0.00  0.00    +0.000 C 
ATOM     21  C   UNL     1       1.581   3.401  20.160  0.00  0.00    +0.000 C 
ATOM     22  C   UNL     1       1.919   4.867  19.908  0.00  0.00    +0.000 C 
ATOM     23  C   UNL     1       1.798   5.339  18.465  0.00  0.00    +0.000 C 
ATOM     24  C   UNL     1       3.034   5.014  17.633  0.00  0.00    +0.000 C 
ENDBRANCH  16  18
ENDBRANCH   6  16
TORSDOF 5
ENDMDL
MODEL 2
REMARK VINA RESULT:      -8.0      0.780      1.289
REMARK  Name = 
REMARK  5 active torsions:
REMARK  status: ('A' for Active; 'I' for Inactive)
REMARK    1  A    between atoms: S_2  and  N_4
REMARK    2  A    between atoms: S_2  and  C_19
REMARK    3  A    between atoms: N_4  and  C_5
REMARK    4  A    between atoms: C_10  and  N_11
REMARK    5  A    between atoms: N_11  and  C_12
REMARK                            x       y       z     vdW  Elec       q    Type
REMARK                         _______ _______ _______ _____ _____    ______ ____
ROOT
ATOM      1  C   UNL     1       6.478   4.370  17.310  0.00  0.00    +0.000 A 
ATOM      2  C   UNL     1       7.765   4.709  17.732  0.00  0.00    +0.000 A 
ATOM      3  C   UNL     1       7.919   5.226  19.005  0.00  0.00    +0.000 A 
ATOM      4  N   UNL     1       6.894   5.437  19.849  0.00  0.00    +0.000 NA
ATOM      5  C   UNL     1       5.654   5.139  19.387  0.00  0.00    +0.000 A 
ATOM      6  C   UNL     1       5.359   4.592  18.138  0.00  0.00    +0.000 A 
ENDROOT
BRANCH   1   7
ATOM      7  N   UNL     1       6.307   3.816  15.985  0.00  0.00    +0.000 N 
ATOM      8  H   UNL     1       7.011   3.105  15.772  0.00  0.00    +0.000 HD
BRANCH   7  10
ATOM      9  O   UNL     1       5.319   5.937  14.887  0.00  0.00    +0.000 OA
ATOM     10  S   UNL     1       6.347   4.937  14.684  0.00  0.00    +0.000 S 
ATOM     11  O   UNL     1       7.745   5.344  14.653  0.00  0.00    +0.000 OA
BRANCH  10  12
ATOM     12  C   UNL     1       5.961   3.886  13.175  0.00  0.00    +0.000 C 
ATOM     13  F   UNL     1       6.248   2.566  13.382  0.00  0.00    +0.000 F 
ATOM     14  F   UNL     1       4.654   3.951  12.802  0.00  0.00    +0.000 F 
ATOM     15  F   UNL     1       6.690   4.271  12.087  0.00  0.00    +0.000 F 
ENDBRANCH  10  12
ENDBRANCH   7  10
ENDBRANCH   1   7
BRANCH   6  16
ATOM     16  N   UNL     1       4.073   4.339  17.676  0.00  0.00    +0.000 N 
ATOM     17  H   UNL     1       3.925   3.408  17.298  0.00  0.00    +0.000 HD
BRANCH  16  18
ATOM     18  C   UNL     1       2.905   5.173  17.977  0.00  0.00    +0.000 C 
ATOM     19  C   UNL     1       1.612   4.388  17.661  0.00  0.00    +0.000 C 
ATOM     20  C   UNL     1       1.469   3.067  18.408  0.00  0.00    +0.000 C 
ATOM     21  C   UNL     1       0.957   3.155  19.840  0.00  0.00    +0.000 C 
ATOM     22  C   UNL     1       1.660   4.110  20.798  0.00  0.00    +0.000 C 
ATOM     23  C   UNL     1       1.810   5.547  20.316  0.00  0.00    +0.000 C 
ATOM     24  C   UNL     1       3.014   5.738  19.401  0.00  0.00    +0.000 C 
ENDBRANCH  16  18
ENDBRANCH   6  16
TORSDOF 5
ENDMDL
MODEL 3
REMARK VINA RESULT:      -7.9      1.027      1.456
REMARK  Name = 
REMARK  5 active torsions:
REMARK  status: ('A' for Active; 'I' for Inactive)
REMARK    1  A    between atoms: S_2  and  N_4
REMARK    2  A    between atoms: S_2  and  C_19
REMARK    3  A    between atoms: N_4  and  C_5
REMARK    4  A    between atoms: C_10  and  N_11
REMARK    5  A    between atoms: N_11  and  C_12
REMARK                            x       y       z     vdW  Elec       q    Type
REMARK                         _______ _______ _______ _____ _____    ______ ____
ROOT
ATOM      1  C   UNL     1       6.483   4.415  17.393  0.00  0.00    +0.000 A 
ATOM      2  C   UNL     1       7.791   4.778  17.721  0.00  0.00    +0.000 A 
ATOM      3  C   UNL     1       8.025   5.297  18.981  0.00  0.00    +0.000 A 
ATOM      4  N   UNL     1       7.060   5.489  19.897  0.00  0.00    +0.000 NA
ATOM      5  C   UNL     1       5.795   5.168  19.524  0.00  0.00    +0.000 A 
ATOM      6  C   UNL     1       5.422   4.616  18.298  0.00  0.00    +0.000 A 
ENDROOT
BRANCH   1   7
ATOM      7  N   UNL     1       6.228   3.859  16.082  0.00  0.00    +0.000 N 
ATOM      8  H   UNL     1       6.853   3.078  15.867  0.00  0.00    +0.000 HD
BRANCH   7  10
ATOM      9  O   UNL     1       5.353   5.989  14.909  0.00  0.00    +0.000 OA
ATOM     10  S   UNL     1       6.349   4.949  14.759  0.00  0.00    +0.000 S 
ATOM     11  O   UNL     1       7.762   5.303  14.762  0.00  0.00    +0.000 OA
BRANCH  10  12
ATOM     12  C   UNL     1       5.970   3.879  13.262  0.00  0.00    +0.000 C 
ATOM     13  F   UNL     1       6.202   2.554  13.505  0.00  0.00    +0.000 F 
ATOM     14  F   UNL     1       4.677   3.983  12.847  0.00  0.00    +0.000 F 
ATOM     15  F   UNL     1       6.745   4.213  12.188  0.00  0.00    +0.000 F 
ENDBRANCH  10  12
ENDBRANCH   7  10
ENDBRANCH   1   7
BRANCH   6  16
ATOM     16  N   UNL     1       4.112   4.340  17.929  0.00  0.00    +0.000 N 
ATOM     17  H   UNL     1       3.635   5.088  17.434  0.00  0.00    +0.000 HD
BRANCH  16  18
ATOM     18  C   UNL     1       3.516   3.000  17.924  0.00  0.00    +0.000 C 
ATOM     19  C   UNL     1       3.858   2.276  19.245  0.00  0.00    +0.000 C 
ATOM     20  C   UNL     1       3.405   3.001  20.507  0.00  0.00    +0.000 C 
ATOM     21  C   UNL     1       1.943   2.826  20.896  0.00  0.00    +0.000 C 
ATOM     22  C   UNL     1       0.879   3.106  19.840  0.00  0.00    +0.000 C 
ATOM     23  C   UNL     1       1.051   2.380  18.513  0.00  0.00    +0.000 C 
ATOM     24  C   UNL     1       2.023   3.087  17.576  0.00  0.00    +0.000 C 
ENDBRANCH  16  18
ENDBRANCH   6  16
TORSDOF 5
ENDMDL
MODEL 4
REMARK VINA RESULT:      -7.8      3.462      4.146
REMARK  Name = 
REMARK  5 active torsions:
REMARK  status: ('A' for Active; 'I' for Inactive)
REMARK    1  A    between atoms: S_2  and  N_4
REMARK    2  A    between atoms: S_2  and  C_19
REMARK    3  A    between atoms: N_4  and  C_5
REMARK    4  A    between atoms: C_10  and  N_11
REMARK    5  A    between atoms: N_11  and  C_12
REMARK                            x       y       z     vdW  Elec       q    Type
REMARK                         _______ _______ _______ _____ _____    ______ ____
ROOT
ATOM      1  C   UNL     1       4.519   6.007  18.023  0.00  0.00    +0.000 A 
ATOM      2  C   UNL     1       3.967   7.147  17.435  0.00  0.00    +0.000 A 
ATOM      3  C   UNL     1       2.854   7.712  18.030  0.00  0.00    +0.000 A 
ATOM      4  N   UNL     1       2.265   7.213  19.131  0.00  0.00    +0.000 NA
ATOM      5  C   UNL     1       2.802   6.078  19.645  0.00  0.00    +0.000 A 
ATOM      6  C   UNL     1       3.932   5.418  19.161  0.00  0.00    +0.000 A 
ENDROOT
BRANCH   1   7
ATOM      7  N   UNL     1       5.690   5.414  17.417  0.00  0.00    +0.000 N 
ATOM      8  H   UNL     1       5.580   4.407  17.272  0.00  0.00    +0.000 HD
BRANCH   7  10
ATOM      9  O   UNL     1       6.915   5.521  19.691  0.00  0.00    +0.000 OA
ATOM     10  S   UNL     1       7.169   5.616  18.268  0.00  0.00    +0.000 S 
ATOM     11  O   UNL     1       8.044   4.643  17.630  0.00  0.00    +0.000 OA
BRANCH  10  12
ATOM     12  C   UNL     1       7.716   7.355  17.808  0.00  0.00    +0.000 C 
ATOM     13  F   UNL     1       8.685   7.827  18.648  0.00  0.00    +0.000 F 
ATOM     14  F   UNL     1       8.214   7.438  16.544  0.00  0.00    +0.000 F 
ATOM     15  F   UNL     1       6.684   8.246  17.873  0.00  0.00    +0.000 F 
ENDBRANCH  10  12
ENDBRANCH   7  10
ENDBRANCH   1   7
BRANCH   6  16
ATOM     16  N   UNL     1       4.432   4.231  19.684  0.00  0.00    +0.000 N 
ATOM     17  H   UNL     1       5.058   4.338  20.476  0.00  0.00    +0.000 HD
BRANCH  16  18
ATOM     18  C   UNL     1       3.891   2.902  19.385  0.00  0.00    +0.000 C 
ATOM     19  C   UNL     1       3.503   2.192  20.702  0.00  0.00    +0.000 C 
ATOM     20  C   UNL     1       2.491   2.944  21.559  0.00  0.00    +0.000 C 
ATOM     21  C   UNL     1       1.029   2.799  21.157  0.00  0.00    +0.000 C 
ATOM     22  C   UNL     1       0.650   3.081  19.707  0.00  0.00    +0.000 C 
ATOM     23  C   UNL     1       1.452   2.332  18.651  0.00  0.00    +0.000 C 
ATOM     24  C   UNL     1       2.780   3.009  18.331  0.00  0.00    +0.000 C 
ENDBRANCH  16  18
ENDBRANCH   6  16
TORSDOF 5
ENDMDL
MODEL 5
REMARK VINA RESULT:      -7.8      2.621      3.497
REMARK  Name = 
REMARK  5 active torsions:
REMARK  status: ('A' for Active; 'I' for Inactive)
REMARK    1  A    between atoms: S_2  and  N_4
REMARK    2  A    between atoms: S_2  and  C_19
REMARK    3  A    between atoms: N_4  and  C_5
REMARK    4  A    between atoms: C_10  and  N_11
REMARK    5  A    between atoms: N_11  and  C_12
REMARK                            x       y       z     vdW  Elec       q    Type
REMARK                         _______ _______ _______ _____ _____    ______ ____
ROOT
ATOM      1  C   UNL     1       3.806   6.584  17.857  0.00  0.00    +0.000 A 
ATOM      2  C   UNL     1       3.144   7.804  17.708  0.00  0.00    +0.000 A 
ATOM      3  C   UNL     1       2.255   8.187  18.696  0.00  0.00    +0.000 A 
ATOM      4  N   UNL     1       1.983   7.440  19.781  0.00  0.00    +0.000 NA
ATOM      5  C   UNL     1       2.611   6.240  19.866  0.00  0.00    +0.000 A 
ATOM      6  C   UNL     1       3.544   5.742  18.956  0.00  0.00    +0.000 A 
ENDROOT
BRANCH   1   7
ATOM      7  N   UNL     1       4.747   6.178  16.836  0.00  0.00    +0.000 N 
ATOM      8  H   UNL     1       4.575   5.222  16.513  0.00  0.00    +0.000 HD
BRANCH   7  10
ATOM      9  O   UNL     1       7.010   7.413  16.650  0.00  0.00    +0.000 OA
ATOM     10  S   UNL     1       6.409   6.247  17.265  0.00  0.00    +0.000 S 
ATOM     11  O   UNL     1       6.371   6.143  18.718  0.00  0.00    +0.000 OA
BRANCH  10  12
ATOM     12  C   UNL     1       7.126   4.670  16.537  0.00  0.00    +0.000 C 
ATOM     13  F   UNL     1       7.628   4.867  15.281  0.00  0.00    +0.000 F 
ATOM     14  F   UNL     1       8.135   4.149  17.287  0.00  0.00    +0.000 F 
ATOM     15  F   UNL     1       6.185   3.688  16.425  0.00  0.00    +0.000 F 
ENDBRANCH  10  12
ENDBRANCH   7  10
ENDBRANCH   1   7
BRANCH   6  16
ATOM     16  N   UNL     1       4.137   4.489  19.048  0.00  0.00    +0.000 N 
ATOM     17  H   UNL     1       4.991   4.454  19.598  0.00  0.00    +0.000 HD
BRANCH  16  18
ATOM     18  C   UNL     1       3.475   3.230  18.693  0.00  0.00    +0.000 C 
ATOM     19  C   UNL     1       3.514   2.265  19.899  0.00  0.00    +0.000 C 
ATOM     20  C   UNL     1       2.872   2.806  21.172  0.00  0.00    +0.000 C 
ATOM     21  C   UNL     1       1.355   2.705  21.256  0.00  0.00    +0.000 C 
ATOM     22  C   UNL     1       0.531   3.256  20.098  0.00  0.00    +0.000 C 
ATOM     23  C   UNL     1       0.909   2.751  18.712  0.00  0.00    +0.000 C 
ATOM     24  C   UNL     1       2.083   3.513  18.108  0.00  0.00    +0.000 C 
ENDBRANCH  16  18
ENDBRANCH   6  16
TORSDOF 5
ENDMDL
MODEL 6
REMARK VINA RESULT:      -7.7      3.204      4.053
REMARK  Name = 
REMARK  5 active torsions:
REMARK  status: ('A' for Active; 'I' for Inactive)
REMARK    1  A    between atoms: S_2  and  N_4
REMARK    2  A    between atoms: S_2  and  C_19
REMARK    3  A    between atoms: N_4  and  C_5
REMARK    4  A    between atoms: C_10  and  N_11
REMARK    5  A    between atoms: N_11  and  C_12
REMARK                            x       y       z     vdW  Elec       q    Type
REMARK                         _______ _______ _______ _____ _____    ______ ____
ROOT
ATOM      1  C   UNL     1       4.272   6.139  17.823  0.00  0.00    +0.000 A 
ATOM      2  C   UNL     1       3.666   7.305  17.351  0.00  0.00    +0.000 A 
ATOM      3  C   UNL     1       2.666   7.876  18.117  0.00  0.00    +0.000 A 
ATOM      4  N   UNL     1       2.235   7.358  19.281  0.00  0.00    +0.000 NA
ATOM      5  C   UNL     1       2.816   6.199  19.683  0.00  0.00    +0.000 A 
ATOM      6  C   UNL     1       3.846   5.531  19.021  0.00  0.00    +0.000 A 
ENDROOT
BRANCH   1   7
ATOM      7  N   UNL     1       5.327   5.540  17.036  0.00  0.00    +0.000 N 
ATOM      8  H   UNL     1       5.553   4.594  17.353  0.00  0.00    +0.000 HD
BRANCH   7  10
ATOM      9  O   UNL     1       7.570   5.966  15.826  0.00  0.00    +0.000 OA
ATOM     10  S   UNL     1       6.814   6.397  16.983  0.00  0.00    +0.000 S 
ATOM     11  O   UNL     1       6.389   7.787  17.084  0.00  0.00    +0.000 OA
BRANCH  10  12
ATOM     12  C   UNL     1       7.682   5.886  18.569  0.00  0.00    +0.000 C 
ATOM     13  F   UNL     1       8.278   4.660  18.456  0.00  0.00    +0.000 F 
ATOM     14  F   UNL     1       8.652   6.761  18.952  0.00  0.00    +0.000 F 
ATOM     15  F   UNL     1       6.813   5.794  19.618  0.00  0.00    +0.000 F 
ENDBRANCH  10  12
ENDBRANCH   7  10
ENDBRANCH   1   7
BRANCH   6  16
ATOM     16  N   UNL     1       4.390   4.321  19.435  0.00  0.00    +0.000 N 
ATOM     17  H   UNL     1       5.100   4.392  20.158  0.00  0.00    +0.000 HD
BRANCH  16  18
ATOM     18  C   UNL     1       3.808   3.008  19.143  0.00  0.00    +0.000 C 
ATOM     19  C   UNL     1       3.570   2.240  20.463  0.00  0.00    +0.000 C 
ATOM     20  C   UNL     1       2.670   2.956  21.464  0.00  0.00    +0.000 C 
ATOM     21  C   UNL     1       1.170   2.833  21.227  0.00  0.00    +0.000 C 
ATOM     22  C   UNL     1       0.627   3.181  19.846  0.00  0.00    +0.000 C 
ATOM     23  C   UNL     1       1.297   2.477  18.672  0.00  0.00    +0.000 C 
ATOM     24  C   UNL     1       2.583   3.165  18.230  0.00  0.00    +0.000 C 
ENDBRANCH  16  18
ENDBRANCH   6  16
TORSDOF 5
ENDMDL
MODEL 7
REMARK VINA RESULT:      -7.7      4.179      6.047
REMARK  Name = 
REMARK  5 active torsions:
REMARK  status: ('A' for Active; 'I' for Inactive)
REMARK    1  A    between atoms: S_2  and  N_4
REMARK    2  A    between atoms: S_2  and  C_19
REMARK    3  A    between atoms: N_4  and  C_5
REMARK    4  A    between atoms: C_10  and  N_11
REMARK    5  A    between atoms: N_11  and  C_12
REMARK                            x       y       z     vdW  Elec       q    Type
REMARK                         _______ _______ _______ _____ _____    ______ ____
ROOT
ATOM      1  C   UNL     1       2.706   6.601  19.556  0.00  0.00    +0.000 A 
ATOM      2  C   UNL     1       1.918   7.439  20.348  0.00  0.00    +0.000 A 
ATOM      3  C   UNL     1       1.443   8.609  19.786  0.00  0.00    +0.000 A 
ATOM      4  N   UNL     1       1.715   8.991  18.525  0.00  0.00    +0.000 NA
ATOM      5  C   UNL     1       2.522   8.174  17.803  0.00  0.00    +0.000 A 
ATOM      6  C   UNL     1       3.050   6.958  18.236  0.00  0.00    +0.000 A 
ENDROOT
BRANCH   1   7
ATOM      7  N   UNL     1       3.199   5.368  20.129  0.00  0.00    +0.000 N 
ATOM      8  H   UNL     1       4.150   5.154  19.820  0.00  0.00    +0.000 HD
BRANCH   7  10
ATOM      9  O   UNL     1       1.568   3.575  21.027  0.00  0.00    +0.000 OA
ATOM     10  S   UNL     1       2.264   3.960  19.817  0.00  0.00    +0.000 S 
ATOM     11  O   UNL     1       1.497   4.337  18.638  0.00  0.00    +0.000 OA
BRANCH  10  12
ATOM     12  C   UNL     1       3.545   2.667  19.351  0.00  0.00    +0.000 C 
ATOM     13  F   UNL     1       2.968   1.498  18.938  0.00  0.00    +0.000 F 
ATOM     14  F   UNL     1       4.372   3.074  18.349  0.00  0.00    +0.000 F 
ATOM     15  F   UNL     1       4.351   2.345  20.405  0.00  0.00    +0.000 F 
ENDBRANCH  10  12
ENDBRANCH   7  10
ENDBRANCH   1   7
BRANCH   6  16
ATOM     16  N   UNL     1       3.911   6.165  17.488  0.00  0.00    +0.000 N 
ATOM     17  H   UNL     1       3.591   5.215  17.324  0.00  0.00    +0.000 HD
BRANCH  16  18
ATOM     18  C   UNL     1       5.032   6.678  16.695  0.00  0.00    +0.000 C 
ATOM     19  C   UNL     1       6.257   6.898  17.610  0.00  0.00    +0.000 C 
ATOM     20  C   UNL     1       6.725   5.657  18.361  0.00  0.00    +0.000 C 
ATOM     21  C   UNL     1       7.599   4.685  17.578  0.00  0.00    +0.000 C 
ATOM     22  C   UNL     1       7.098   4.198  16.223  0.00  0.00    +0.000 C 
ATOM     23  C   UNL     1       6.686   5.283  15.236  0.00  0.00    +0.000 C 
ATOM     24  C   UNL     1       5.265   5.782  15.469  0.00  0.00    +0.000 C 
ENDBRANCH  16  18
ENDBRANCH   6  16
TORSDOF 5
ENDMDL
MODEL 8
REMARK VINA RESULT:      -7.7      2.183      2.514
REMARK  Name = 
REMARK  5 active torsions:
REMARK  status: ('A' for Active; 'I' for Inactive)
REMARK    1  A    between atoms: S_2  and  N_4
REMARK    2  A    between atoms: S_2  and  C_19
REMARK    3  A    between atoms: N_4  and  C_5
REMARK    4  A    between atoms: C_10  and  N_11
REMARK    5  A    between atoms: N_11  and  C_12
REMARK                            x       y       z     vdW  Elec       q    Type
REMARK                         _______ _______ _______ _____ _____    ______ ____
ROOT
ATOM      1  C   UNL     1       6.451   4.377  17.580  0.00  0.00    +0.000 A 
ATOM      2  C   UNL     1       7.764   4.813  17.763  0.00  0.00    +0.000 A 
ATOM      3  C   UNL     1       8.113   5.328  18.998  0.00  0.00    +0.000 A 
ATOM      4  N   UNL     1       7.251   5.448  20.023  0.00  0.00    +0.000 NA
ATOM      5  C   UNL     1       5.972   5.058  19.791  0.00  0.00    +0.000 A 
ATOM      6  C   UNL     1       5.492   4.502  18.605  0.00  0.00    +0.000 A 
ENDROOT
BRANCH   1   7
ATOM      7  N   UNL     1       6.077   3.825  16.296  0.00  0.00    +0.000 N 
ATOM      8  H   UNL     1       6.670   3.034  16.031  0.00  0.00    +0.000 HD
BRANCH   7  10
ATOM      9  O   UNL     1       7.479   5.228  14.638  0.00  0.00    +0.000 OA
ATOM     10  S   UNL     1       6.104   4.912  14.966  0.00  0.00    +0.000 S 
ATOM     11  O   UNL     1       5.269   4.238  13.982  0.00  0.00    +0.000 OA
BRANCH  10  12
ATOM     12  C   UNL     1       5.213   6.434  15.615  0.00  0.00    +0.000 C 
ATOM     13  F   UNL     1       6.016   7.198  16.416  0.00  0.00    +0.000 F 
ATOM     14  F   UNL     1       4.759   7.248  14.623  0.00  0.00    +0.000 F 
ATOM     15  F   UNL     1       4.123   6.103  16.368  0.00  0.00    +0.000 F 
ENDBRANCH  10  12
ENDBRANCH   7  10
ENDBRANCH   1   7
BRANCH   6  16
ATOM     16  N   UNL     1       4.165   4.153  18.383  0.00  0.00    +0.000 N 
ATOM     17  H   UNL     1       3.616   4.842  17.879  0.00  0.00    +0.000 HD
BRANCH  16  18
ATOM     18  C   UNL     1       3.627   2.798  18.539  0.00  0.00    +0.000 C 
ATOM     19  C   UNL     1       3.644   2.402  20.033  0.00  0.00    +0.000 C 
ATOM     20  C   UNL     1       2.868   3.339  20.951  0.00  0.00    +0.000 C 
ATOM     21  C   UNL     1       1.360   3.130  21.007  0.00  0.00    +0.000 C 
ATOM     22  C   UNL     1       0.590   3.091  19.692  0.00  0.00    +0.000 C 
ATOM     23  C   UNL     1       1.110   2.115  18.644  0.00  0.00    +0.000 C 
ATOM     24  C   UNL     1       2.268   2.686  17.833  0.00  0.00    +0.000 C 
ENDBRANCH  16  18
ENDBRANCH   6  16
TORSDOF 5
ENDMDL
MODEL 9
REMARK VINA RESULT:      -7.7      1.961      2.633
REMARK  Name = 
REMARK  5 active torsions:
REMARK  status: ('A' for Active; 'I' for Inactive)
REMARK    1  A    between atoms: S_2  and  N_4
REMARK    2  A    between atoms: S_2  and  C_19
REMARK    3  A    between atoms: N_4  and  C_5
REMARK    4  A    between atoms: C_10  and  N_11
REMARK    5  A    between atoms: N_11  and  C_12
REMARK                            x       y       z     vdW  Elec       q    Type
REMARK                         _______ _______ _______ _____ _____    ______ ____
ROOT
ATOM      1  C   UNL     1       4.763   5.127  17.793  0.00  0.00    +0.000 A 
ATOM      2  C   UNL     1       4.278   6.241  17.106  0.00  0.00    +0.000 A 
ATOM      3  C   UNL     1       3.388   7.073  17.760  0.00  0.00    +0.000 A 
ATOM      4  N   UNL     1       2.952   6.856  19.013  0.00  0.00    +0.000 NA
ATOM      5  C   UNL     1       3.409   5.737  19.631  0.00  0.00    +0.000 A 
ATOM      6  C   UNL     1       4.323   4.828  19.098  0.00  0.00    +0.000 A 
ENDROOT
BRANCH   1   7
ATOM      7  N   UNL     1       5.704   4.256  17.124  0.00  0.00    +0.000 N 
ATOM      8  H   UNL     1       6.091   3.550  17.755  0.00  0.00    +0.000 HD
BRANCH   7  10
ATOM      9  O   UNL     1       7.057   6.424  16.742  0.00  0.00    +0.000 OA
ATOM     10  S   UNL     1       7.048   5.022  16.378  0.00  0.00    +0.000 S 
ATOM     11  O   UNL     1       8.163   4.172  16.773  0.00  0.00    +0.000 OA
BRANCH  10  12
ATOM     12  C   UNL     1       6.718   4.817  14.539  0.00  0.00    +0.000 C 
ATOM     13  F   UNL     1       5.574   5.456  14.149  0.00  0.00    +0.000 F 
ATOM     14  F   UNL     1       7.724   5.301  13.761  0.00  0.00    +0.000 F 
ATOM     15  F   UNL     1       6.562   3.506  14.194  0.00  0.00    +0.000 F 
ENDBRANCH  10  12
ENDBRANCH   7  10
ENDBRANCH   1   7
BRANCH   6  16
ATOM     16  N   UNL     1       4.738   3.667  19.739  0.00  0.00    +0.000 N 
ATOM     17  H   UNL     1       5.446   3.798  20.455  0.00  0.00    +0.000 HD
BRANCH  16  18
ATOM     18  C   UNL     1       4.028   2.385  19.675  0.00  0.00    +0.000 C 
ATOM     19  C   UNL     1       3.440   2.048  21.064  0.00  0.00    +0.000 C 
ATOM     20  C   UNL     1       2.491   3.099  21.628  0.00  0.00    +0.000 C 
ATOM     21  C   UNL     1       1.058   3.058  21.112  0.00  0.00    +0.000 C 
ATOM     22  C   UNL     1       0.835   3.051  19.604  0.00  0.00    +0.000 C 
ATOM     23  C   UNL     1       1.593   1.985  18.824  0.00  0.00    +0.000 C 
ATOM     24  C   UNL     1       3.028   2.395  18.510  0.00  0.00    +0.000 C 
ENDBRANCH  16  18
ENDBRANCH   6  16
TORSDOF 5
ENDMDL
