MODEL 1
REMARK VINA RESULT:      -4.7      0.000      0.000
REMARK  Name = 
REMARK  2 active torsions:
REMARK  status: ('A' for Active; 'I' for Inactive)
REMARK    1  A    between atoms: C_1  and  N_2
REMARK    2  A    between atoms: N_2  and  O_3
REMARK                            x       y       z     vdW  Elec       q    Type
REMARK                         _______ _______ _______ _____ _____    ______ ____
ROOT
ATOM      1  C   UNL     1       3.900   3.901  17.162  0.00  0.00    +0.000 C 
ATOM      2  N   UNL     1       4.223   3.101  18.339  0.00  0.00    +0.000 N 
ATOM      3  C   UNL     1       3.167   3.042  19.284  0.00  0.00    +0.000 A 
ATOM      4  C   UNL     1       3.455   2.759  20.620  0.00  0.00    +0.000 A 
ATOM      5  C   UNL     1       2.426   2.701  21.559  0.00  0.00    +0.000 A 
ATOM      6  C   UNL     1       1.119   2.910  21.144  0.00  0.00    +0.000 A 
ATOM      7  C   UNL     1       0.904   3.162  19.802  0.00  0.00    +0.000 A 
ATOM      8  N   UNL     1       1.888   3.230  18.877  0.00  0.00    +0.000 NA
ENDROOT
BRANCH   2   9
ATOM      9  O   UNL     1       5.537   3.308  18.779  0.00  0.00    +0.000 OA
ATOM     10  H   UNL     1       6.059   3.101  17.982  0.00  0.00    +0.000 HD
ENDBRANCH   2   9
TORSDOF 1
ENDMDL
MODEL 2
REMARK VINA RESULT:      -4.6      3.308      5.072
REMARK  Name = 
REMARK  2 active torsions:
REMARK  status: ('A' for Active; 'I' for Inactive)
REMARK    1  A    between atoms: C_1  and  N_2
REMARK    2  A    between atoms: N_2  and  O_3
REMARK                            x       y       z     vdW  Elec       q    Type
REMARK                         _______ _______ _______ _____ _____    ______ ____
ROOT
ATOM      1  C   UNL     1       3.986   3.707  17.686  0.00  0.00    +0.000 C 
ATOM      2  N   UNL     1       4.875   4.127  18.763  0.00  0.00    +0.000 N 
ATOM      3  C   UNL     1       5.760   5.169  18.386  0.00  0.00    +0.000 A 
ATOM      4  C   UNL     1       6.953   5.346  19.087  0.00  0.00    +0.000 A 
ATOM      5  C   UNL     1       7.833   6.366  18.724  0.00  0.00    +0.000 A 
ATOM      6  C   UNL     1       7.496   7.206  17.673  0.00  0.00    +0.000 A 
ATOM      7  C   UNL     1       6.288   6.988  17.038  0.00  0.00    +0.000 A 
ATOM      8  N   UNL     1       5.425   6.001  17.369  0.00  0.00    +0.000 NA
ENDROOT
BRANCH   2   9
ATOM      9  O   UNL     1       5.358   3.044  19.509  0.00  0.00    +0.000 OA
ATOM     10  H   UNL     1       5.966   3.476  20.136  0.00  0.00    +0.000 HD
ENDBRANCH   2   9
TORSDOF 1
ENDMDL
MODEL 3
REMARK VINA RESULT:      -4.6      2.845      3.159
REMARK  Name = 
REMARK  2 active torsions:
REMARK  status: ('A' for Active; 'I' for Inactive)
REMARK    1  A    between atoms: C_1  and  N_2
REMARK    2  A    between atoms: N_2  and  O_3
REMARK                            x       y       z     vdW  Elec       q    Type
REMARK                         _______ _______ _______ _____ _____    ______ ____
ROOT
ATOM      1  C   UNL     1       2.639   7.273  18.470  0.00  0.00    +0.000 C 
ATOM      2  N   UNL     1       2.532   6.490  19.696  0.00  0.00    +0.000 N 
ATOM      3  C   UNL     1       2.015   5.186  19.486  0.00  0.00    +0.000 A 
ATOM      4  C   UNL     1       1.403   4.510  20.543  0.00  0.00    +0.000 A 
ATOM      5  C   UNL     1       0.889   3.228  20.347  0.00  0.00    +0.000 A 
ATOM      6  C   UNL     1       1.008   2.635  19.099  0.00  0.00    +0.000 A 
ATOM      7  C   UNL     1       1.645   3.353  18.105  0.00  0.00    +0.000 A 
ATOM      8  N   UNL     1       2.144   4.599  18.271  0.00  0.00    +0.000 NA
ENDROOT
BRANCH   2   9
ATOM      9  O   UNL     1       2.070   7.253  20.777  0.00  0.00    +0.000 OA
ATOM     10  H   UNL     1       1.880   8.113  20.359  0.00  0.00    +0.000 HD
ENDBRANCH   2   9
TORSDOF 1
ENDMDL
MODEL 4
REMARK VINA RESULT:      -4.5      3.897      4.967
REMARK  Name = 
REMARK  2 active torsions:
REMARK  status: ('A' for Active; 'I' for Inactive)
REMARK    1  A    between atoms: C_1  and  N_2
REMARK    2  A    between atoms: N_2  and  O_3
REMARK                            x       y       z     vdW  Elec       q    Type
REMARK                         _______ _______ _______ _____ _____    ______ ____
ROOT
ATOM      1  C   UNL     1       5.851   4.176  14.382  0.00  0.00    +0.000 C 
ATOM      2  N   UNL     1       6.968   4.553  15.240  0.00  0.00    +0.000 N 
ATOM      3  C   UNL     1       6.593   4.755  16.593  0.00  0.00    +0.000 A 
ATOM      4  C   UNL     1       7.383   5.563  17.412  0.00  0.00    +0.000 A 
ATOM      5  C   UNL     1       7.022   5.772  18.743  0.00  0.00    +0.000 A 
ATOM      6  C   UNL     1       5.884   5.154  19.240  0.00  0.00    +0.000 A 
ATOM      7  C   UNL     1       5.162   4.350  18.379  0.00  0.00    +0.000 A 
ATOM      8  N   UNL     1       5.489   4.140  17.084  0.00  0.00    +0.000 NA
ENDROOT
BRANCH   2   9
ATOM      9  O   UNL     1       7.835   5.461  14.618  0.00  0.00    +0.000 OA
ATOM     10  H   UNL     1       8.529   4.876  14.261  0.00  0.00    +0.000 HD
ENDBRANCH   2   9
TORSDOF 1
ENDMDL
MODEL 5
REMARK VINA RESULT:      -4.5      3.265      4.090
REMARK  Name = 
REMARK  2 active torsions:
REMARK  status: ('A' for Active; 'I' for Inactive)
REMARK    1  A    between atoms: C_1  and  N_2
REMARK    2  A    between atoms: N_2  and  O_3
REMARK                            x       y       z     vdW  Elec       q    Type
REMARK                         _______ _______ _______ _____ _____    ______ ____
ROOT
ATOM      1  C   UNL     1       7.789   5.642  19.123  0.00  0.00    +0.000 C 
ATOM      2  N   UNL     1       7.274   5.136  17.856  0.00  0.00    +0.000 N 
ATOM      3  C   UNL     1       5.868   4.957  17.853  0.00  0.00    +0.000 A 
ATOM      4  C   UNL     1       5.290   4.059  16.954  0.00  0.00    +0.000 A 
ATOM      5  C   UNL     1       3.908   3.873  16.944  0.00  0.00    +0.000 A 
ATOM      6  C   UNL     1       3.121   4.602  17.824  0.00  0.00    +0.000 A 
ATOM      7  C   UNL     1       3.757   5.490  18.670  0.00  0.00    +0.000 A 
ATOM      8  N   UNL     1       5.096   5.680  18.701  0.00  0.00    +0.000 NA
ENDROOT
BRANCH   2   9
ATOM      9  O   UNL     1       8.100   4.149  17.301  0.00  0.00    +0.000 OA
ATOM     10  H   UNL     1       8.224   4.469  16.389  0.00  0.00    +0.000 HD
ENDBRANCH   2   9
TORSDOF 1
ENDMDL
MODEL 6
REMARK VINA RESULT:      -4.5      5.007      5.811
REMARK  Name = 
REMARK  2 active torsions:
REMARK  status: ('A' for Active; 'I' for Inactive)
REMARK    1  A    between atoms: C_1  and  N_2
REMARK    2  A    between atoms: N_2  and  O_3
REMARK                            x       y       z     vdW  Elec       q    Type
REMARK                         _______ _______ _______ _____ _____    ______ ____
ROOT
ATOM      1  C   UNL     1       5.992   4.942  14.620  0.00  0.00    +0.000 C 
ATOM      2  N   UNL     1       5.889   4.560  16.024  0.00  0.00    +0.000 N 
ATOM      3  C   UNL     1       6.626   5.406  16.891  0.00  0.00    +0.000 A 
ATOM      4  C   UNL     1       7.033   4.928  18.138  0.00  0.00    +0.000 A 
ATOM      5  C   UNL     1       7.761   5.750  18.998  0.00  0.00    +0.000 A 
ATOM      6  C   UNL     1       8.057   7.046  18.605  0.00  0.00    +0.000 A 
ATOM      7  C   UNL     1       7.603   7.461  17.367  0.00  0.00    +0.000 A 
ATOM      8  N   UNL     1       6.903   6.679  16.515  0.00  0.00    +0.000 NA
ENDROOT
BRANCH   2   9
ATOM      9  O   UNL     1       5.938   3.172  16.203  0.00  0.00    +0.000 OA
ATOM     10  H   UNL     1       6.296   3.090  17.106  0.00  0.00    +0.000 HD
ENDBRANCH   2   9
TORSDOF 1
ENDMDL
MODEL 7
REMARK VINA RESULT:      -4.5      2.160      3.975
REMARK  Name = 
REMARK  2 active torsions:
REMARK  status: ('A' for Active; 'I' for Inactive)
REMARK    1  A    between atoms: C_1  and  N_2
REMARK    2  A    between atoms: N_2  and  O_3
REMARK                            x       y       z     vdW  Elec       q    Type
REMARK                         _______ _______ _______ _____ _____    ______ ____
ROOT
ATOM      1  C   UNL     1       2.081   3.206  21.738  0.00  0.00    +0.000 C 
ATOM      2  N   UNL     1       1.662   2.821  20.395  0.00  0.00    +0.000 N 
ATOM      3  C   UNL     1       2.596   3.183  19.391  0.00  0.00    +0.000 A 
ATOM      4  C   UNL     1       2.163   3.340  18.073  0.00  0.00    +0.000 A 
ATOM      5  C   UNL     1       3.072   3.698  17.078  0.00  0.00    +0.000 A 
ATOM      6  C   UNL     1       4.406   3.878  17.413  0.00  0.00    +0.000 A 
ATOM      7  C   UNL     1       4.768   3.684  18.733  0.00  0.00    +0.000 A 
ATOM      8  N   UNL     1       3.902   3.344  19.714  0.00  0.00    +0.000 NA
ENDROOT
BRANCH   2   9
ATOM      9  O   UNL     1       0.294   3.039  20.181  0.00  0.00    +0.000 OA
ATOM     10  H   UNL     1      -0.107   2.236  20.560  0.00  0.00    +0.000 HD
ENDBRANCH   2   9
TORSDOF 1
ENDMDL
MODEL 8
REMARK VINA RESULT:      -4.4      1.693      2.016
REMARK  Name = 
REMARK  2 active torsions:
REMARK  status: ('A' for Active; 'I' for Inactive)
REMARK    1  A    between atoms: C_1  and  N_2
REMARK    2  A    between atoms: N_2  and  O_3
REMARK                            x       y       z     vdW  Elec       q    Type
REMARK                         _______ _______ _______ _____ _____    ______ ____
ROOT
ATOM      1  C   UNL     1       5.599   4.730  18.932  0.00  0.00    +0.000 C 
ATOM      2  N   UNL     1       4.467   4.217  18.168  0.00  0.00    +0.000 N 
ATOM      3  C   UNL     1       3.279   4.103  18.933  0.00  0.00    +0.000 A 
ATOM      4  C   UNL     1       2.284   3.210  18.531  0.00  0.00    +0.000 A 
ATOM      5  C   UNL     1       1.113   3.087  19.277  0.00  0.00    +0.000 A 
ATOM      6  C   UNL     1       0.945   3.873  20.407  0.00  0.00    +0.000 A 
ATOM      7  C   UNL     1       1.960   4.752  20.734  0.00  0.00    +0.000 A 
ATOM      8  N   UNL     1       3.107   4.881  20.029  0.00  0.00    +0.000 NA
ENDROOT
BRANCH   2   9
ATOM      9  O   UNL     1       4.837   3.180  17.302  0.00  0.00    +0.000 OA
ATOM     10  H   UNL     1       5.184   2.508  17.917  0.00  0.00    +0.000 HD
ENDBRANCH   2   9
TORSDOF 1
ENDMDL
MODEL 9
REMARK VINA RESULT:      -4.4      1.694      1.930
REMARK  Name = 
REMARK  2 active torsions:
REMARK  status: ('A' for Active; 'I' for Inactive)
REMARK    1  A    between atoms: C_1  and  N_2
REMARK    2  A    between atoms: N_2  and  O_3
REMARK                            x       y       z     vdW  Elec       q    Type
REMARK                         _______ _______ _______ _____ _____    ______ ____
ROOT
ATOM      1  C   UNL     1       5.084   5.691  17.923  0.00  0.00    +0.000 C 
ATOM      2  N   UNL     1       5.029   4.238  18.033  0.00  0.00    +0.000 N 
ATOM      3  C   UNL     1       3.716   3.740  18.232  0.00  0.00    +0.000 A 
ATOM      4  C   UNL     1       3.538   2.491  18.829  0.00  0.00    +0.000 A 
ATOM      5  C   UNL     1       2.252   1.991  19.032  0.00  0.00    +0.000 A 
ATOM      6  C   UNL     1       1.161   2.743  18.620  0.00  0.00    +0.000 A 
ATOM      7  C   UNL     1       1.412   3.961  18.016  0.00  0.00    +0.000 A 
ATOM      8  N   UNL     1       2.650   4.466  17.816  0.00  0.00    +0.000 NA
ENDROOT
BRANCH   2   9
ATOM      9  O   UNL     1       6.089   3.721  18.788  0.00  0.00    +0.000 OA
ATOM     10  H   UNL     1       6.043   2.767  18.590  0.00  0.00    +0.000 HD
ENDBRANCH   2   9
TORSDOF 1
ENDMDL
