MODEL 1
REMARK VINA RESULT:      -9.1      0.000      0.000
REMARK  Name = 
REMARK  2 active torsions:
REMARK  status: ('A' for Active; 'I' for Inactive)
REMARK    1  A    between atoms: C_8  and  C_9
REMARK    2  A    between atoms: C_11  and  C_12
REMARK                            x       y       z     vdW  Elec       q    Type
REMARK                         _______ _______ _______ _____ _____    ______ ____
ROOT
ATOM      1  C   UNL     1       3.191   5.002  18.332  0.00  0.00    +0.000 C 
ATOM      2  C   UNL     1       2.791   6.445  18.627  0.00  0.00    +0.000 C 
ATOM      3  C   UNL     1       2.155   6.753  19.775  0.00  0.00    +0.000 C 
ATOM      4  N   UNL     1       1.910   5.799  20.740  0.00  0.00    +0.000 N 
ATOM      5  C   UNL     1       2.404   4.547  20.664  0.00  0.00    +0.000 A 
ATOM      6  N   UNL     1       2.391   3.559  21.521  0.00  0.00    +0.000 NA
ATOM      7  C   UNL     1       3.074   2.573  20.858  0.00  0.00    +0.000 A 
ATOM      8  N   UNL     1       3.492   2.879  19.623  0.00  0.00    +0.000 NA
ATOM      9  N   UNL     1       3.069   4.157  19.528  0.00  0.00    +0.000 N 
ATOM     10  H   UNL     1       1.418   6.094  21.577  0.00  0.00    +0.000 HD
ENDROOT
BRANCH   1  18
ATOM     11  F   UNL     1       5.583   5.446  19.745  0.00  0.00    +0.000 F 
ATOM     12  C   UNL     1       5.701   5.115  18.451  0.00  0.00    +0.000 A 
ATOM     13  C   UNL     1       6.981   4.991  17.915  0.00  0.00    +0.000 A 
ATOM     14  C   UNL     1       7.135   4.631  16.577  0.00  0.00    +0.000 A 
ATOM     15  C   UNL     1       6.003   4.419  15.790  0.00  0.00    +0.000 A 
ATOM     16 BR   UNL     1       6.214   3.935  13.974  0.00  0.00    +0.000 Br
ATOM     17  C   UNL     1       4.719   4.548  16.326  0.00  0.00    +0.000 A 
ATOM     18  C   UNL     1       4.553   4.889  17.680  0.00  0.00    +0.000 A 
ENDBRANCH   1  18
BRANCH   3  19
ATOM     19  C   UNL     1       1.665   8.116  20.021  0.00  0.00    +0.000 A 
ATOM     20  C   UNL     1       1.308   8.505  21.318  0.00  0.00    +0.000 A 
ATOM     21  C   UNL     1       0.832   9.797  21.564  0.00  0.00    +0.000 A 
ATOM     22  C   UNL     1       0.717  10.700  20.514  0.00  0.00    +0.000 A 
ATOM     23 BR   UNL     1       0.061  12.443  20.846  0.00  0.00    +0.000 Br
ATOM     24  C   UNL     1       1.077  10.332  19.220  0.00  0.00    +0.000 A 
ATOM     25  C   UNL     1       1.551   9.038  18.972  0.00  0.00    +0.000 A 
ENDBRANCH   3  19
TORSDOF 2
ENDMDL
MODEL 2
REMARK VINA RESULT:      -8.8      1.563      1.790
REMARK  Name = 
REMARK  2 active torsions:
REMARK  status: ('A' for Active; 'I' for Inactive)
REMARK    1  A    between atoms: C_8  and  C_9
REMARK    2  A    between atoms: C_11  and  C_12
REMARK                            x       y       z     vdW  Elec       q    Type
REMARK                         _______ _______ _______ _____ _____    ______ ____
ROOT
ATOM      1  C   UNL     1       2.902   5.396  18.463  0.00  0.00    +0.000 C 
ATOM      2  C   UNL     1       2.462   6.795  18.887  0.00  0.00    +0.000 C 
ATOM      3  C   UNL     1       1.886   6.991  20.088  0.00  0.00    +0.000 C 
ATOM      4  N   UNL     1       1.738   5.961  20.993  0.00  0.00    +0.000 N 
ATOM      5  C   UNL     1       2.277   4.741  20.795  0.00  0.00    +0.000 A 
ATOM      6  N   UNL     1       2.356   3.694  21.576  0.00  0.00    +0.000 NA
ATOM      7  C   UNL     1       3.037   2.790  20.803  0.00  0.00    +0.000 A 
ATOM      8  N   UNL     1       3.366   3.202  19.573  0.00  0.00    +0.000 NA
ATOM      9  N   UNL     1       2.887   4.464  19.598  0.00  0.00    +0.000 N 
ATOM     10  H   UNL     1       1.286   6.172  21.876  0.00  0.00    +0.000 HD
ENDROOT
BRANCH   1  18
ATOM     11  F   UNL     1       3.503   3.522  16.452  0.00  0.00    +0.000 F 
ATOM     12  C   UNL     1       4.448   4.433  16.728  0.00  0.00    +0.000 A 
ATOM     13  C   UNL     1       5.630   4.401  15.992  0.00  0.00    +0.000 A 
ATOM     14  C   UNL     1       6.624   5.346  16.246  0.00  0.00    +0.000 A 
ATOM     15  C   UNL     1       6.427   6.297  17.246  0.00  0.00    +0.000 A 
ATOM     16 BR   UNL     1       7.777   7.574  17.592  0.00  0.00    +0.000 Br
ATOM     17  C   UNL     1       5.242   6.325  17.988  0.00  0.00    +0.000 A 
ATOM     18  C   UNL     1       4.225   5.392  17.726  0.00  0.00    +0.000 A 
ENDBRANCH   1  18
BRANCH   3  19
ATOM     19  C   UNL     1       1.356   8.310  20.463  0.00  0.00    +0.000 A 
ATOM     20  C   UNL     1       1.059   8.587  21.803  0.00  0.00    +0.000 A 
ATOM     21  C   UNL     1       0.547   9.835  22.171  0.00  0.00    +0.000 A 
ATOM     22  C   UNL     1       0.336  10.807  21.200  0.00  0.00    +0.000 A 
ATOM     23 BR   UNL     1      -0.368  12.491  21.698  0.00  0.00    +0.000 Br
ATOM     24  C   UNL     1       0.635  10.550  19.864  0.00  0.00    +0.000 A 
ATOM     25  C   UNL     1       1.146   9.300  19.494  0.00  0.00    +0.000 A 
ENDBRANCH   3  19
TORSDOF 2
ENDMDL
MODEL 3
REMARK VINA RESULT:      -8.7      1.650      2.112
REMARK  Name = 
REMARK  2 active torsions:
REMARK  status: ('A' for Active; 'I' for Inactive)
REMARK    1  A    between atoms: C_8  and  C_9
REMARK    2  A    between atoms: C_11  and  C_12
REMARK                            x       y       z     vdW  Elec       q    Type
REMARK                         _______ _______ _______ _____ _____    ______ ____
ROOT
ATOM      1  C   UNL     1       3.103   5.611  18.274  0.00  0.00    +0.000 C 
ATOM      2  C   UNL     1       2.615   6.968  18.776  0.00  0.00    +0.000 C 
ATOM      3  C   UNL     1       1.991   7.068  19.967  0.00  0.00    +0.000 C 
ATOM      4  N   UNL     1       1.836   5.974  20.792  0.00  0.00    +0.000 N 
ATOM      5  C   UNL     1       2.411   4.782  20.531  0.00  0.00    +0.000 A 
ATOM      6  N   UNL     1       2.486   3.686  21.240  0.00  0.00    +0.000 NA
ATOM      7  C   UNL     1       3.215   2.852  20.433  0.00  0.00    +0.000 A 
ATOM      8  N   UNL     1       3.579   3.356  19.247  0.00  0.00    +0.000 NA
ATOM      9  N   UNL     1       3.070   4.602  19.341  0.00  0.00    +0.000 N 
ATOM     10  H   UNL     1       1.348   6.114  21.670  0.00  0.00    +0.000 HD
ENDROOT
BRANCH   1  18
ATOM     11  F   UNL     1       3.860   3.825  16.236  0.00  0.00    +0.000 F 
ATOM     12  C   UNL     1       4.753   4.767  16.574  0.00  0.00    +0.000 A 
ATOM     13  C   UNL     1       5.962   4.809  15.883  0.00  0.00    +0.000 A 
ATOM     14  C   UNL     1       6.903   5.788  16.200  0.00  0.00    +0.000 A 
ATOM     15  C   UNL     1       6.626   6.700  17.219  0.00  0.00    +0.000 A 
ATOM     16 BR   UNL     1       7.905   8.024  17.651  0.00  0.00    +0.000 Br
ATOM     17  C   UNL     1       5.415   6.655  17.915  0.00  0.00    +0.000 A 
ATOM     18  C   UNL     1       4.451   5.686  17.589  0.00  0.00    +0.000 A 
ENDBRANCH   1  18
BRANCH   3  19
ATOM     19  C   UNL     1       1.418   8.346  20.410  0.00  0.00    +0.000 A 
ATOM     20  C   UNL     1       1.165   9.358  19.475  0.00  0.00    +0.000 A 
ATOM     21  C   UNL     1       0.627  10.582  19.886  0.00  0.00    +0.000 A 
ATOM     22  C   UNL     1       0.337  10.791  21.229  0.00  0.00    +0.000 A 
ATOM     23 BR   UNL     1      -0.379  12.452  21.785  0.00  0.00    +0.000 Br
ATOM     24  C   UNL     1       0.573   9.791  22.169  0.00  0.00    +0.000 A 
ATOM     25  C   UNL     1       1.114   8.567  21.760  0.00  0.00    +0.000 A 
ENDBRANCH   3  19
TORSDOF 2
ENDMDL
MODEL 4
REMARK VINA RESULT:      -8.0      1.667      2.166
REMARK  Name = 
REMARK  2 active torsions:
REMARK  status: ('A' for Active; 'I' for Inactive)
REMARK    1  A    between atoms: C_8  and  C_9
REMARK    2  A    between atoms: C_11  and  C_12
REMARK                            x       y       z     vdW  Elec       q    Type
REMARK                         _______ _______ _______ _____ _____    ______ ____
ROOT
ATOM      1  C   UNL     1       3.045   5.216  18.348  0.00  0.00    +0.000 C 
ATOM      2  C   UNL     1       2.735   6.652  18.762  0.00  0.00    +0.000 C 
ATOM      3  C   UNL     1       1.873   6.899  19.767  0.00  0.00    +0.000 C 
ATOM      4  N   UNL     1       1.301   5.876  20.492  0.00  0.00    +0.000 N 
ATOM      5  C   UNL     1       1.667   4.587  20.340  0.00  0.00    +0.000 A 
ATOM      6  N   UNL     1       1.342   3.511  21.009  0.00  0.00    +0.000 NA
ATOM      7  C   UNL     1       2.062   2.531  20.376  0.00  0.00    +0.000 A 
ATOM      8  N   UNL     1       2.799   2.928  19.332  0.00  0.00    +0.000 NA
ATOM      9  N   UNL     1       2.547   4.254  19.340  0.00  0.00    +0.000 N 
ATOM     10  H   UNL     1       0.651   6.128  21.229  0.00  0.00    +0.000 HD
ENDROOT
BRANCH   1  18
ATOM     11  F   UNL     1       3.884   4.039  15.934  0.00  0.00    +0.000 F 
ATOM     12  C   UNL     1       4.848   4.417  16.786  0.00  0.00    +0.000 A 
ATOM     13  C   UNL     1       6.175   4.226  16.409  0.00  0.00    +0.000 A 
ATOM     14  C   UNL     1       7.199   4.625  17.267  0.00  0.00    +0.000 A 
ATOM     15  C   UNL     1       6.878   5.191  18.501  0.00  0.00    +0.000 A 
ATOM     16 BR   UNL     1       8.268   5.727  19.666  0.00  0.00    +0.000 Br
ATOM     17  C   UNL     1       5.546   5.378  18.881  0.00  0.00    +0.000 A 
ATOM     18  C   UNL     1       4.506   5.000  18.015  0.00  0.00    +0.000 A 
ENDBRANCH   1  18
BRANCH   3  19
ATOM     19  C   UNL     1       1.479   8.275  20.100  0.00  0.00    +0.000 A 
ATOM     20  C   UNL     1       1.272   9.208  19.075  0.00  0.00    +0.000 A 
ATOM     21  C   UNL     1       0.906  10.523  19.380  0.00  0.00    +0.000 A 
ATOM     22  C   UNL     1       0.742  10.904  20.707  0.00  0.00    +0.000 A 
ATOM     23 BR   UNL     1       0.259  12.686  21.117  0.00  0.00    +0.000 Br
ATOM     24  C   UNL     1       0.935   9.985  21.736  0.00  0.00    +0.000 A 
ATOM     25  C   UNL     1       1.305   8.670  21.433  0.00  0.00    +0.000 A 
ENDBRANCH   3  19
TORSDOF 2
ENDMDL
MODEL 5
REMARK VINA RESULT:      -7.6      1.856      6.799
REMARK  Name = 
REMARK  2 active torsions:
REMARK  status: ('A' for Active; 'I' for Inactive)
REMARK    1  A    between atoms: C_8  and  C_9
REMARK    2  A    between atoms: C_11  and  C_12
REMARK                            x       y       z     vdW  Elec       q    Type
REMARK                         _______ _______ _______ _____ _____    ______ ____
ROOT
ATOM      1  C   UNL     1       2.901   6.168  19.656  0.00  0.00    +0.000 C 
ATOM      2  C   UNL     1       3.770   6.178  18.401  0.00  0.00    +0.000 C 
ATOM      3  C   UNL     1       3.902   5.063  17.656  0.00  0.00    +0.000 C 
ATOM      4  N   UNL     1       3.211   3.909  17.959  0.00  0.00    +0.000 N 
ATOM      5  C   UNL     1       2.267   3.862  18.921  0.00  0.00    +0.000 A 
ATOM      6  N   UNL     1       1.430   2.917  19.264  0.00  0.00    +0.000 NA
ATOM      7  C   UNL     1       0.725   3.494  20.289  0.00  0.00    +0.000 A 
ATOM      8  N   UNL     1       1.091   4.737  20.624  0.00  0.00    +0.000 NA
ATOM      9  N   UNL     1       2.068   4.960  19.720  0.00  0.00    +0.000 N 
ATOM     10  H   UNL     1       3.363   3.101  17.365  0.00  0.00    +0.000 HD
ENDROOT
BRANCH   1  18
ATOM     11  F   UNL     1       2.422   7.946  17.529  0.00  0.00    +0.000 F 
ATOM     12  C   UNL     1       1.889   8.270  18.716  0.00  0.00    +0.000 A 
ATOM     13  C   UNL     1       1.126   9.432  18.802  0.00  0.00    +0.000 A 
ATOM     14  C   UNL     1       0.545   9.786  20.019  0.00  0.00    +0.000 A 
ATOM     15  C   UNL     1       0.753   8.979  21.138  0.00  0.00    +0.000 A 
ATOM     16 BR   UNL     1      -0.031   9.463  22.789  0.00  0.00    +0.000 Br
ATOM     17  C   UNL     1       1.523   7.816  21.052  0.00  0.00    +0.000 A 
ATOM     18  C   UNL     1       2.095   7.438  19.825  0.00  0.00    +0.000 A 
ENDBRANCH   1  18
BRANCH   3  19
ATOM     19  C   UNL     1       4.823   5.027  16.512  0.00  0.00    +0.000 A 
ATOM     20  C   UNL     1       5.312   3.799  16.049  0.00  0.00    +0.000 A 
ATOM     21  C   UNL     1       6.195   3.752  14.965  0.00  0.00    +0.000 A 
ATOM     22  C   UNL     1       6.586   4.932  14.343  0.00  0.00    +0.000 A 
ATOM     23 BR   UNL     1       7.791   4.867  12.886  0.00  0.00    +0.000 Br
ATOM     24  C   UNL     1       6.102   6.160  14.786  0.00  0.00    +0.000 A 
ATOM     25  C   UNL     1       5.220   6.209  15.872  0.00  0.00    +0.000 A 
ENDBRANCH   3  19
TORSDOF 2
ENDMDL
MODEL 6
REMARK VINA RESULT:      -7.5      4.482      6.343
REMARK  Name = 
REMARK  2 active torsions:
REMARK  status: ('A' for Active; 'I' for Inactive)
REMARK    1  A    between atoms: C_8  and  C_9
REMARK    2  A    between atoms: C_11  and  C_12
REMARK                            x       y       z     vdW  Elec       q    Type
REMARK                         _______ _______ _______ _____ _____    ______ ____
ROOT
ATOM      1  C   UNL     1       6.057   5.171  18.107  0.00  0.00    +0.000 C 
ATOM      2  C   UNL     1       6.577   6.560  18.466  0.00  0.00    +0.000 C 
ATOM      3  C   UNL     1       7.388   7.222  17.619  0.00  0.00    +0.000 C 
ATOM      4  N   UNL     1       7.716   6.704  16.384  0.00  0.00    +0.000 N 
ATOM      5  C   UNL     1       7.146   5.585  15.893  0.00  0.00    +0.000 A 
ATOM      6  N   UNL     1       7.227   5.019  14.717  0.00  0.00    +0.000 NA
ATOM      7  C   UNL     1       6.400   3.932  14.846  0.00  0.00    +0.000 A 
ATOM      8  N   UNL     1       5.827   3.773  16.044  0.00  0.00    +0.000 NA
ATOM      9  N   UNL     1       6.302   4.856  16.693  0.00  0.00    +0.000 N 
ATOM     10  H   UNL     1       8.340   7.248  15.797  0.00  0.00    +0.000 HD
ENDROOT
BRANCH   1  18
ATOM     11  F   UNL     1       3.929   6.470  16.803  0.00  0.00    +0.000 F 
ATOM     12  C   UNL     1       3.604   5.635  17.801  0.00  0.00    +0.000 A 
ATOM     13  C   UNL     1       2.255   5.455  18.098  0.00  0.00    +0.000 A 
ATOM     14  C   UNL     1       1.886   4.581  19.119  0.00  0.00    +0.000 A 
ATOM     15  C   UNL     1       2.875   3.914  19.842  0.00  0.00    +0.000 A 
ATOM     16 BR   UNL     1       2.373   2.732  21.230  0.00  0.00    +0.000 Br
ATOM     17  C   UNL     1       4.228   4.099  19.547  0.00  0.00    +0.000 A 
ATOM     18  C   UNL     1       4.611   4.961  18.505  0.00  0.00    +0.000 A 
ENDBRANCH   1  18
BRANCH   3  19
ATOM     19  C   UNL     1       7.986   8.509  18.000  0.00  0.00    +0.000 A 
ATOM     20  C   UNL     1       7.647   9.671  17.294  0.00  0.00    +0.000 A 
ATOM     21  C   UNL     1       8.215  10.901  17.643  0.00  0.00    +0.000 A 
ATOM     22  C   UNL     1       9.117  10.970  18.698  0.00  0.00    +0.000 A 
ATOM     23 BR   UNL     1       9.894  12.632  19.159  0.00  0.00    +0.000 Br
ATOM     24  C   UNL     1       9.456   9.825  19.416  0.00  0.00    +0.000 A 
ATOM     25  C   UNL     1       8.891   8.593  19.067  0.00  0.00    +0.000 A 
ENDBRANCH   3  19
TORSDOF 2
ENDMDL
MODEL 7
REMARK VINA RESULT:      -7.5      3.229      7.494
REMARK  Name = 
REMARK  2 active torsions:
REMARK  status: ('A' for Active; 'I' for Inactive)
REMARK    1  A    between atoms: C_8  and  C_9
REMARK    2  A    between atoms: C_11  and  C_12
REMARK                            x       y       z     vdW  Elec       q    Type
REMARK                         _______ _______ _______ _____ _____    ______ ____
ROOT
ATOM      1  C   UNL     1       1.084   9.984  19.208  0.00  0.00    +0.000 C 
ATOM      2  C   UNL     1       1.808   8.945  18.355  0.00  0.00    +0.000 C 
ATOM      3  C   UNL     1       2.298   7.824  18.918  0.00  0.00    +0.000 C 
ATOM      4  N   UNL     1       2.105   7.547  20.255  0.00  0.00    +0.000 N 
ATOM      5  C   UNL     1       1.307   8.296  21.042  0.00  0.00    +0.000 A 
ATOM      6  N   UNL     1       0.904   8.126  22.275  0.00  0.00    +0.000 NA
ATOM      7  C   UNL     1       0.100   9.217  22.484  0.00  0.00    +0.000 A 
ATOM      8  N   UNL     1      -0.001  10.074  21.461  0.00  0.00    +0.000 NA
ATOM      9  N   UNL     1       0.765   9.452  20.540  0.00  0.00    +0.000 N 
ATOM     10  H   UNL     1       2.509   6.691  20.620  0.00  0.00    +0.000 HD
ENDROOT
BRANCH   1  18
ATOM     11  F   UNL     1       0.232  12.626  19.665  0.00  0.00    +0.000 F 
ATOM     12  C   UNL     1      -0.482  11.906  18.787  0.00  0.00    +0.000 A 
ATOM     13  C   UNL     1      -1.561  12.518  18.154  0.00  0.00    +0.000 A 
ATOM     14  C   UNL     1      -2.312  11.800  17.224  0.00  0.00    +0.000 A 
ATOM     15  C   UNL     1      -1.981  10.472  16.955  0.00  0.00    +0.000 A 
ATOM     16 BR   UNL     1      -3.002   9.498  15.696  0.00  0.00    +0.000 Br
ATOM     17  C   UNL     1      -0.901   9.857  17.593  0.00  0.00    +0.000 A 
ATOM     18  C   UNL     1      -0.124  10.578  18.516  0.00  0.00    +0.000 A 
ENDBRANCH   1  18
BRANCH   3  19
ATOM     19  C   UNL     1       3.093   6.872  18.131  0.00  0.00    +0.000 A 
ATOM     20  C   UNL     1       4.141   7.338  17.326  0.00  0.00    +0.000 A 
ATOM     21  C   UNL     1       4.900   6.443  16.565  0.00  0.00    +0.000 A 
ATOM     22  C   UNL     1       4.616   5.083  16.613  0.00  0.00    +0.000 A 
ATOM     23 BR   UNL     1       5.636   3.876  15.573  0.00  0.00    +0.000 Br
ATOM     24  C   UNL     1       3.584   4.604  17.416  0.00  0.00    +0.000 A 
ATOM     25  C   UNL     1       2.821   5.498  18.176  0.00  0.00    +0.000 A 
ENDBRANCH   3  19
TORSDOF 2
ENDMDL
MODEL 8
REMARK VINA RESULT:      -7.4      1.923      2.149
REMARK  Name = 
REMARK  2 active torsions:
REMARK  status: ('A' for Active; 'I' for Inactive)
REMARK    1  A    between atoms: C_8  and  C_9
REMARK    2  A    between atoms: C_11  and  C_12
REMARK                            x       y       z     vdW  Elec       q    Type
REMARK                         _______ _______ _______ _____ _____    ______ ____
ROOT
ATOM      1  C   UNL     1       3.251   5.839  18.776  0.00  0.00    +0.000 C 
ATOM      2  C   UNL     1       2.688   7.169  19.270  0.00  0.00    +0.000 C 
ATOM      3  C   UNL     1       1.830   7.200  20.309  0.00  0.00    +0.000 C 
ATOM      4  N   UNL     1       1.490   6.053  20.996  0.00  0.00    +0.000 N 
ATOM      5  C   UNL     1       2.090   4.868  20.768  0.00  0.00    +0.000 A 
ATOM      6  N   UNL     1       1.999   3.720  21.389  0.00  0.00    +0.000 NA
ATOM      7  C   UNL     1       2.870   2.926  20.689  0.00  0.00    +0.000 A 
ATOM      8  N   UNL     1       3.481   3.504  19.647  0.00  0.00    +0.000 NA
ATOM      9  N   UNL     1       2.981   4.755  19.730  0.00  0.00    +0.000 N 
ATOM     10  H   UNL     1       0.830   6.143  21.761  0.00  0.00    +0.000 HD
ENDROOT
BRANCH   1  18
ATOM     11  F   UNL     1       4.099   6.686  16.231  0.00  0.00    +0.000 F 
ATOM     12  C   UNL     1       5.060   6.365  17.109  0.00  0.00    +0.000 A 
ATOM     13  C   UNL     1       6.389   6.497  16.713  0.00  0.00    +0.000 A 
ATOM     14  C   UNL     1       7.409   6.187  17.610  0.00  0.00    +0.000 A 
ATOM     15  C   UNL     1       7.084   5.730  18.887  0.00  0.00    +0.000 A 
ATOM     16 BR   UNL     1       8.469   5.305  20.102  0.00  0.00    +0.000 Br
ATOM     17  C   UNL     1       5.751   5.592  19.283  0.00  0.00    +0.000 A 
ATOM     18  C   UNL     1       4.714   5.923  18.394  0.00  0.00    +0.000 A 
ENDBRANCH   1  18
BRANCH   3  19
ATOM     19  C   UNL     1       1.194   8.458  20.722  0.00  0.00    +0.000 A 
ATOM     20  C   UNL     1       0.841   8.652  22.064  0.00  0.00    +0.000 A 
ATOM     21  C   UNL     1       0.228   9.843  22.469  0.00  0.00    +0.000 A 
ATOM     22  C   UNL     1      -0.028  10.839  21.534  0.00  0.00    +0.000 A 
ATOM     23 BR   UNL     1      -0.870  12.443  22.080  0.00  0.00    +0.000 Br
ATOM     24  C   UNL     1       0.325  10.664  20.198  0.00  0.00    +0.000 A 
ATOM     25  C   UNL     1       0.937   9.473  19.791  0.00  0.00    +0.000 A 
ENDBRANCH   3  19
TORSDOF 2
ENDMDL
MODEL 9
REMARK VINA RESULT:      -7.2      3.465      7.620
REMARK  Name = 
REMARK  2 active torsions:
REMARK  status: ('A' for Active; 'I' for Inactive)
REMARK    1  A    between atoms: C_8  and  C_9
REMARK    2  A    between atoms: C_11  and  C_12
REMARK                            x       y       z     vdW  Elec       q    Type
REMARK                         _______ _______ _______ _____ _____    ______ ____
ROOT
ATOM      1  C   UNL     1       0.972  10.193  20.046  0.00  0.00    +0.000 C 
ATOM      2  C   UNL     1       1.447   8.837  19.532  0.00  0.00    +0.000 C 
ATOM      3  C   UNL     1       1.577   7.796  20.378  0.00  0.00    +0.000 C 
ATOM      4  N   UNL     1       1.226   7.901  21.707  0.00  0.00    +0.000 N 
ATOM      5  C   UNL     1       0.607   8.989  22.209  0.00  0.00    +0.000 A 
ATOM      6  N   UNL     1       0.089   9.221  23.387  0.00  0.00    +0.000 NA
ATOM      7  C   UNL     1      -0.404  10.494  23.256  0.00  0.00    +0.000 A 
ATOM      8  N   UNL     1      -0.201  11.081  22.071  0.00  0.00    +0.000 NA
ATOM      9  N   UNL     1       0.431  10.089  21.408  0.00  0.00    +0.000 N 
ATOM     10  H   UNL     1       1.359   7.084  22.294  0.00  0.00    +0.000 HD
ENDROOT
BRANCH   1  18
ATOM     11  F   UNL     1       1.011  12.975  19.627  0.00  0.00    +0.000 F 
ATOM     12  C   UNL     1       0.105  12.274  18.930  0.00  0.00    +0.000 A 
ATOM     13  C   UNL     1      -0.721  12.960  18.043  0.00  0.00    +0.000 A 
ATOM     14  C   UNL     1      -1.661  12.255  17.292  0.00  0.00    +0.000 A 
ATOM     15  C   UNL     1      -1.773  10.875  17.455  0.00  0.00    +0.000 A 
ATOM     16 BR   UNL     1      -3.051   9.921  16.439  0.00  0.00    +0.000 Br
ATOM     17  C   UNL     1      -0.947  10.187  18.349  0.00  0.00    +0.000 A 
ATOM     18  C   UNL     1       0.019  10.884  19.095  0.00  0.00    +0.000 A 
ENDBRANCH   1  18
BRANCH   3  19
ATOM     19  C   UNL     1       2.140   6.519  19.918  0.00  0.00    +0.000 A 
ATOM     20  C   UNL     1       2.873   6.470  18.726  0.00  0.00    +0.000 A 
ATOM     21  C   UNL     1       3.407   5.258  18.274  0.00  0.00    +0.000 A 
ATOM     22  C   UNL     1       3.212   4.099  19.015  0.00  0.00    +0.000 A 
ATOM     23 BR   UNL     1       3.923   2.460  18.395  0.00  0.00    +0.000 Br
ATOM     24  C   UNL     1       2.493   4.134  20.208  0.00  0.00    +0.000 A 
ATOM     25  C   UNL     1       1.956   5.345  20.660  0.00  0.00    +0.000 A 
ENDBRANCH   3  19
TORSDOF 2
ENDMDL
