MODEL 1
REMARK VINA RESULT:      -7.3      0.000      0.000
REMARK  Name = 
REMARK  5 active torsions:
REMARK  status: ('A' for Active; 'I' for Inactive)
REMARK    1  A    between atoms: C_2  and  C_3
REMARK    2  A    between atoms: C_2  and  C_13
REMARK    3  A    between atoms: C_3  and  C_5
REMARK    4  A    between atoms: C_11  and  O_12
REMARK    5  A    between atoms: C_19  and  O_20
REMARK                            x       y       z     vdW  Elec       q    Type
REMARK                         _______ _______ _______ _____ _____    ______ ____
ROOT
ATOM      1  O   UNL     1       1.788   3.980  17.352  0.00  0.00    +0.000 OA
ATOM      2  C   UNL     1       2.593   4.458  18.145  0.00  0.00    +0.000 C 
ENDROOT
BRANCH   2   3
ATOM      3  C   UNL     1       2.287   5.691  18.921  0.00  0.00    +0.000 A 
ATOM      4  C   UNL     1       2.302   6.914  18.230  0.00  0.00    +0.000 A 
ATOM      5  C   UNL     1       1.976   8.097  18.894  0.00  0.00    +0.000 A 
ATOM      6 BR   UNL     1       2.010   9.741  17.962  0.00  0.00    +0.000 Br
ATOM      7  C   UNL     1       1.626   8.080  20.241  0.00  0.00    +0.000 A 
ATOM      8  C   UNL     1       1.627   6.873  20.941  0.00  0.00    +0.000 A 
ATOM      9  C   UNL     1       1.971   5.688  20.285  0.00  0.00    +0.000 A 
BRANCH   9  10
ATOM     10  O   UNL     1       2.006   4.533  21.010  0.00  0.00    +0.000 OA
ATOM     11  H   UNL     1       2.921   4.205  21.062  0.00  0.00    +0.000 HD
ENDBRANCH   9  10
ENDBRANCH   2   3
BRANCH   2  12
ATOM     12  C   UNL     1       3.895   3.725  18.361  0.00  0.00    +0.000 C 
ATOM     13  O   UNL     1       3.912   2.826  19.196  0.00  0.00    +0.000 OA
BRANCH  12  14
ATOM     14  C   UNL     1       5.100   4.063  17.556  0.00  0.00    +0.000 A 
ATOM     15  C   UNL     1       5.040   3.831  16.172  0.00  0.00    +0.000 A 
ATOM     16  C   UNL     1       6.115   4.181  15.357  0.00  0.00    +0.000 A 
ATOM     17 BR   UNL     1       6.034   3.856  13.496  0.00  0.00    +0.000 Br
ATOM     18  C   UNL     1       7.254   4.772  15.901  0.00  0.00    +0.000 A 
ATOM     19  C   UNL     1       7.331   4.982  17.278  0.00  0.00    +0.000 A 
ATOM     20  C   UNL     1       6.265   4.614  18.101  0.00  0.00    +0.000 A 
BRANCH  20  21
ATOM     21  O   UNL     1       6.394   4.791  19.448  0.00  0.00    +0.000 OA
ATOM     22  H   UNL     1       6.412   5.739  19.658  0.00  0.00    +0.000 HD
ENDBRANCH  20  21
ENDBRANCH  12  14
ENDBRANCH   2  12
TORSDOF 5
ENDMDL
MODEL 2
REMARK VINA RESULT:      -7.2      0.386      5.515
REMARK  Name = 
REMARK  5 active torsions:
REMARK  status: ('A' for Active; 'I' for Inactive)
REMARK    1  A    between atoms: C_2  and  C_3
REMARK    2  A    between atoms: C_2  and  C_13
REMARK    3  A    between atoms: C_3  and  C_5
REMARK    4  A    between atoms: C_11  and  O_12
REMARK    5  A    between atoms: C_19  and  O_20
REMARK                            x       y       z     vdW  Elec       q    Type
REMARK                         _______ _______ _______ _____ _____    ______ ____
ROOT
ATOM      1  O   UNL     1       3.904   2.242  18.789  0.00  0.00    +0.000 OA
ATOM      2  C   UNL     1       3.857   3.293  18.156  0.00  0.00    +0.000 C 
ENDROOT
BRANCH   2   3
ATOM      3  C   UNL     1       5.043   3.820  17.428  0.00  0.00    +0.000 A 
ATOM      4  C   UNL     1       5.076   3.654  16.034  0.00  0.00    +0.000 A 
ATOM      5  C   UNL     1       6.138   4.171  15.292  0.00  0.00    +0.000 A 
ATOM      6 BR   UNL     1       6.182   3.934  13.417  0.00  0.00    +0.000 Br
ATOM      7  C   UNL     1       7.171   4.861  15.920  0.00  0.00    +0.000 A 
ATOM      8  C   UNL     1       7.157   5.014  17.307  0.00  0.00    +0.000 A 
ATOM      9  C   UNL     1       6.105   4.483  18.056  0.00  0.00    +0.000 A 
BRANCH   9  10
ATOM     10  O   UNL     1       6.146   4.610  19.414  0.00  0.00    +0.000 OA
ATOM     11  H   UNL     1       5.555   5.329  19.695  0.00  0.00    +0.000 HD
ENDBRANCH   9  10
ENDBRANCH   2   3
BRANCH   2  12
ATOM     12  C   UNL     1       2.535   4.019  18.087  0.00  0.00    +0.000 C 
ATOM     13  O   UNL     1       1.648   3.525  17.396  0.00  0.00    +0.000 OA
BRANCH  12  14
ATOM     14  C   UNL     1       2.312   5.269  18.863  0.00  0.00    +0.000 A 
ATOM     15  C   UNL     1       2.375   6.485  18.163  0.00  0.00    +0.000 A 
ATOM     16  C   UNL     1       2.118   7.686  18.821  0.00  0.00    +0.000 A 
ATOM     17 BR   UNL     1       2.215   9.321  17.877  0.00  0.00    +0.000 Br
ATOM     18  C   UNL     1       1.788   7.694  20.176  0.00  0.00    +0.000 A 
ATOM     19  C   UNL     1       1.750   6.493  20.884  0.00  0.00    +0.000 A 
ATOM     20  C   UNL     1       2.026   5.289  20.232  0.00  0.00    +0.000 A 
BRANCH  20  21
ATOM     21  O   UNL     1       2.026   4.139  20.966  0.00  0.00    +0.000 OA
ATOM     22  H   UNL     1       2.120   3.371  20.379  0.00  0.00    +0.000 HD
ENDBRANCH  20  21
ENDBRANCH  12  14
ENDBRANCH   2  12
TORSDOF 5
ENDMDL
MODEL 3
REMARK VINA RESULT:      -6.7      3.072      3.884
REMARK  Name = 
REMARK  5 active torsions:
REMARK  status: ('A' for Active; 'I' for Inactive)
REMARK    1  A    between atoms: C_2  and  C_3
REMARK    2  A    between atoms: C_2  and  C_13
REMARK    3  A    between atoms: C_3  and  C_5
REMARK    4  A    between atoms: C_11  and  O_12
REMARK    5  A    between atoms: C_19  and  O_20
REMARK                            x       y       z     vdW  Elec       q    Type
REMARK                         _______ _______ _______ _____ _____    ______ ____
ROOT
ATOM      1  O   UNL     1       4.064   3.877  16.380  0.00  0.00    +0.000 OA
ATOM      2  C   UNL     1       4.201   4.944  16.971  0.00  0.00    +0.000 C 
ENDROOT
BRANCH   2   3
ATOM      3  C   UNL     1       3.371   5.294  18.155  0.00  0.00    +0.000 A 
ATOM      4  C   UNL     1       3.038   4.259  19.045  0.00  0.00    +0.000 A 
ATOM      5  C   UNL     1       2.303   4.536  20.197  0.00  0.00    +0.000 A 
ATOM      6 BR   UNL     1       1.849   3.137  21.385  0.00  0.00    +0.000 Br
ATOM      7  C   UNL     1       1.898   5.836  20.484  0.00  0.00    +0.000 A 
ATOM      8  C   UNL     1       2.206   6.868  19.596  0.00  0.00    +0.000 A 
ATOM      9  C   UNL     1       2.926   6.593  18.432  0.00  0.00    +0.000 A 
BRANCH   9  10
ATOM     10  O   UNL     1       3.171   7.616  17.563  0.00  0.00    +0.000 OA
ATOM     11  H   UNL     1       2.574   7.548  16.798  0.00  0.00    +0.000 HD
ENDBRANCH   9  10
ENDBRANCH   2   3
BRANCH   2  12
ATOM     12  C   UNL     1       5.286   5.880  16.497  0.00  0.00    +0.000 C 
ATOM     13  O   UNL     1       5.172   6.365  15.375  0.00  0.00    +0.000 OA
BRANCH  12  14
ATOM     14  C   UNL     1       6.432   6.227  17.382  0.00  0.00    +0.000 A 
ATOM     15  C   UNL     1       6.908   7.548  17.337  0.00  0.00    +0.000 A 
ATOM     16  C   UNL     1       7.939   7.949  18.183  0.00  0.00    +0.000 A 
ATOM     17 BR   UNL     1       8.583   9.725  18.111  0.00  0.00    +0.000 Br
ATOM     18  C   UNL     1       8.503   7.051  19.087  0.00  0.00    +0.000 A 
ATOM     19  C   UNL     1       8.054   5.731  19.120  0.00  0.00    +0.000 A 
ATOM     20  C   UNL     1       7.034   5.319  18.260  0.00  0.00    +0.000 A 
BRANCH  20  21
ATOM     21  O   UNL     1       6.652   4.009  18.286  0.00  0.00    +0.000 OA
ATOM     22  H   UNL     1       6.666   3.678  19.199  0.00  0.00    +0.000 HD
ENDBRANCH  20  21
ENDBRANCH  12  14
ENDBRANCH   2  12
TORSDOF 5
ENDMDL
MODEL 4
REMARK VINA RESULT:      -6.6      3.051      5.378
REMARK  Name = 
REMARK  5 active torsions:
REMARK  status: ('A' for Active; 'I' for Inactive)
REMARK    1  A    between atoms: C_2  and  C_3
REMARK    2  A    between atoms: C_2  and  C_13
REMARK    3  A    between atoms: C_3  and  C_5
REMARK    4  A    between atoms: C_11  and  O_12
REMARK    5  A    between atoms: C_19  and  O_20
REMARK                            x       y       z     vdW  Elec       q    Type
REMARK                         _______ _______ _______ _____ _____    ______ ____
ROOT
ATOM      1  O   UNL     1       4.936   6.352  15.499  0.00  0.00    +0.000 OA
ATOM      2  C   UNL     1       5.133   5.832  16.593  0.00  0.00    +0.000 C 
ENDROOT
BRANCH   2   3
ATOM      3  C   UNL     1       6.319   6.182  17.422  0.00  0.00    +0.000 A 
ATOM      4  C   UNL     1       6.786   7.505  17.363  0.00  0.00    +0.000 A 
ATOM      5  C   UNL     1       7.862   7.904  18.155  0.00  0.00    +0.000 A 
ATOM      6 BR   UNL     1       8.493   9.683  18.063  0.00  0.00    +0.000 Br
ATOM      7  C   UNL     1       8.481   7.001  19.016  0.00  0.00    +0.000 A 
ATOM      8  C   UNL     1       8.037   5.679  19.067  0.00  0.00    +0.000 A 
ATOM      9  C   UNL     1       6.971   5.271  18.263  0.00  0.00    +0.000 A 
BRANCH   9  10
ATOM     10  O   UNL     1       6.593   3.961  18.303  0.00  0.00    +0.000 OA
ATOM     11  H   UNL     1       5.671   3.893  18.606  0.00  0.00    +0.000 HD
ENDBRANCH   9  10
ENDBRANCH   2   3
BRANCH   2  12
ATOM     12  C   UNL     1       4.102   4.859  17.110  0.00  0.00    +0.000 C 
ATOM     13  O   UNL     1       3.988   3.784  16.527  0.00  0.00    +0.000 OA
BRANCH  12  14
ATOM     14  C   UNL     1       3.282   5.185  18.308  0.00  0.00    +0.000 A 
ATOM     15  C   UNL     1       2.944   4.127  19.168  0.00  0.00    +0.000 A 
ATOM     16  C   UNL     1       2.228   4.376  20.337  0.00  0.00    +0.000 A 
ATOM     17 BR   UNL     1       1.766   2.948  21.486  0.00  0.00    +0.000 Br
ATOM     18  C   UNL     1       1.847   5.676  20.670  0.00  0.00    +0.000 A 
ATOM     19  C   UNL     1       2.156   6.728  19.808  0.00  0.00    +0.000 A 
ATOM     20  C   UNL     1       2.857   6.479  18.625  0.00  0.00    +0.000 A 
BRANCH  20  21
ATOM     21  O   UNL     1       3.100   7.524  17.783  0.00  0.00    +0.000 OA
ATOM     22  H   UNL     1       3.768   8.114  18.171  0.00  0.00    +0.000 HD
ENDBRANCH  20  21
ENDBRANCH  12  14
ENDBRANCH   2  12
TORSDOF 5
ENDMDL
MODEL 5
REMARK VINA RESULT:      -6.6      2.196      2.763
REMARK  Name = 
REMARK  5 active torsions:
REMARK  status: ('A' for Active; 'I' for Inactive)
REMARK    1  A    between atoms: C_2  and  C_3
REMARK    2  A    between atoms: C_2  and  C_13
REMARK    3  A    between atoms: C_3  and  C_5
REMARK    4  A    between atoms: C_11  and  O_12
REMARK    5  A    between atoms: C_19  and  O_20
REMARK                            x       y       z     vdW  Elec       q    Type
REMARK                         _______ _______ _______ _____ _____    ______ ____
ROOT
ATOM      1  O   UNL     1       3.035   4.013  16.864  0.00  0.00    +0.000 OA
ATOM      2  C   UNL     1       3.589   5.049  17.220  0.00  0.00    +0.000 C 
ENDROOT
BRANCH   2   3
ATOM      3  C   UNL     1       3.014   5.916  18.284  0.00  0.00    +0.000 A 
ATOM      4  C   UNL     1       2.631   7.219  17.925  0.00  0.00    +0.000 A 
ATOM      5  C   UNL     1       2.042   8.060  18.868  0.00  0.00    +0.000 A 
ATOM      6 BR   UNL     1       1.539   9.817  18.382  0.00  0.00    +0.000 Br
ATOM      7  C   UNL     1       1.820   7.620  20.171  0.00  0.00    +0.000 A 
ATOM      8  C   UNL     1       2.215   6.334  20.542  0.00  0.00    +0.000 A 
ATOM      9  C   UNL     1       2.822   5.494  19.606  0.00  0.00    +0.000 A 
BRANCH   9  10
ATOM     10  O   UNL     1       3.238   4.261  20.014  0.00  0.00    +0.000 OA
ATOM     11  H   UNL     1       2.887   4.072  20.902  0.00  0.00    +0.000 HD
ENDBRANCH   9  10
ENDBRANCH   2   3
BRANCH   2  12
ATOM     12  C   UNL     1       4.912   5.399  16.583  0.00  0.00    +0.000 C 
ATOM     13  O   UNL     1       4.990   5.341  15.359  0.00  0.00    +0.000 OA
BRANCH  12  14
ATOM     14  C   UNL     1       6.066   5.833  17.417  0.00  0.00    +0.000 A 
ATOM     15  C   UNL     1       6.577   7.123  17.193  0.00  0.00    +0.000 A 
ATOM     16  C   UNL     1       7.618   7.610  17.981  0.00  0.00    +0.000 A 
ATOM     17 BR   UNL     1       8.309   9.341  17.669  0.00  0.00    +0.000 Br
ATOM     18  C   UNL     1       8.157   6.829  19.003  0.00  0.00    +0.000 A 
ATOM     19  C   UNL     1       7.673   5.538  19.214  0.00  0.00    +0.000 A 
ATOM     20  C   UNL     1       6.643   5.039  18.414  0.00  0.00    +0.000 A 
BRANCH  20  21
ATOM     21  O   UNL     1       6.226   3.756  18.617  0.00  0.00    +0.000 OA
ATOM     22  H   UNL     1       6.116   3.590  19.568  0.00  0.00    +0.000 HD
ENDBRANCH  20  21
ENDBRANCH  12  14
ENDBRANCH   2  12
TORSDOF 5
ENDMDL
MODEL 6
REMARK VINA RESULT:      -6.5      3.011      5.367
REMARK  Name = 
REMARK  5 active torsions:
REMARK  status: ('A' for Active; 'I' for Inactive)
REMARK    1  A    between atoms: C_2  and  C_3
REMARK    2  A    between atoms: C_2  and  C_13
REMARK    3  A    between atoms: C_3  and  C_5
REMARK    4  A    between atoms: C_11  and  O_12
REMARK    5  A    between atoms: C_19  and  O_20
REMARK                            x       y       z     vdW  Elec       q    Type
REMARK                         _______ _______ _______ _____ _____    ______ ____
ROOT
ATOM      1  O   UNL     1       4.572   5.350  16.026  0.00  0.00    +0.000 OA
ATOM      2  C   UNL     1       4.673   5.998  17.064  0.00  0.00    +0.000 C 
ENDROOT
BRANCH   2   3
ATOM      3  C   UNL     1       5.995   6.258  17.697  0.00  0.00    +0.000 A 
ATOM      4  C   UNL     1       6.554   7.536  17.532  0.00  0.00    +0.000 A 
ATOM      5  C   UNL     1       7.766   7.854  18.143  0.00  0.00    +0.000 A 
ATOM      6 BR   UNL     1       8.520   9.572  17.907  0.00  0.00    +0.000 Br
ATOM      7  C   UNL     1       8.432   6.916  18.927  0.00  0.00    +0.000 A 
ATOM      8  C   UNL     1       7.895   5.638  19.081  0.00  0.00    +0.000 A 
ATOM      9  C   UNL     1       6.690   5.309  18.457  0.00  0.00    +0.000 A 
BRANCH   9  10
ATOM     10  O   UNL     1       6.216   4.036  18.591  0.00  0.00    +0.000 OA
ATOM     11  H   UNL     1       6.684   3.444  17.977  0.00  0.00    +0.000 HD
ENDBRANCH   9  10
ENDBRANCH   2   3
BRANCH   2  12
ATOM     12  C   UNL     1       3.414   6.580  17.660  0.00  0.00    +0.000 C 
ATOM     13  O   UNL     1       3.063   7.692  17.277  0.00  0.00    +0.000 OA
BRANCH  12  14
ATOM     14  C   UNL     1       2.614   5.808  18.649  0.00  0.00    +0.000 A 
ATOM     15  C   UNL     1       2.283   4.483  18.320  0.00  0.00    +0.000 A 
ATOM     16  C   UNL     1       1.585   3.690  19.229  0.00  0.00    +0.000 A 
ATOM     17 BR   UNL     1       1.133   1.910  18.778  0.00  0.00    +0.000 Br
ATOM     18  C   UNL     1       1.216   4.197  20.474  0.00  0.00    +0.000 A 
ATOM     19  C   UNL     1       1.518   5.520  20.797  0.00  0.00    +0.000 A 
ATOM     20  C   UNL     1       2.200   6.324  19.881  0.00  0.00    +0.000 A 
BRANCH  20  21
ATOM     21  O   UNL     1       2.437   7.627  20.212  0.00  0.00    +0.000 OA
ATOM     22  H   UNL     1       2.209   7.778  21.144  0.00  0.00    +0.000 HD
ENDBRANCH  20  21
ENDBRANCH  12  14
ENDBRANCH   2  12
TORSDOF 5
ENDMDL
MODEL 7
REMARK VINA RESULT:      -6.5      3.019      3.810
REMARK  Name = 
REMARK  5 active torsions:
REMARK  status: ('A' for Active; 'I' for Inactive)
REMARK    1  A    between atoms: C_2  and  C_3
REMARK    2  A    between atoms: C_2  and  C_13
REMARK    3  A    between atoms: C_3  and  C_5
REMARK    4  A    between atoms: C_11  and  O_12
REMARK    5  A    between atoms: C_19  and  O_20
REMARK                            x       y       z     vdW  Elec       q    Type
REMARK                         _______ _______ _______ _____ _____    ______ ____
ROOT
ATOM      1  O   UNL     1       3.082   7.782  17.369  0.00  0.00    +0.000 OA
ATOM      2  C   UNL     1       3.420   6.656  17.723  0.00  0.00    +0.000 C 
ENDROOT
BRANCH   2   3
ATOM      3  C   UNL     1       2.606   5.862  18.683  0.00  0.00    +0.000 A 
ATOM      4  C   UNL     1       2.275   4.546  18.322  0.00  0.00    +0.000 A 
ATOM      5  C   UNL     1       1.556   3.738  19.203  0.00  0.00    +0.000 A 
ATOM      6 BR   UNL     1       1.103   1.972  18.706  0.00  0.00    +0.000 Br
ATOM      7  C   UNL     1       1.166   4.221  20.449  0.00  0.00    +0.000 A 
ATOM      8  C   UNL     1       1.474   5.533  20.810  0.00  0.00    +0.000 A 
ATOM      9  C   UNL     1       2.178   6.352  19.924  0.00  0.00    +0.000 A 
BRANCH   9  10
ATOM     10  O   UNL     1       2.422   7.644  20.289  0.00  0.00    +0.000 OA
ATOM     11  H   UNL     1       3.364   7.753  20.504  0.00  0.00    +0.000 HD
ENDBRANCH   9  10
ENDBRANCH   2   3
BRANCH   2  12
ATOM     12  C   UNL     1       4.665   6.065  17.108  0.00  0.00    +0.000 C 
ATOM     13  O   UNL     1       4.539   5.412  16.076  0.00  0.00    +0.000 OA
BRANCH  12  14
ATOM     14  C   UNL     1       6.001   6.303  17.720  0.00  0.00    +0.000 A 
ATOM     15  C   UNL     1       6.563   7.582  17.569  0.00  0.00    +0.000 A 
ATOM     16  C   UNL     1       7.784   7.885  18.168  0.00  0.00    +0.000 A 
ATOM     17 BR   UNL     1       8.542   9.604  17.954  0.00  0.00    +0.000 Br
ATOM     18  C   UNL     1       8.456   6.928  18.929  0.00  0.00    +0.000 A 
ATOM     19  C   UNL     1       7.917   5.649  19.061  0.00  0.00    +0.000 A 
ATOM     20  C   UNL     1       6.703   5.335  18.446  0.00  0.00    +0.000 A 
BRANCH  20  21
ATOM     21  O   UNL     1       6.230   4.061  18.557  0.00  0.00    +0.000 OA
ATOM     22  H   UNL     1       5.499   4.033  19.197  0.00  0.00    +0.000 HD
ENDBRANCH  20  21
ENDBRANCH  12  14
ENDBRANCH   2  12
TORSDOF 5
ENDMDL
MODEL 8
REMARK VINA RESULT:      -6.5      1.924      5.079
REMARK  Name = 
REMARK  5 active torsions:
REMARK  status: ('A' for Active; 'I' for Inactive)
REMARK    1  A    between atoms: C_2  and  C_3
REMARK    2  A    between atoms: C_2  and  C_13
REMARK    3  A    between atoms: C_3  and  C_5
REMARK    4  A    between atoms: C_11  and  O_12
REMARK    5  A    between atoms: C_19  and  O_20
REMARK                            x       y       z     vdW  Elec       q    Type
REMARK                         _______ _______ _______ _____ _____    ______ ____
ROOT
ATOM      1  O   UNL     1       4.621   4.175  15.713  0.00  0.00    +0.000 OA
ATOM      2  C   UNL     1       4.466   4.589  16.858  0.00  0.00    +0.000 C 
ENDROOT
BRANCH   2   3
ATOM      3  C   UNL     1       5.606   5.103  17.665  0.00  0.00    +0.000 A 
ATOM      4  C   UNL     1       6.185   6.320  17.270  0.00  0.00    +0.000 A 
ATOM      5  C   UNL     1       7.224   6.876  18.016  0.00  0.00    +0.000 A 
ATOM      6 BR   UNL     1       8.006   8.509  17.473  0.00  0.00    +0.000 Br
ATOM      7  C   UNL     1       7.694   6.238  19.161  0.00  0.00    +0.000 A 
ATOM      8  C   UNL     1       7.139   5.018  19.550  0.00  0.00    +0.000 A 
ATOM      9  C   UNL     1       6.110   4.449  18.796  0.00  0.00    +0.000 A 
BRANCH   9  10
ATOM     10  O   UNL     1       5.622   3.234  19.178  0.00  0.00    +0.000 OA
ATOM     11  H   UNL     1       4.951   3.352  19.873  0.00  0.00    +0.000 HD
ENDBRANCH   9  10
ENDBRANCH   2   3
BRANCH   2  12
ATOM     12  C   UNL     1       3.063   4.617  17.415  0.00  0.00    +0.000 C 
ATOM     13  O   UNL     1       2.282   3.747  17.042  0.00  0.00    +0.000 OA
BRANCH  12  14
ATOM     14  C   UNL     1       2.662   5.647  18.412  0.00  0.00    +0.000 A 
ATOM     15  C   UNL     1       2.438   6.952  17.939  0.00  0.00    +0.000 A 
ATOM     16  C   UNL     1       2.004   7.947  18.812  0.00  0.00    +0.000 A 
ATOM     17 BR   UNL     1       1.714   9.703  18.174  0.00  0.00    +0.000 Br
ATOM     18  C   UNL     1       1.779   7.660  20.158  0.00  0.00    +0.000 A 
ATOM     19  C   UNL     1       2.024   6.374  20.640  0.00  0.00    +0.000 A 
ATOM     20  C   UNL     1       2.478   5.378  19.772  0.00  0.00    +0.000 A 
BRANCH  20  21
ATOM     21  O   UNL     1       2.753   4.145  20.287  0.00  0.00    +0.000 OA
ATOM     22  H   UNL     1       2.416   3.455  19.692  0.00  0.00    +0.000 HD
ENDBRANCH  20  21
ENDBRANCH  12  14
ENDBRANCH   2  12
TORSDOF 5
ENDMDL
MODEL 9
REMARK VINA RESULT:      -6.4      1.731      5.523
REMARK  Name = 
REMARK  5 active torsions:
REMARK  status: ('A' for Active; 'I' for Inactive)
REMARK    1  A    between atoms: C_2  and  C_3
REMARK    2  A    between atoms: C_2  and  C_13
REMARK    3  A    between atoms: C_3  and  C_5
REMARK    4  A    between atoms: C_11  and  O_12
REMARK    5  A    between atoms: C_19  and  O_20
REMARK                            x       y       z     vdW  Elec       q    Type
REMARK                         _______ _______ _______ _____ _____    ______ ____
ROOT
ATOM      1  O   UNL     1       4.972   3.275  19.511  0.00  0.00    +0.000 OA
ATOM      2  C   UNL     1       4.617   4.107  18.682  0.00  0.00    +0.000 C 
ENDROOT
BRANCH   2   3
ATOM      3  C   UNL     1       5.584   4.726  17.734  0.00  0.00    +0.000 A 
ATOM      4  C   UNL     1       6.133   5.970  18.085  0.00  0.00    +0.000 A 
ATOM      5  C   UNL     1       7.080   6.575  17.260  0.00  0.00    +0.000 A 
ATOM      6 BR   UNL     1       7.806   8.255  17.732  0.00  0.00    +0.000 Br
ATOM      7  C   UNL     1       7.498   5.954  16.086  0.00  0.00    +0.000 A 
ATOM      8  C   UNL     1       6.944   4.727  15.719  0.00  0.00    +0.000 A 
ATOM      9  C   UNL     1       5.982   4.125  16.532  0.00  0.00    +0.000 A 
BRANCH   9  10
ATOM     10  O   UNL     1       5.427   2.949  16.121  0.00  0.00    +0.000 OA
ATOM     11  H   UNL     1       5.982   2.204  16.409  0.00  0.00    +0.000 HD
ENDBRANCH   9  10
ENDBRANCH   2   3
BRANCH   2  12
ATOM     12  C   UNL     1       3.149   4.450  18.606  0.00  0.00    +0.000 C 
ATOM     13  O   UNL     1       2.405   3.654  18.042  0.00  0.00    +0.000 OA
BRANCH  12  14
ATOM     14  C   UNL     1       2.627   5.696  19.231  0.00  0.00    +0.000 A 
ATOM     15  C   UNL     1       2.549   6.842  18.422  0.00  0.00    +0.000 A 
ATOM     16  C   UNL     1       2.014   8.023  18.931  0.00  0.00    +0.000 A 
ATOM     17 BR   UNL     1       1.921   9.565  17.841  0.00  0.00    +0.000 Br
ATOM     18  C   UNL     1       1.544   8.080  20.243  0.00  0.00    +0.000 A 
ATOM     19  C   UNL     1       1.643   6.954  21.060  0.00  0.00    +0.000 A 
ATOM     20  C   UNL     1       2.196   5.774  20.559  0.00  0.00    +0.000 A 
BRANCH  20  21
ATOM     21  O   UNL     1       2.320   4.707  21.401  0.00  0.00    +0.000 OA
ATOM     22  H   UNL     1       3.151   4.775  21.901  0.00  0.00    +0.000 HD
ENDBRANCH  20  21
ENDBRANCH  12  14
ENDBRANCH   2  12
TORSDOF 5
ENDMDL
