MODEL 1
REMARK VINA RESULT:      -7.5      0.000      0.000
REMARK  Name = 
REMARK  11 active torsions:
REMARK  status: ('A' for Active; 'I' for Inactive)
REMARK    1  A    between atoms: N_1  and  C_2
REMARK    2  A    between atoms: C_7  and  C_8
REMARK    3  A    between atoms: C_11  and  N_12
REMARK    4  A    between atoms: C_13  and  C_15
REMARK    5  A    between atoms: C_15  and  C_16
REMARK    6  A    between atoms: C_16  and  C_17
REMARK    7  A    between atoms: C_17  and  C_18
REMARK    8  A    between atoms: C_18  and  C_19
REMARK    9  A    between atoms: C_19  and  C_20
REMARK   10  A    between atoms: C_20  and  C_21
REMARK   11  A    between atoms: N_23  and  O_24
REMARK                            x       y       z     vdW  Elec       q    Type
REMARK                         _______ _______ _______ _____ _____    ______ ____
ROOT
ATOM      1  N   UNL     1       2.949   5.744  18.976  0.00  0.00    +0.000 N 
ATOM      2  C   UNL     1       2.445   4.697  18.226  0.00  0.00    +0.000 C 
ATOM      3  O   UNL     1       1.411   4.693  17.563  0.00  0.00    +0.000 OA
ATOM      4  H   UNL     1       3.808   5.590  19.486  0.00  0.00    +0.000 HD
ENDROOT
BRANCH   1   8
ATOM      5  C   UNL     1       1.174   9.608  19.223  0.00  0.00    +0.000 A 
ATOM      6  C   UNL     1       1.227   8.761  20.336  0.00  0.00    +0.000 A 
ATOM      7  C   UNL     1       1.775   7.482  20.262  0.00  0.00    +0.000 A 
ATOM      8  C   UNL     1       2.372   7.022  19.091  0.00  0.00    +0.000 A 
ATOM      9  C   UNL     1       2.398   7.874  17.983  0.00  0.00    +0.000 A 
ATOM     10  C   UNL     1       1.794   9.141  18.047  0.00  0.00    +0.000 A 
BRANCH   5  16
ATOM     11  C   UNL     1      -0.574  11.317  18.450  0.00  0.00    +0.000 A 
ATOM     12  C   UNL     1      -1.220  12.546  18.665  0.00  0.00    +0.000 A 
ATOM     13  C   UNL     1      -0.755  13.450  19.615  0.00  0.00    +0.000 A 
ATOM     14  C   UNL     1       0.331  13.113  20.410  0.00  0.00    +0.000 A 
ATOM     15  C   UNL     1       0.938  11.866  20.266  0.00  0.00    +0.000 A 
ATOM     16  C   UNL     1       0.500  10.930  19.301  0.00  0.00    +0.000 A 
BRANCH  11  17
ATOM     17  N   UNL     1      -1.167  10.438  17.517  0.00  0.00    +0.000 N 
ATOM     18  H   UNL     1      -1.019  10.696  16.549  0.00  0.00    +0.000 HD
ATOM     19  H   UNL     1      -0.940   9.463  17.689  0.00  0.00    +0.000 HD
ENDBRANCH  11  17
ENDBRANCH   5  16
ENDBRANCH   1   8
BRANCH   2  20
ATOM     20  C   UNL     1       3.303   3.458  18.256  0.00  0.00    +0.000 C 
BRANCH  20  21
ATOM     21  C   UNL     1       4.722   3.833  17.832  0.00  0.00    +0.000 C 
BRANCH  21  22
ATOM     22  C   UNL     1       4.813   4.279  16.378  0.00  0.00    +0.000 C 
BRANCH  22  23
ATOM     23  C   UNL     1       5.305   5.720  16.235  0.00  0.00    +0.000 C 
BRANCH  23  24
ATOM     24  C   UNL     1       6.820   5.790  16.368  0.00  0.00    +0.000 C 
BRANCH  24  25
ATOM     25  C   UNL     1       7.231   6.500  17.655  0.00  0.00    +0.000 C 
BRANCH  25  26
ATOM     26  C   UNL     1       7.797   5.525  18.662  0.00  0.00    +0.000 C 
ATOM     27  O   UNL     1       8.060   4.349  18.424  0.00  0.00    +0.000 OA
ATOM     28  N   UNL     1       8.006   6.077  19.903  0.00  0.00    +0.000 N 
ATOM     29  H   UNL     1       7.537   6.916  20.224  0.00  0.00    +0.000 HD
BRANCH  28  30
ATOM     30  O   UNL     1       8.426   5.165  20.900  0.00  0.00    +0.000 OA
ATOM     31  H   UNL     1       7.568   4.846  21.268  0.00  0.00    +0.000 HD
ENDBRANCH  28  30
ENDBRANCH  25  26
ENDBRANCH  24  25
ENDBRANCH  23  24
ENDBRANCH  22  23
ENDBRANCH  21  22
ENDBRANCH  20  21
ENDBRANCH   2  20
TORSDOF 11
ENDMDL
MODEL 2
REMARK VINA RESULT:      -7.3      0.909      1.082
REMARK  Name = 
REMARK  11 active torsions:
REMARK  status: ('A' for Active; 'I' for Inactive)
REMARK    1  A    between atoms: N_1  and  C_2
REMARK    2  A    between atoms: C_7  and  C_8
REMARK    3  A    between atoms: C_11  and  N_12
REMARK    4  A    between atoms: C_13  and  C_15
REMARK    5  A    between atoms: C_15  and  C_16
REMARK    6  A    between atoms: C_16  and  C_17
REMARK    7  A    between atoms: C_17  and  C_18
REMARK    8  A    between atoms: C_18  and  C_19
REMARK    9  A    between atoms: C_19  and  C_20
REMARK   10  A    between atoms: C_20  and  C_21
REMARK   11  A    between atoms: N_23  and  O_24
REMARK                            x       y       z     vdW  Elec       q    Type
REMARK                         _______ _______ _______ _____ _____    ______ ____
ROOT
ATOM      1  N   UNL     1       2.975   5.685  19.590  0.00  0.00    +0.000 N 
ATOM      2  C   UNL     1       2.305   4.507  19.866  0.00  0.00    +0.000 C 
ATOM      3  O   UNL     1       1.105   4.374  20.092  0.00  0.00    +0.000 OA
ATOM      4  H   UNL     1       3.974   5.638  19.443  0.00  0.00    +0.000 HD
ENDROOT
BRANCH   1   8
ATOM      5  C   UNL     1       1.171   9.521  19.175  0.00  0.00    +0.000 A 
ATOM      6  C   UNL     1       1.122   8.823  20.388  0.00  0.00    +0.000 A 
ATOM      7  C   UNL     1       1.678   7.554  20.529  0.00  0.00    +0.000 A 
ATOM      8  C   UNL     1       2.385   6.959  19.487  0.00  0.00    +0.000 A 
ATOM      9  C   UNL     1       2.512   7.664  18.287  0.00  0.00    +0.000 A 
ATOM     10  C   UNL     1       1.900   8.919  18.131  0.00  0.00    +0.000 A 
BRANCH   5  16
ATOM     11  C   UNL     1      -0.624  11.043  18.155  0.00  0.00    +0.000 A 
ATOM     12  C   UNL     1      -1.272  12.289  18.152  0.00  0.00    +0.000 A 
ATOM     13  C   UNL     1      -0.778  13.362  18.887  0.00  0.00    +0.000 A 
ATOM     14  C   UNL     1       0.342  13.189  19.688  0.00  0.00    +0.000 A 
ATOM     15  C   UNL     1       0.954  11.940  19.765  0.00  0.00    +0.000 A 
ATOM     16  C   UNL     1       0.487  10.832  19.020  0.00  0.00    +0.000 A 
BRANCH  11  17
ATOM     17  N   UNL     1      -1.245   9.998  17.437  0.00  0.00    +0.000 N 
ATOM     18  H   UNL     1      -0.884   9.864  16.500  0.00  0.00    +0.000 HD
ATOM     19  H   UNL     1      -1.282   9.125  17.957  0.00  0.00    +0.000 HD
ENDBRANCH  11  17
ENDBRANCH   5  16
ENDBRANCH   1   8
BRANCH   2  20
ATOM     20  C   UNL     1       3.193   3.289  19.869  0.00  0.00    +0.000 C 
BRANCH  20  21
ATOM     21  C   UNL     1       4.359   3.529  18.912  0.00  0.00    +0.000 C 
BRANCH  21  22
ATOM     22  C   UNL     1       4.001   3.262  17.455  0.00  0.00    +0.000 C 
BRANCH  22  23
ATOM     23  C   UNL     1       4.976   3.923  16.480  0.00  0.00    +0.000 C 
BRANCH  23  24
ATOM     24  C   UNL     1       5.291   5.348  16.914  0.00  0.00    +0.000 C 
BRANCH  24  25
ATOM     25  C   UNL     1       6.768   5.676  16.708  0.00  0.00    +0.000 C 
BRANCH  25  26
ATOM     26  C   UNL     1       7.612   5.124  17.834  0.00  0.00    +0.000 C 
ATOM     27  O   UNL     1       8.294   4.105  17.762  0.00  0.00    +0.000 OA
ATOM     28  N   UNL     1       7.561   5.882  18.981  0.00  0.00    +0.000 N 
ATOM     29  H   UNL     1       6.806   6.527  19.186  0.00  0.00    +0.000 HD
BRANCH  28  30
ATOM     30  O   UNL     1       8.247   5.334  20.090  0.00  0.00    +0.000 OA
ATOM     31  H   UNL     1       7.957   4.392  20.073  0.00  0.00    +0.000 HD
ENDBRANCH  28  30
ENDBRANCH  25  26
ENDBRANCH  24  25
ENDBRANCH  23  24
ENDBRANCH  22  23
ENDBRANCH  21  22
ENDBRANCH  20  21
ENDBRANCH   2  20
TORSDOF 11
ENDMDL
MODEL 3
REMARK VINA RESULT:      -7.2      1.733      2.291
REMARK  Name = 
REMARK  11 active torsions:
REMARK  status: ('A' for Active; 'I' for Inactive)
REMARK    1  A    between atoms: N_1  and  C_2
REMARK    2  A    between atoms: C_7  and  C_8
REMARK    3  A    between atoms: C_11  and  N_12
REMARK    4  A    between atoms: C_13  and  C_15
REMARK    5  A    between atoms: C_15  and  C_16
REMARK    6  A    between atoms: C_16  and  C_17
REMARK    7  A    between atoms: C_17  and  C_18
REMARK    8  A    between atoms: C_18  and  C_19
REMARK    9  A    between atoms: C_19  and  C_20
REMARK   10  A    between atoms: C_20  and  C_21
REMARK   11  A    between atoms: N_23  and  O_24
REMARK                            x       y       z     vdW  Elec       q    Type
REMARK                         _______ _______ _______ _____ _____    ______ ____
ROOT
ATOM      1  N   UNL     1       2.709   5.743  20.430  0.00  0.00    +0.000 N 
ATOM      2  C   UNL     1       2.200   4.501  20.098  0.00  0.00    +0.000 C 
ATOM      3  O   UNL     1       1.195   4.267  19.431  0.00  0.00    +0.000 OA
ATOM      4  H   UNL     1       3.539   5.776  21.006  0.00  0.00    +0.000 HD
ENDROOT
BRANCH   1   8
ATOM      5  C   UNL     1       1.103   9.529  19.321  0.00  0.00    +0.000 A 
ATOM      6  C   UNL     1       1.786   8.730  18.396  0.00  0.00    +0.000 A 
ATOM      7  C   UNL     1       2.345   7.505  18.752  0.00  0.00    +0.000 A 
ATOM      8  C   UNL     1       2.174   6.982  20.031  0.00  0.00    +0.000 A 
ATOM      9  C   UNL     1       1.434   7.724  20.956  0.00  0.00    +0.000 A 
ATOM     10  C   UNL     1       0.921   8.985  20.608  0.00  0.00    +0.000 A 
BRANCH   5  16
ATOM     11  C   UNL     1      -0.701  11.107  18.408  0.00  0.00    +0.000 A 
ATOM     12  C   UNL     1      -1.130  12.423  18.178  0.00  0.00    +0.000 A 
ATOM     13  C   UNL     1      -0.270  13.504  18.347  0.00  0.00    +0.000 A 
ATOM     14  C   UNL     1       1.021  13.289  18.808  0.00  0.00    +0.000 A 
ATOM     15  C   UNL     1       1.442  11.996  19.116  0.00  0.00    +0.000 A 
ATOM     16  C   UNL     1       0.598  10.875  18.943  0.00  0.00    +0.000 A 
BRANCH  11  17
ATOM     17  N   UNL     1      -1.670  10.087  18.282  0.00  0.00    +0.000 N 
ATOM     18  H   UNL     1      -1.314   9.152  18.441  0.00  0.00    +0.000 HD
ATOM     19  H   UNL     1      -2.512  10.269  18.821  0.00  0.00    +0.000 HD
ENDBRANCH  11  17
ENDBRANCH   5  16
ENDBRANCH   1   8
BRANCH   2  20
ATOM     20  C   UNL     1       3.011   3.348  20.633  0.00  0.00    +0.000 C 
BRANCH  20  21
ATOM     21  C   UNL     1       4.154   3.059  19.662  0.00  0.00    +0.000 C 
BRANCH  21  22
ATOM     22  C   UNL     1       3.686   2.413  18.364  0.00  0.00    +0.000 C 
BRANCH  22  23
ATOM     23  C   UNL     1       3.853   3.335  17.155  0.00  0.00    +0.000 C 
BRANCH  23  24
ATOM     24  C   UNL     1       4.911   4.396  17.427  0.00  0.00    +0.000 C 
BRANCH  24  25
ATOM     25  C   UNL     1       4.984   5.411  16.289  0.00  0.00    +0.000 C 
BRANCH  25  26
ATOM     26  C   UNL     1       6.346   6.062  16.223  0.00  0.00    +0.000 C 
ATOM     27  O   UNL     1       7.264   5.691  15.496  0.00  0.00    +0.000 OA
ATOM     28  N   UNL     1       6.479   7.143  17.063  0.00  0.00    +0.000 N 
ATOM     29  H   UNL     1       5.888   7.292  17.872  0.00  0.00    +0.000 HD
BRANCH  28  30
ATOM     30  O   UNL     1       7.777   7.706  17.112  0.00  0.00    +0.000 OA
ATOM     31  H   UNL     1       8.354   6.907  17.072  0.00  0.00    +0.000 HD
ENDBRANCH  28  30
ENDBRANCH  25  26
ENDBRANCH  24  25
ENDBRANCH  23  24
ENDBRANCH  22  23
ENDBRANCH  21  22
ENDBRANCH  20  21
ENDBRANCH   2  20
TORSDOF 11
ENDMDL
MODEL 4
REMARK VINA RESULT:      -7.2      1.680      2.384
REMARK  Name = 
REMARK  11 active torsions:
REMARK  status: ('A' for Active; 'I' for Inactive)
REMARK    1  A    between atoms: N_1  and  C_2
REMARK    2  A    between atoms: C_7  and  C_8
REMARK    3  A    between atoms: C_11  and  N_12
REMARK    4  A    between atoms: C_13  and  C_15
REMARK    5  A    between atoms: C_15  and  C_16
REMARK    6  A    between atoms: C_16  and  C_17
REMARK    7  A    between atoms: C_17  and  C_18
REMARK    8  A    between atoms: C_18  and  C_19
REMARK    9  A    between atoms: C_19  and  C_20
REMARK   10  A    between atoms: C_20  and  C_21
REMARK   11  A    between atoms: N_23  and  O_24
REMARK                            x       y       z     vdW  Elec       q    Type
REMARK                         _______ _______ _______ _____ _____    ______ ____
ROOT
ATOM      1  N   UNL     1       2.739   5.880  20.002  0.00  0.00    +0.000 N 
ATOM      2  C   UNL     1       2.022   4.734  20.294  0.00  0.00    +0.000 C 
ATOM      3  O   UNL     1       0.806   4.637  20.432  0.00  0.00    +0.000 OA
ATOM      4  H   UNL     1       3.745   5.804  19.937  0.00  0.00    +0.000 HD
ENDROOT
BRANCH   1   8
ATOM      5  C   UNL     1       1.102   9.769  19.429  0.00  0.00    +0.000 A 
ATOM      6  C   UNL     1       1.662   9.053  18.364  0.00  0.00    +0.000 A 
ATOM      7  C   UNL     1       2.230   7.794  18.542  0.00  0.00    +0.000 A 
ATOM      8  C   UNL     1       2.190   7.156  19.779  0.00  0.00    +0.000 A 
ATOM      9  C   UNL     1       1.573   7.817  20.845  0.00  0.00    +0.000 A 
ATOM     10  C   UNL     1       1.051   9.111  20.673  0.00  0.00    +0.000 A 
BRANCH   5  16
ATOM     11  C   UNL     1       1.305  12.168  18.543  0.00  0.00    +0.000 A 
ATOM     12  C   UNL     1       0.696  13.412  18.316  0.00  0.00    +0.000 A 
ATOM     13  C   UNL     1      -0.550  13.717  18.857  0.00  0.00    +0.000 A 
ATOM     14  C   UNL     1      -1.235  12.756  19.587  0.00  0.00    +0.000 A 
ATOM     15  C   UNL     1      -0.682  11.488  19.758  0.00  0.00    +0.000 A 
ATOM     16  C   UNL     1       0.587  11.150  19.234  0.00  0.00    +0.000 A 
BRANCH  11  17
ATOM     17  N   UNL     1       2.533  11.929  17.889  0.00  0.00    +0.000 N 
ATOM     18  H   UNL     1       3.115  12.751  17.782  0.00  0.00    +0.000 HD
ATOM     19  H   UNL     1       3.050  11.148  18.284  0.00  0.00    +0.000 HD
ENDBRANCH  11  17
ENDBRANCH   5  16
ENDBRANCH   1   8
BRANCH   2  20
ATOM     20  C   UNL     1       2.878   3.500  20.437  0.00  0.00    +0.000 C 
BRANCH  20  21
ATOM     21  C   UNL     1       2.687   2.624  19.200  0.00  0.00    +0.000 C 
BRANCH  21  22
ATOM     22  C   UNL     1       3.811   2.774  18.182  0.00  0.00    +0.000 C 
BRANCH  22  23
ATOM     23  C   UNL     1       3.563   3.917  17.197  0.00  0.00    +0.000 C 
BRANCH  23  24
ATOM     24  C   UNL     1       4.667   3.978  16.150  0.00  0.00    +0.000 C 
BRANCH  24  25
ATOM     25  C   UNL     1       5.300   5.365  16.093  0.00  0.00    +0.000 C 
BRANCH  25  26
ATOM     26  C   UNL     1       6.718   5.341  16.617  0.00  0.00    +0.000 C 
ATOM     27  O   UNL     1       7.533   6.249  16.470  0.00  0.00    +0.000 OA
ATOM     28  N   UNL     1       7.032   4.190  17.299  0.00  0.00    +0.000 N 
ATOM     29  H   UNL     1       6.522   3.321  17.184  0.00  0.00    +0.000 HD
BRANCH  28  30
ATOM     30  O   UNL     1       8.384   4.084  17.704  0.00  0.00    +0.000 OA
ATOM     31  H   UNL     1       8.625   3.179  17.395  0.00  0.00    +0.000 HD
ENDBRANCH  28  30
ENDBRANCH  25  26
ENDBRANCH  24  25
ENDBRANCH  23  24
ENDBRANCH  22  23
ENDBRANCH  21  22
ENDBRANCH  20  21
ENDBRANCH   2  20
TORSDOF 11
ENDMDL
MODEL 5
REMARK VINA RESULT:      -7.1      5.773      8.293
REMARK  Name = 
REMARK  11 active torsions:
REMARK  status: ('A' for Active; 'I' for Inactive)
REMARK    1  A    between atoms: N_1  and  C_2
REMARK    2  A    between atoms: C_7  and  C_8
REMARK    3  A    between atoms: C_11  and  N_12
REMARK    4  A    between atoms: C_13  and  C_15
REMARK    5  A    between atoms: C_15  and  C_16
REMARK    6  A    between atoms: C_16  and  C_17
REMARK    7  A    between atoms: C_17  and  C_18
REMARK    8  A    between atoms: C_18  and  C_19
REMARK    9  A    between atoms: C_19  and  C_20
REMARK   10  A    between atoms: C_20  and  C_21
REMARK   11  A    between atoms: N_23  and  O_24
REMARK                            x       y       z     vdW  Elec       q    Type
REMARK                         _______ _______ _______ _____ _____    ______ ____
ROOT
ATOM      1  N   UNL     1       8.674   8.579  19.016  0.00  0.00    +0.000 N 
ATOM      2  C   UNL     1       8.076   7.696  18.135  0.00  0.00    +0.000 C 
ATOM      3  O   UNL     1       7.693   7.936  16.993  0.00  0.00    +0.000 OA
ATOM      4  H   UNL     1       8.918   8.236  19.935  0.00  0.00    +0.000 HD
ENDROOT
BRANCH   1   8
ATOM      5  C   UNL     1       9.708  12.631  18.212  0.00  0.00    +0.000 A 
ATOM      6  C   UNL     1       8.597  12.032  17.608  0.00  0.00    +0.000 A 
ATOM      7  C   UNL     1       8.265  10.698  17.835  0.00  0.00    +0.000 A 
ATOM      8  C   UNL     1       8.981   9.924  18.745  0.00  0.00    +0.000 A 
ATOM      9  C   UNL     1      10.053  10.518  19.418  0.00  0.00    +0.000 A 
ATOM     10  C   UNL     1      10.418  11.846  19.143  0.00  0.00    +0.000 A 
BRANCH   5  16
ATOM     11  C   UNL     1      11.125  14.357  16.952  0.00  0.00    +0.000 A 
ATOM     12  C   UNL     1      11.354  15.703  16.623  0.00  0.00    +0.000 A 
ATOM     13  C   UNL     1      10.681  16.731  17.276  0.00  0.00    +0.000 A 
ATOM     14  C   UNL     1       9.721  16.426  18.231  0.00  0.00    +0.000 A 
ATOM     15  C   UNL     1       9.424  15.095  18.516  0.00  0.00    +0.000 A 
ATOM     16  C   UNL     1      10.098  14.027  17.881  0.00  0.00    +0.000 A 
BRANCH  11  17
ATOM     17  N   UNL     1      11.801  13.387  16.180  0.00  0.00    +0.000 N 
ATOM     18  H   UNL     1      12.778  13.595  16.012  0.00  0.00    +0.000 HD
ATOM     19  H   UNL     1      11.670  12.441  16.526  0.00  0.00    +0.000 HD
ENDBRANCH  11  17
ENDBRANCH   5  16
ENDBRANCH   1   8
BRANCH   2  20
ATOM     20  C   UNL     1       7.910   6.303  18.688  0.00  0.00    +0.000 C 
BRANCH  20  21
ATOM     21  C   UNL     1       6.920   5.540  17.809  0.00  0.00    +0.000 C 
BRANCH  21  22
ATOM     22  C   UNL     1       5.481   5.646  18.299  0.00  0.00    +0.000 C 
BRANCH  22  23
ATOM     23  C   UNL     1       4.466   5.571  17.158  0.00  0.00    +0.000 C 
BRANCH  23  24
ATOM     24  C   UNL     1       4.246   4.128  16.724  0.00  0.00    +0.000 C 
BRANCH  24  25
ATOM     25  C   UNL     1       3.737   3.273  17.881  0.00  0.00    +0.000 C 
BRANCH  25  26
ATOM     26  C   UNL     1       2.239   3.085  17.805  0.00  0.00    +0.000 C 
ATOM     27  O   UNL     1       1.457   3.898  17.320  0.00  0.00    +0.000 OA
ATOM     28  N   UNL     1       1.808   1.891  18.333  0.00  0.00    +0.000 N 
ATOM     29  H   UNL     1       2.351   1.349  18.996  0.00  0.00    +0.000 HD
BRANCH  28  30
ATOM     30  O   UNL     1       0.403   1.732  18.383  0.00  0.00    +0.000 OA
ATOM     31  H   UNL     1       0.129   1.994  17.473  0.00  0.00    +0.000 HD
ENDBRANCH  28  30
ENDBRANCH  25  26
ENDBRANCH  24  25
ENDBRANCH  23  24
ENDBRANCH  22  23
ENDBRANCH  21  22
ENDBRANCH  20  21
ENDBRANCH   2  20
TORSDOF 11
ENDMDL
MODEL 6
REMARK VINA RESULT:      -7.1      1.861      2.465
REMARK  Name = 
REMARK  11 active torsions:
REMARK  status: ('A' for Active; 'I' for Inactive)
REMARK    1  A    between atoms: N_1  and  C_2
REMARK    2  A    between atoms: C_7  and  C_8
REMARK    3  A    between atoms: C_11  and  N_12
REMARK    4  A    between atoms: C_13  and  C_15
REMARK    5  A    between atoms: C_15  and  C_16
REMARK    6  A    between atoms: C_16  and  C_17
REMARK    7  A    between atoms: C_17  and  C_18
REMARK    8  A    between atoms: C_18  and  C_19
REMARK    9  A    between atoms: C_19  and  C_20
REMARK   10  A    between atoms: C_20  and  C_21
REMARK   11  A    between atoms: N_23  and  O_24
REMARK                            x       y       z     vdW  Elec       q    Type
REMARK                         _______ _______ _______ _____ _____    ______ ____
ROOT
ATOM      1  N   UNL     1       2.540   5.784  20.557  0.00  0.00    +0.000 N 
ATOM      2  C   UNL     1       1.781   4.629  20.595  0.00  0.00    +0.000 C 
ATOM      3  O   UNL     1       0.583   4.523  20.347  0.00  0.00    +0.000 OA
ATOM      4  H   UNL     1       3.517   5.717  20.807  0.00  0.00    +0.000 HD
ENDROOT
BRANCH   1   8
ATOM      5  C   UNL     1       1.111   9.611  19.353  0.00  0.00    +0.000 A 
ATOM      6  C   UNL     1       0.941   9.152  20.664  0.00  0.00    +0.000 A 
ATOM      7  C   UNL     1       1.373   7.890  21.064  0.00  0.00    +0.000 A 
ATOM      8  C   UNL     1       2.073   7.060  20.192  0.00  0.00    +0.000 A 
ATOM      9  C   UNL     1       2.321   7.522  18.896  0.00  0.00    +0.000 A 
ATOM     10  C   UNL     1       1.833   8.773  18.481  0.00  0.00    +0.000 A 
BRANCH   5  16
ATOM     11  C   UNL     1      -0.779  11.099  18.462  0.00  0.00    +0.000 A 
ATOM     12  C   UNL     1      -1.248  12.392  18.178  0.00  0.00    +0.000 A 
ATOM     13  C   UNL     1      -0.399  13.494  18.221  0.00  0.00    +0.000 A 
ATOM     14  C   UNL     1       0.923  13.328  18.609  0.00  0.00    +0.000 A 
ATOM     15  C   UNL     1       1.388  12.065  18.970  0.00  0.00    +0.000 A 
ATOM     16  C   UNL     1       0.556  10.922  18.924  0.00  0.00    +0.000 A 
BRANCH  11  17
ATOM     17  N   UNL     1      -1.734  10.059  18.464  0.00  0.00    +0.000 N 
ATOM     18  H   UNL     1      -1.398   9.185  18.852  0.00  0.00    +0.000 HD
ATOM     19  H   UNL     1      -2.623  10.336  18.871  0.00  0.00    +0.000 HD
ENDBRANCH  11  17
ENDBRANCH   5  16
ENDBRANCH   1   8
BRANCH   2  20
ATOM     20  C   UNL     1       2.563   3.399  20.981  0.00  0.00    +0.000 C 
BRANCH  20  21
ATOM     21  C   UNL     1       2.791   2.550  19.731  0.00  0.00    +0.000 C 
BRANCH  21  22
ATOM     22  C   UNL     1       4.263   2.416  19.359  0.00  0.00    +0.000 C 
BRANCH  22  23
ATOM     23  C   UNL     1       4.905   3.760  19.012  0.00  0.00    +0.000 C 
BRANCH  23  24
ATOM     24  C   UNL     1       4.249   4.372  17.782  0.00  0.00    +0.000 C 
BRANCH  24  25
ATOM     25  C   UNL     1       5.102   4.155  16.534  0.00  0.00    +0.000 C 
BRANCH  25  26
ATOM     26  C   UNL     1       5.806   5.428  16.125  0.00  0.00    +0.000 C 
ATOM     27  O   UNL     1       5.457   6.154  15.198  0.00  0.00    +0.000 OA
ATOM     28  N   UNL     1       6.901   5.724  16.903  0.00  0.00    +0.000 N 
ATOM     29  H   UNL     1       7.394   5.030  17.454  0.00  0.00    +0.000 HD
BRANCH  28  30
ATOM     30  O   UNL     1       7.652   6.845  16.477  0.00  0.00    +0.000 OA
ATOM     31  H   UNL     1       7.616   7.434  17.268  0.00  0.00    +0.000 HD
ENDBRANCH  28  30
ENDBRANCH  25  26
ENDBRANCH  24  25
ENDBRANCH  23  24
ENDBRANCH  22  23
ENDBRANCH  21  22
ENDBRANCH  20  21
ENDBRANCH   2  20
TORSDOF 11
ENDMDL
MODEL 7
REMARK VINA RESULT:      -7.0      1.472      1.802
REMARK  Name = 
REMARK  11 active torsions:
REMARK  status: ('A' for Active; 'I' for Inactive)
REMARK    1  A    between atoms: N_1  and  C_2
REMARK    2  A    between atoms: C_7  and  C_8
REMARK    3  A    between atoms: C_11  and  N_12
REMARK    4  A    between atoms: C_13  and  C_15
REMARK    5  A    between atoms: C_15  and  C_16
REMARK    6  A    between atoms: C_16  and  C_17
REMARK    7  A    between atoms: C_17  and  C_18
REMARK    8  A    between atoms: C_18  and  C_19
REMARK    9  A    between atoms: C_19  and  C_20
REMARK   10  A    between atoms: C_20  and  C_21
REMARK   11  A    between atoms: N_23  and  O_24
REMARK                            x       y       z     vdW  Elec       q    Type
REMARK                         _______ _______ _______ _____ _____    ______ ____
ROOT
ATOM      1  N   UNL     1       2.662   5.731  20.356  0.00  0.00    +0.000 N 
ATOM      2  C   UNL     1       1.907   4.575  20.435  0.00  0.00    +0.000 C 
ATOM      3  O   UNL     1       0.695   4.469  20.263  0.00  0.00    +0.000 OA
ATOM      4  H   UNL     1       3.653   5.662  20.543  0.00  0.00    +0.000 HD
ENDROOT
BRANCH   1   8
ATOM      5  C   UNL     1       1.161   9.566  19.270  0.00  0.00    +0.000 A 
ATOM      6  C   UNL     1       1.031   9.078  20.575  0.00  0.00    +0.000 A 
ATOM      7  C   UNL     1       1.487   7.813  20.938  0.00  0.00    +0.000 A 
ATOM      8  C   UNL     1       2.172   7.009  20.030  0.00  0.00    +0.000 A 
ATOM      9  C   UNL     1       2.381   7.500  18.738  0.00  0.00    +0.000 A 
ATOM     10  C   UNL     1       1.869   8.753  18.362  0.00  0.00    +0.000 A 
BRANCH   5  16
ATOM     11  C   UNL     1      -0.759  11.047  18.436  0.00  0.00    +0.000 A 
ATOM     12  C   UNL     1      -1.251  12.339  18.193  0.00  0.00    +0.000 A 
ATOM     13  C   UNL     1      -0.421  13.454  18.262  0.00  0.00    +0.000 A 
ATOM     14  C   UNL     1       0.907  13.299  18.635  0.00  0.00    +0.000 A 
ATOM     15  C   UNL     1       1.395  12.034  18.956  0.00  0.00    +0.000 A 
ATOM     16  C   UNL     1       0.582  10.879  18.883  0.00  0.00    +0.000 A 
BRANCH  11  17
ATOM     17  N   UNL     1      -1.697   9.992  18.416  0.00  0.00    +0.000 N 
ATOM     18  H   UNL     1      -2.205   9.903  17.544  0.00  0.00    +0.000 HD
ATOM     19  H   UNL     1      -1.305   9.104  18.718  0.00  0.00    +0.000 HD
ENDBRANCH  11  17
ENDBRANCH   5  16
ENDBRANCH   1   8
BRANCH   2  20
ATOM     20  C   UNL     1       2.713   3.343  20.762  0.00  0.00    +0.000 C 
BRANCH  20  21
ATOM     21  C   UNL     1       3.391   2.847  19.486  0.00  0.00    +0.000 C 
BRANCH  21  22
ATOM     22  C   UNL     1       2.699   3.327  18.216  0.00  0.00    +0.000 C 
BRANCH  22  23
ATOM     23  C   UNL     1       3.690   3.676  17.104  0.00  0.00    +0.000 C 
BRANCH  23  24
ATOM     24  C   UNL     1       4.527   4.889  17.486  0.00  0.00    +0.000 C 
BRANCH  24  25
ATOM     25  C   UNL     1       6.018   4.564  17.460  0.00  0.00    +0.000 C 
BRANCH  25  26
ATOM     26  C   UNL     1       6.764   5.329  18.530  0.00  0.00    +0.000 C 
ATOM     27  O   UNL     1       6.575   5.205  19.737  0.00  0.00    +0.000 OA
ATOM     28  N   UNL     1       7.705   6.196  18.029  0.00  0.00    +0.000 N 
ATOM     29  H   UNL     1       7.685   6.550  17.079  0.00  0.00    +0.000 HD
BRANCH  28  30
ATOM     30  O   UNL     1       8.342   7.011  18.996  0.00  0.00    +0.000 OA
ATOM     31  H   UNL     1       8.936   6.370  19.452  0.00  0.00    +0.000 HD
ENDBRANCH  28  30
ENDBRANCH  25  26
ENDBRANCH  24  25
ENDBRANCH  23  24
ENDBRANCH  22  23
ENDBRANCH  21  22
ENDBRANCH  20  21
ENDBRANCH   2  20
TORSDOF 11
ENDMDL
MODEL 8
REMARK VINA RESULT:      -7.0      1.647      1.997
REMARK  Name = 
REMARK  11 active torsions:
REMARK  status: ('A' for Active; 'I' for Inactive)
REMARK    1  A    between atoms: N_1  and  C_2
REMARK    2  A    between atoms: C_7  and  C_8
REMARK    3  A    between atoms: C_11  and  N_12
REMARK    4  A    between atoms: C_13  and  C_15
REMARK    5  A    between atoms: C_15  and  C_16
REMARK    6  A    between atoms: C_16  and  C_17
REMARK    7  A    between atoms: C_17  and  C_18
REMARK    8  A    between atoms: C_18  and  C_19
REMARK    9  A    between atoms: C_19  and  C_20
REMARK   10  A    between atoms: C_20  and  C_21
REMARK   11  A    between atoms: N_23  and  O_24
REMARK                            x       y       z     vdW  Elec       q    Type
REMARK                         _______ _______ _______ _____ _____    ______ ____
ROOT
ATOM      1  N   UNL     1       3.177   6.079  19.578  0.00  0.00    +0.000 N 
ATOM      2  C   UNL     1       2.754   4.824  19.181  0.00  0.00    +0.000 C 
ATOM      3  O   UNL     1       1.624   4.504  18.819  0.00  0.00    +0.000 OA
ATOM      4  H   UNL     1       4.140   6.183  19.868  0.00  0.00    +0.000 HD
ENDROOT
BRANCH   1   8
ATOM      5  C   UNL     1       0.751   9.579  19.576  0.00  0.00    +0.000 A 
ATOM      6  C   UNL     1       0.878   8.784  20.721  0.00  0.00    +0.000 A 
ATOM      7  C   UNL     1       1.641   7.619  20.728  0.00  0.00    +0.000 A 
ATOM      8  C   UNL     1       2.383   7.239  19.612  0.00  0.00    +0.000 A 
ATOM      9  C   UNL     1       2.333   8.053  18.476  0.00  0.00    +0.000 A 
ATOM     10  C   UNL     1       1.516   9.197  18.457  0.00  0.00    +0.000 A 
BRANCH   5  16
ATOM     11  C   UNL     1       0.224  12.035  20.093  0.00  0.00    +0.000 A 
ATOM     12  C   UNL     1      -0.648  13.126  19.944  0.00  0.00    +0.000 A 
ATOM     13  C   UNL     1      -1.918  12.968  19.398  0.00  0.00    +0.000 A 
ATOM     14  C   UNL     1      -2.316  11.722  18.935  0.00  0.00    +0.000 A 
ATOM     15  C   UNL     1      -1.437  10.642  19.003  0.00  0.00    +0.000 A 
ATOM     16  C   UNL     1      -0.145  10.765  19.565  0.00  0.00    +0.000 A 
BRANCH  11  17
ATOM     17  N   UNL     1       1.517  12.313  20.588  0.00  0.00    +0.000 N 
ATOM     18  H   UNL     1       2.148  12.712  19.903  0.00  0.00    +0.000 HD
ATOM     19  H   UNL     1       1.506  12.849  21.451  0.00  0.00    +0.000 HD
ENDBRANCH  11  17
ENDBRANCH   5  16
ENDBRANCH   1   8
BRANCH   2  20
ATOM     20  C   UNL     1       3.840   3.779  19.206  0.00  0.00    +0.000 C 
BRANCH  20  21
ATOM     21  C   UNL     1       4.141   3.348  17.772  0.00  0.00    +0.000 C 
BRANCH  21  22
ATOM     22  C   UNL     1       4.609   4.498  16.888  0.00  0.00    +0.000 C 
BRANCH  22  23
ATOM     23  C   UNL     1       5.455   4.024  15.706  0.00  0.00    +0.000 C 
BRANCH  23  24
ATOM     24  C   UNL     1       6.855   4.620  15.769  0.00  0.00    +0.000 C 
BRANCH  24  25
ATOM     25  C   UNL     1       7.409   4.584  17.191  0.00  0.00    +0.000 C 
BRANCH  25  26
ATOM     26  C   UNL     1       7.619   5.980  17.732  0.00  0.00    +0.000 C 
ATOM     27  O   UNL     1       7.814   6.249  18.914  0.00  0.00    +0.000 OA
ATOM     28  N   UNL     1       7.579   6.956  16.764  0.00  0.00    +0.000 N 
ATOM     29  H   UNL     1       7.131   6.827  15.864  0.00  0.00    +0.000 HD
BRANCH  28  30
ATOM     30  O   UNL     1       7.656   8.283  17.250  0.00  0.00    +0.000 OA
ATOM     31  H   UNL     1       6.868   8.337  17.840  0.00  0.00    +0.000 HD
ENDBRANCH  28  30
ENDBRANCH  25  26
ENDBRANCH  24  25
ENDBRANCH  23  24
ENDBRANCH  22  23
ENDBRANCH  21  22
ENDBRANCH  20  21
ENDBRANCH   2  20
TORSDOF 11
ENDMDL
MODEL 9
REMARK VINA RESULT:      -7.0      1.643      2.112
REMARK  Name = 
REMARK  11 active torsions:
REMARK  status: ('A' for Active; 'I' for Inactive)
REMARK    1  A    between atoms: N_1  and  C_2
REMARK    2  A    between atoms: C_7  and  C_8
REMARK    3  A    between atoms: C_11  and  N_12
REMARK    4  A    between atoms: C_13  and  C_15
REMARK    5  A    between atoms: C_15  and  C_16
REMARK    6  A    between atoms: C_16  and  C_17
REMARK    7  A    between atoms: C_17  and  C_18
REMARK    8  A    between atoms: C_18  and  C_19
REMARK    9  A    between atoms: C_19  and  C_20
REMARK   10  A    between atoms: C_20  and  C_21
REMARK   11  A    between atoms: N_23  and  O_24
REMARK                            x       y       z     vdW  Elec       q    Type
REMARK                         _______ _______ _______ _____ _____    ______ ____
ROOT
ATOM      1  N   UNL     1       3.071   5.786  19.494  0.00  0.00    +0.000 N 
ATOM      2  C   UNL     1       2.459   4.571  19.744  0.00  0.00    +0.000 C 
ATOM      3  O   UNL     1       1.259   4.369  19.915  0.00  0.00    +0.000 OA
ATOM      4  H   UNL     1       4.077   5.797  19.394  0.00  0.00    +0.000 HD
ENDROOT
BRANCH   1   8
ATOM      5  C   UNL     1       1.110   9.554  19.182  0.00  0.00    +0.000 A 
ATOM      6  C   UNL     1       1.658   8.925  18.057  0.00  0.00    +0.000 A 
ATOM      7  C   UNL     1       2.331   7.709  18.149  0.00  0.00    +0.000 A 
ATOM      8  C   UNL     1       2.413   7.022  19.358  0.00  0.00    +0.000 A 
ATOM      9  C   UNL     1       1.812   7.592  20.484  0.00  0.00    +0.000 A 
ATOM     10  C   UNL     1       1.184   8.846  20.397  0.00  0.00    +0.000 A 
BRANCH   5  16
ATOM     11  C   UNL     1       1.160  12.048  18.586  0.00  0.00    +0.000 A 
ATOM     12  C   UNL     1       0.455  13.251  18.423  0.00  0.00    +0.000 A 
ATOM     13  C   UNL     1      -0.866  13.377  18.843  0.00  0.00    +0.000 A 
ATOM     14  C   UNL     1      -1.523  12.280  19.381  0.00  0.00    +0.000 A 
ATOM     15  C   UNL     1      -0.865  11.055  19.480  0.00  0.00    +0.000 A 
ATOM     16  C   UNL     1       0.481  10.896  19.076  0.00  0.00    +0.000 A 
BRANCH  11  17
ATOM     17  N   UNL     1       2.469  11.998  18.059  0.00  0.00    +0.000 N 
ATOM     18  H   UNL     1       2.841  12.899  17.780  0.00  0.00    +0.000 HD
ATOM     19  H   UNL     1       3.118  11.488  18.652  0.00  0.00    +0.000 HD
ENDBRANCH  11  17
ENDBRANCH   5  16
ENDBRANCH   1   8
BRANCH   2  20
ATOM     20  C   UNL     1       3.415   3.407  19.794  0.00  0.00    +0.000 C 
BRANCH  20  21
ATOM     21  C   UNL     1       4.581   3.688  18.848  0.00  0.00    +0.000 C 
BRANCH  21  22
ATOM     22  C   UNL     1       4.300   3.266  17.411  0.00  0.00    +0.000 C 
BRANCH  22  23
ATOM     23  C   UNL     1       4.657   4.355  16.399  0.00  0.00    +0.000 C 
BRANCH  23  24
ATOM     24  C   UNL     1       5.656   3.834  15.374  0.00  0.00    +0.000 C 
BRANCH  24  25
ATOM     25  C   UNL     1       6.820   4.804  15.192  0.00  0.00    +0.000 C 
BRANCH  25  26
ATOM     26  C   UNL     1       7.417   5.198  16.524  0.00  0.00    +0.000 C 
ATOM     27  O   UNL     1       7.914   4.412  17.327  0.00  0.00    +0.000 OA
ATOM     28  N   UNL     1       7.365   6.549  16.770  0.00  0.00    +0.000 N 
ATOM     29  H   UNL     1       6.716   7.174  16.305  0.00  0.00    +0.000 HD
BRANCH  28  30
ATOM     30  O   UNL     1       7.810   6.940  18.055  0.00  0.00    +0.000 OA
ATOM     31  H   UNL     1       7.138   7.614  18.315  0.00  0.00    +0.000 HD
ENDBRANCH  28  30
ENDBRANCH  25  26
ENDBRANCH  24  25
ENDBRANCH  23  24
ENDBRANCH  22  23
ENDBRANCH  21  22
ENDBRANCH  20  21
ENDBRANCH   2  20
TORSDOF 11
ENDMDL
