MODEL 1
REMARK VINA RESULT:      -8.5      0.000      0.000
REMARK  Name = 
REMARK  9 active torsions:
REMARK  status: ('A' for Active; 'I' for Inactive)
REMARK    1  A    between atoms: C_1  and  O_2
REMARK    2  A    between atoms: O_2  and  C_3
REMARK    3  A    between atoms: C_6  and  C_7
REMARK    4  A    between atoms: C_7  and  O_9
REMARK    5  A    between atoms: C_11  and  N_12
REMARK    6  A    between atoms: N_12  and  C_13
REMARK    7  A    between atoms: C_13  and  N_15
REMARK    8  A    between atoms: C_16  and  C_18
REMARK    9  A    between atoms: C_21  and  C_22
REMARK                            x       y       z     vdW  Elec       q    Type
REMARK                         _______ _______ _______ _____ _____    ______ ____
ROOT
ATOM      1  C   UNL     1       3.327   3.613  17.783  0.00  0.00    +0.000 C 
ATOM      2  S   UNL     1       2.079   2.569  18.181  0.00  0.00    +0.000 S 
ENDROOT
BRANCH   1   3
ATOM      3  N   UNL     1       3.068   4.969  17.824  0.00  0.00    +0.000 N 
ATOM      4  C   UNL     1       3.377   5.848  18.844  0.00  0.00    +0.000 C 
ATOM      5  O   UNL     1       4.186   5.567  19.732  0.00  0.00    +0.000 OA
ATOM      6  H   UNL     1       2.481   5.323  17.076  0.00  0.00    +0.000 HD
BRANCH   4   7
ATOM      7  C   UNL     1       2.718   7.130  18.774  0.00  0.00    +0.000 A 
ATOM      8  C   UNL     1       2.662   8.033  17.733  0.00  0.00    +0.000 A 
ATOM      9  C   UNL     1       1.892   9.124  18.187  0.00  0.00    +0.000 A 
ATOM     10  C   UNL     1       1.515   8.836  19.486  0.00  0.00    +0.000 A 
ATOM     11  O   UNL     1       2.028   7.618  19.850  0.00  0.00    +0.000 OA
BRANCH  10  12
ATOM     12  C   UNL     1       0.693   9.531  20.473  0.00  0.00    +0.000 A 
ATOM     13  C   UNL     1       0.079  10.754  20.151  0.00  0.00    +0.000 A 
ATOM     14  C   UNL     1      -0.756  11.406  21.065  0.00  0.00    +0.000 A 
ATOM     15  C   UNL     1      -0.980  10.841  22.317  0.00  0.00    +0.000 A 
ATOM     16 CL   UNL     1      -2.031  11.624  23.431  0.00  0.00    +0.000 Cl
ATOM     17  C   UNL     1      -0.366   9.644  22.667  0.00  0.00    +0.000 A 
ATOM     18  C   UNL     1       0.467   8.993  21.750  0.00  0.00    +0.000 A 
ENDBRANCH  10  12
ENDBRANCH   4   7
ENDBRANCH   1   3
BRANCH   1  19
ATOM     19  N   UNL     1       4.603   3.274  17.390  0.00  0.00    +0.000 N 
ATOM     20  H   UNL     1       5.010   2.468  17.866  0.00  0.00    +0.000 HD
BRANCH  19  26
ATOM     21  C   UNL     1       6.582   4.608  16.803  0.00  0.00    +0.000 A 
ATOM     22  C   UNL     1       7.444   5.081  15.803  0.00  0.00    +0.000 A 
ATOM     23  C   UNL     1       7.204   4.811  14.454  0.00  0.00    +0.000 A 
ATOM     24  C   UNL     1       6.102   4.040  14.085  0.00  0.00    +0.000 A 
ATOM     25  C   UNL     1       5.231   3.573  15.075  0.00  0.00    +0.000 A 
ATOM     26  C   UNL     1       5.440   3.876  16.429  0.00  0.00    +0.000 A 
BRANCH  21  28
ATOM     27  C   UNL     1       7.416   6.218  18.374  0.00  0.00    +0.000 C 
ATOM     28  O   UNL     1       7.027   4.886  18.067  0.00  0.00    +0.000 OA
ENDBRANCH  21  28
BRANCH  24  29
ATOM     29  C   UNL     1       5.959   3.648  12.657  0.00  0.00    +0.000 C 
ATOM     30  O   UNL     1       6.919   3.489  11.923  0.00  0.00    +0.000 OA
BRANCH  29  31
ATOM     31  O   UNL     1       4.685   3.493  12.238  0.00  0.00    +0.000 OA
ATOM     32  H   UNL     1       4.304   2.604  12.355  0.00  0.00    +0.000 HD
ENDBRANCH  29  31
ENDBRANCH  24  29
ENDBRANCH  19  26
ENDBRANCH   1  19
TORSDOF 8
ENDMDL
MODEL 2
REMARK VINA RESULT:      -8.2      1.102      3.171
REMARK  Name = 
REMARK  9 active torsions:
REMARK  status: ('A' for Active; 'I' for Inactive)
REMARK    1  A    between atoms: C_1  and  O_2
REMARK    2  A    between atoms: O_2  and  C_3
REMARK    3  A    between atoms: C_6  and  C_7
REMARK    4  A    between atoms: C_7  and  O_9
REMARK    5  A    between atoms: C_11  and  N_12
REMARK    6  A    between atoms: N_12  and  C_13
REMARK    7  A    between atoms: C_13  and  N_15
REMARK    8  A    between atoms: C_16  and  C_18
REMARK    9  A    between atoms: C_21  and  C_22
REMARK                            x       y       z     vdW  Elec       q    Type
REMARK                         _______ _______ _______ _____ _____    ______ ____
ROOT
ATOM      1  C   UNL     1       2.906   3.727  17.811  0.00  0.00    +0.000 C 
ATOM      2  S   UNL     1       1.674   2.744  18.377  0.00  0.00    +0.000 S 
ENDROOT
BRANCH   1   3
ATOM      3  N   UNL     1       2.742   5.093  17.927  0.00  0.00    +0.000 N 
ATOM      4  C   UNL     1       2.827   5.850  19.081  0.00  0.00    +0.000 C 
ATOM      5  O   UNL     1       3.345   5.417  20.114  0.00  0.00    +0.000 OA
ATOM      6  H   UNL     1       2.405   5.564  17.094  0.00  0.00    +0.000 HD
BRANCH   4   7
ATOM      7  C   UNL     1       2.304   7.190  18.978  0.00  0.00    +0.000 A 
ATOM      8  C   UNL     1       2.379   8.085  17.932  0.00  0.00    +0.000 A 
ATOM      9  C   UNL     1       1.706   9.252  18.350  0.00  0.00    +0.000 A 
ATOM     10  C   UNL     1       1.252   9.015  19.635  0.00  0.00    +0.000 A 
ATOM     11  O   UNL     1       1.626   7.755  20.025  0.00  0.00    +0.000 OA
BRANCH  10  12
ATOM     12  C   UNL     1       0.468   9.799  20.586  0.00  0.00    +0.000 A 
ATOM     13  C   UNL     1      -0.205  10.958  20.165  0.00  0.00    +0.000 A 
ATOM     14  C   UNL     1      -1.005  11.690  21.049  0.00  0.00    +0.000 A 
ATOM     15  C   UNL     1      -1.135  11.269  22.369  0.00  0.00    +0.000 A 
ATOM     16 CL   UNL     1      -2.144  12.148  23.451  0.00  0.00    +0.000 Cl
ATOM     17  C   UNL     1      -0.461  10.138  22.814  0.00  0.00    +0.000 A 
ATOM     18  C   UNL     1       0.338   9.407  21.927  0.00  0.00    +0.000 A 
ENDBRANCH  10  12
ENDBRANCH   4   7
ENDBRANCH   1   3
BRANCH   1  19
ATOM     19  N   UNL     1       4.080   3.329  17.210  0.00  0.00    +0.000 N 
ATOM     20  H   UNL     1       4.080   2.381  16.831  0.00  0.00    +0.000 HD
BRANCH  19  26
ATOM     21  C   UNL     1       5.721   4.456  15.770  0.00  0.00    +0.000 A 
ATOM     22  C   UNL     1       6.869   5.256  15.673  0.00  0.00    +0.000 A 
ATOM     23  C   UNL     1       7.565   5.662  16.814  0.00  0.00    +0.000 A 
ATOM     24  C   UNL     1       7.108   5.288  18.077  0.00  0.00    +0.000 A 
ATOM     25  C   UNL     1       5.970   4.482  18.182  0.00  0.00    +0.000 A 
ATOM     26  C   UNL     1       5.289   4.032  17.040  0.00  0.00    +0.000 A 
BRANCH  21  28
ATOM     27  C   UNL     1       5.918   3.800  13.470  0.00  0.00    +0.000 C 
ATOM     28  O   UNL     1       5.118   4.239  14.560  0.00  0.00    +0.000 OA
ENDBRANCH  21  28
BRANCH  24  29
ATOM     29  C   UNL     1       7.786   5.859  19.272  0.00  0.00    +0.000 C 
ATOM     30  O   UNL     1       7.726   5.335  20.371  0.00  0.00    +0.000 OA
BRANCH  29  31
ATOM     31  O   UNL     1       8.462   7.005  19.044  0.00  0.00    +0.000 OA
ATOM     32  H   UNL     1       8.248   7.750  19.634  0.00  0.00    +0.000 HD
ENDBRANCH  29  31
ENDBRANCH  24  29
ENDBRANCH  19  26
ENDBRANCH   1  19
TORSDOF 8
ENDMDL
MODEL 3
REMARK VINA RESULT:      -8.2      0.643      1.128
REMARK  Name = 
REMARK  9 active torsions:
REMARK  status: ('A' for Active; 'I' for Inactive)
REMARK    1  A    between atoms: C_1  and  O_2
REMARK    2  A    between atoms: O_2  and  C_3
REMARK    3  A    between atoms: C_6  and  C_7
REMARK    4  A    between atoms: C_7  and  O_9
REMARK    5  A    between atoms: C_11  and  N_12
REMARK    6  A    between atoms: N_12  and  C_13
REMARK    7  A    between atoms: C_13  and  N_15
REMARK    8  A    between atoms: C_16  and  C_18
REMARK    9  A    between atoms: C_21  and  C_22
REMARK                            x       y       z     vdW  Elec       q    Type
REMARK                         _______ _______ _______ _____ _____    ______ ____
ROOT
ATOM      1  C   UNL     1       4.024   3.775  17.502  0.00  0.00    +0.000 C 
ATOM      2  S   UNL     1       2.886   2.604  17.877  0.00  0.00    +0.000 S 
ENDROOT
BRANCH   1   3
ATOM      3  N   UNL     1       3.666   5.097  17.676  0.00  0.00    +0.000 N 
ATOM      4  C   UNL     1       3.461   5.757  18.873  0.00  0.00    +0.000 C 
ATOM      5  O   UNL     1       3.857   5.303  19.950  0.00  0.00    +0.000 OA
ATOM      6  H   UNL     1       3.409   5.594  16.829  0.00  0.00    +0.000 HD
BRANCH   4   7
ATOM      7  C   UNL     1       2.791   7.030  18.768  0.00  0.00    +0.000 A 
ATOM      8  C   UNL     1       2.763   7.925  17.719  0.00  0.00    +0.000 A 
ATOM      9  C   UNL     1       1.964   9.010  18.136  0.00  0.00    +0.000 A 
ATOM     10  C   UNL     1       1.542   8.727  19.422  0.00  0.00    +0.000 A 
ATOM     11  O   UNL     1       2.056   7.517  19.814  0.00  0.00    +0.000 OA
BRANCH  10  12
ATOM     12  C   UNL     1       0.675   9.419  20.372  0.00  0.00    +0.000 A 
ATOM     13  C   UNL     1       0.615   9.001  21.712  0.00  0.00    +0.000 A 
ATOM     14  C   UNL     1      -0.167   9.687  22.648  0.00  0.00    +0.000 A 
ATOM     15  C   UNL     1      -0.903  10.798  22.248  0.00  0.00    +0.000 A 
ATOM     16 CL   UNL     1      -1.840  11.664  23.403  0.00  0.00    +0.000 Cl
ATOM     17  C   UNL     1      -0.877  11.217  20.922  0.00  0.00    +0.000 A 
ATOM     18  C   UNL     1      -0.092  10.530  19.989  0.00  0.00    +0.000 A 
ENDBRANCH  10  12
ENDBRANCH   4   7
ENDBRANCH   1   3
BRANCH   1  19
ATOM     19  N   UNL     1       5.295   3.574  17.010  0.00  0.00    +0.000 N 
ATOM     20  H   UNL     1       5.909   3.007  17.596  0.00  0.00    +0.000 HD
BRANCH  19  26
ATOM     21  C   UNL     1       6.984   4.913  15.830  0.00  0.00    +0.000 A 
ATOM     22  C   UNL     1       7.605   5.245  14.617  0.00  0.00    +0.000 A 
ATOM     23  C   UNL     1       7.168   4.698  13.408  0.00  0.00    +0.000 A 
ATOM     24  C   UNL     1       6.110   3.789  13.398  0.00  0.00    +0.000 A 
ATOM     25  C   UNL     1       5.479   3.460  14.603  0.00  0.00    +0.000 A 
ATOM     26  C   UNL     1       5.883   4.037  15.816  0.00  0.00    +0.000 A 
BRANCH  21  28
ATOM     27  C   UNL     1       7.138   6.716  17.407  0.00  0.00    +0.000 C 
ATOM     28  O   UNL     1       7.606   5.465  16.917  0.00  0.00    +0.000 OA
ENDBRANCH  21  28
BRANCH  24  29
ATOM     29  C   UNL     1       5.769   3.116  12.117  0.00  0.00    +0.000 C 
ATOM     30  O   UNL     1       6.565   2.420  11.510  0.00  0.00    +0.000 OA
BRANCH  29  31
ATOM     31  O   UNL     1       4.513   3.343  11.676  0.00  0.00    +0.000 OA
ATOM     32  H   UNL     1       3.811   2.818  12.102  0.00  0.00    +0.000 HD
ENDBRANCH  29  31
ENDBRANCH  24  29
ENDBRANCH  19  26
ENDBRANCH   1  19
TORSDOF 8
ENDMDL
MODEL 4
REMARK VINA RESULT:      -8.0      0.592      1.201
REMARK  Name = 
REMARK  9 active torsions:
REMARK  status: ('A' for Active; 'I' for Inactive)
REMARK    1  A    between atoms: C_1  and  O_2
REMARK    2  A    between atoms: O_2  and  C_3
REMARK    3  A    between atoms: C_6  and  C_7
REMARK    4  A    between atoms: C_7  and  O_9
REMARK    5  A    between atoms: C_11  and  N_12
REMARK    6  A    between atoms: N_12  and  C_13
REMARK    7  A    between atoms: C_13  and  N_15
REMARK    8  A    between atoms: C_16  and  C_18
REMARK    9  A    between atoms: C_21  and  C_22
REMARK                            x       y       z     vdW  Elec       q    Type
REMARK                         _______ _______ _______ _____ _____    ______ ____
ROOT
ATOM      1  C   UNL     1       3.187   3.453  17.938  0.00  0.00    +0.000 C 
ATOM      2  S   UNL     1       1.889   2.498  18.395  0.00  0.00    +0.000 S 
ENDROOT
BRANCH   1   3
ATOM      3  N   UNL     1       3.042   4.823  18.036  0.00  0.00    +0.000 N 
ATOM      4  C   UNL     1       2.899   5.567  19.191  0.00  0.00    +0.000 C 
ATOM      5  O   UNL     1       3.171   5.111  20.305  0.00  0.00    +0.000 OA
ATOM      6  H   UNL     1       2.904   5.311  17.157  0.00  0.00    +0.000 HD
BRANCH   4   7
ATOM      7  C   UNL     1       2.450   6.924  18.999  0.00  0.00    +0.000 A 
ATOM      8  C   UNL     1       2.582   7.746  17.900  0.00  0.00    +0.000 A 
ATOM      9  C   UNL     1       1.969   8.971  18.236  0.00  0.00    +0.000 A 
ATOM     10  C   UNL     1       1.492   8.840  19.527  0.00  0.00    +0.000 A 
ATOM     11  O   UNL     1       1.795   7.589  20.000  0.00  0.00    +0.000 OA
BRANCH  10  12
ATOM     12  C   UNL     1       0.743   9.723  20.418  0.00  0.00    +0.000 A 
ATOM     13  C   UNL     1       0.311   9.263  21.673  0.00  0.00    +0.000 A 
ATOM     14  C   UNL     1      -0.360  10.112  22.561  0.00  0.00    +0.000 A 
ATOM     15  C   UNL     1      -0.610  11.431  22.197  0.00  0.00    +0.000 A 
ATOM     16 CL   UNL     1      -1.405  12.486  23.299  0.00  0.00    +0.000 Cl
ATOM     17  C   UNL     1      -0.212  11.902  20.951  0.00  0.00    +0.000 A 
ATOM     18  C   UNL     1       0.460  11.051  20.066  0.00  0.00    +0.000 A 
ENDBRANCH  10  12
ENDBRANCH   4   7
ENDBRANCH   1   3
BRANCH   1  19
ATOM     19  N   UNL     1       4.400   3.029  17.443  0.00  0.00    +0.000 N 
ATOM     20  H   UNL     1       4.674   2.081  17.705  0.00  0.00    +0.000 HD
BRANCH  19  26
ATOM     21  C   UNL     1       6.453   4.352  17.176  0.00  0.00    +0.000 A 
ATOM     22  C   UNL     1       7.408   4.907  16.311  0.00  0.00    +0.000 A 
ATOM     23  C   UNL     1       7.274   4.801  14.925  0.00  0.00    +0.000 A 
ATOM     24  C   UNL     1       6.188   4.117  14.381  0.00  0.00    +0.000 A 
ATOM     25  C   UNL     1       5.226   3.569  15.237  0.00  0.00    +0.000 A 
ATOM     26  C   UNL     1       5.328   3.707  16.629  0.00  0.00    +0.000 A 
BRANCH  21  28
ATOM     27  C   UNL     1       6.499   5.680  19.175  0.00  0.00    +0.000 C 
ATOM     28  O   UNL     1       6.798   4.466  18.496  0.00  0.00    +0.000 OA
ENDBRANCH  21  28
BRANCH  24  29
ATOM     29  C   UNL     1       6.155   3.897  12.910  0.00  0.00    +0.000 C 
ATOM     30  O   UNL     1       5.235   3.321  12.355  0.00  0.00    +0.000 OA
BRANCH  29  31
ATOM     31  O   UNL     1       7.226   4.377  12.243  0.00  0.00    +0.000 OA
ATOM     32  H   UNL     1       7.236   4.219  11.282  0.00  0.00    +0.000 HD
ENDBRANCH  29  31
ENDBRANCH  24  29
ENDBRANCH  19  26
ENDBRANCH   1  19
TORSDOF 8
ENDMDL
MODEL 5
REMARK VINA RESULT:      -7.9      1.056      1.207
REMARK  Name = 
REMARK  9 active torsions:
REMARK  status: ('A' for Active; 'I' for Inactive)
REMARK    1  A    between atoms: C_1  and  O_2
REMARK    2  A    between atoms: O_2  and  C_3
REMARK    3  A    between atoms: C_6  and  C_7
REMARK    4  A    between atoms: C_7  and  O_9
REMARK    5  A    between atoms: C_11  and  N_12
REMARK    6  A    between atoms: N_12  and  C_13
REMARK    7  A    between atoms: C_13  and  N_15
REMARK    8  A    between atoms: C_16  and  C_18
REMARK    9  A    between atoms: C_21  and  C_22
REMARK                            x       y       z     vdW  Elec       q    Type
REMARK                         _______ _______ _______ _____ _____    ______ ____
ROOT
ATOM      1  C   UNL     1       4.289   3.257  18.852  0.00  0.00    +0.000 C 
ATOM      2  S   UNL     1       4.465   2.303  20.217  0.00  0.00    +0.000 S 
ENDROOT
BRANCH   1   3
ATOM      3  N   UNL     1       3.737   4.513  19.013  0.00  0.00    +0.000 N 
ATOM      4  C   UNL     1       2.639   5.034  18.357  0.00  0.00    +0.000 C 
ATOM      5  O   UNL     1       1.841   4.321  17.742  0.00  0.00    +0.000 OA
ATOM      6  H   UNL     1       4.276   5.155  19.586  0.00  0.00    +0.000 HD
BRANCH   4   7
ATOM      7  C   UNL     1       2.470   6.462  18.475  0.00  0.00    +0.000 A 
ATOM      8  C   UNL     1       2.959   7.474  17.676  0.00  0.00    +0.000 A 
ATOM      9  C   UNL     1       2.502   8.686  18.235  0.00  0.00    +0.000 A 
ATOM     10  C   UNL     1       1.755   8.356  19.351  0.00  0.00    +0.000 A 
ATOM     11  O   UNL     1       1.742   6.993  19.505  0.00  0.00    +0.000 OA
BRANCH  10  12
ATOM     12  C   UNL     1       0.995   9.140  20.322  0.00  0.00    +0.000 A 
ATOM     13  C   UNL     1       0.216  10.230  19.898  0.00  0.00    +0.000 A 
ATOM     14  C   UNL     1      -0.561  10.958  20.806  0.00  0.00    +0.000 A 
ATOM     15  C   UNL     1      -0.561  10.604  22.151  0.00  0.00    +0.000 A 
ATOM     16 CL   UNL     1      -1.540  11.476  23.265  0.00  0.00    +0.000 Cl
ATOM     17  C   UNL     1       0.220   9.544  22.598  0.00  0.00    +0.000 A 
ATOM     18  C   UNL     1       0.995   8.816  21.687  0.00  0.00    +0.000 A 
ENDBRANCH  10  12
ENDBRANCH   4   7
ENDBRANCH   1   3
BRANCH   1  19
ATOM     19  N   UNL     1       4.613   2.924  17.555  0.00  0.00    +0.000 N 
ATOM     20  H   UNL     1       4.235   2.037  17.221  0.00  0.00    +0.000 HD
BRANCH  19  26
ATOM     21  C   UNL     1       6.498   4.404  17.009  0.00  0.00    +0.000 A 
ATOM     22  C   UNL     1       7.313   4.979  16.023  0.00  0.00    +0.000 A 
ATOM     23  C   UNL     1       7.065   4.763  14.666  0.00  0.00    +0.000 A 
ATOM     24  C   UNL     1       6.005   3.948  14.273  0.00  0.00    +0.000 A 
ATOM     25  C   UNL     1       5.182   3.378  15.250  0.00  0.00    +0.000 A 
ATOM     26  C   UNL     1       5.395   3.624  16.615  0.00  0.00    +0.000 A 
BRANCH  21  28
ATOM     27  C   UNL     1       7.518   5.912  18.573  0.00  0.00    +0.000 C 
ATOM     28  O   UNL     1       6.948   4.643  18.280  0.00  0.00    +0.000 OA
ENDBRANCH  21  28
BRANCH  24  29
ATOM     29  C   UNL     1       5.861   3.621  12.829  0.00  0.00    +0.000 C 
ATOM     30  O   UNL     1       4.788   3.664  12.252  0.00  0.00    +0.000 OA
BRANCH  29  31
ATOM     31  O   UNL     1       7.009   3.267  12.213  0.00  0.00    +0.000 OA
ATOM     32  H   UNL     1       7.599   3.999  11.958  0.00  0.00    +0.000 HD
ENDBRANCH  29  31
ENDBRANCH  24  29
ENDBRANCH  19  26
ENDBRANCH   1  19
TORSDOF 8
ENDMDL
MODEL 6
REMARK VINA RESULT:      -7.7      4.492      7.626
REMARK  Name = 
REMARK  9 active torsions:
REMARK  status: ('A' for Active; 'I' for Inactive)
REMARK    1  A    between atoms: C_1  and  O_2
REMARK    2  A    between atoms: O_2  and  C_3
REMARK    3  A    between atoms: C_6  and  C_7
REMARK    4  A    between atoms: C_7  and  O_9
REMARK    5  A    between atoms: C_11  and  N_12
REMARK    6  A    between atoms: N_12  and  C_13
REMARK    7  A    between atoms: C_13  and  N_15
REMARK    8  A    between atoms: C_16  and  C_18
REMARK    9  A    between atoms: C_21  and  C_22
REMARK                            x       y       z     vdW  Elec       q    Type
REMARK                         _______ _______ _______ _____ _____    ______ ____
ROOT
ATOM      1  C   UNL     1       5.077   4.480  16.549  0.00  0.00    +0.000 C 
ATOM      2  S   UNL     1       5.815   3.729  15.246  0.00  0.00    +0.000 S 
ENDROOT
BRANCH   1   3
ATOM      3  N   UNL     1       5.790   5.457  17.215  0.00  0.00    +0.000 N 
ATOM      4  C   UNL     1       6.088   6.728  16.764  0.00  0.00    +0.000 C 
ATOM      5  O   UNL     1       5.500   7.241  15.808  0.00  0.00    +0.000 OA
ATOM      6  H   UNL     1       6.241   5.158  18.074  0.00  0.00    +0.000 HD
BRANCH   4   7
ATOM      7  C   UNL     1       7.105   7.426  17.513  0.00  0.00    +0.000 A 
ATOM      8  C   UNL     1       7.960   6.952  18.485  0.00  0.00    +0.000 A 
ATOM      9  C   UNL     1       8.752   8.046  18.893  0.00  0.00    +0.000 A 
ATOM     10  C   UNL     1       8.342   9.137  18.150  0.00  0.00    +0.000 A 
ATOM     11  O   UNL     1       7.326   8.761  17.310  0.00  0.00    +0.000 OA
BRANCH  10  12
ATOM     12  C   UNL     1       8.784  10.528  18.075  0.00  0.00    +0.000 A 
ATOM     13  C   UNL     1      10.071  10.887  18.511  0.00  0.00    +0.000 A 
ATOM     14  C   UNL     1      10.531  12.203  18.395  0.00  0.00    +0.000 A 
ATOM     15  C   UNL     1       9.702  13.176  17.846  0.00  0.00    +0.000 A 
ATOM     16 CL   UNL     1      10.276  14.789  17.672  0.00  0.00    +0.000 Cl
ATOM     17  C   UNL     1       8.416  12.850  17.429  0.00  0.00    +0.000 A 
ATOM     18  C   UNL     1       7.960  11.532  17.545  0.00  0.00    +0.000 A 
ENDBRANCH  10  12
ENDBRANCH   4   7
ENDBRANCH   1   3
BRANCH   1  19
ATOM     19  N   UNL     1       3.825   4.219  17.061  0.00  0.00    +0.000 N 
ATOM     20  H   UNL     1       3.191   3.717  16.438  0.00  0.00    +0.000 HD
BRANCH  19  26
ATOM     21  C   UNL     1       2.613   5.762  18.540  0.00  0.00    +0.000 A 
ATOM     22  C   UNL     1       1.986   5.981  19.775  0.00  0.00    +0.000 A 
ATOM     23  C   UNL     1       1.987   5.000  20.769  0.00  0.00    +0.000 A 
ATOM     24  C   UNL     1       2.602   3.771  20.534  0.00  0.00    +0.000 A 
ATOM     25  C   UNL     1       3.239   3.549  19.308  0.00  0.00    +0.000 A 
ATOM     26  C   UNL     1       3.281   4.543  18.319  0.00  0.00    +0.000 A 
BRANCH  21  28
ATOM     27  C   UNL     1       2.659   8.121  18.102  0.00  0.00    +0.000 C 
ATOM     28  O   UNL     1       2.426   6.791  17.656  0.00  0.00    +0.000 OA
ENDBRANCH  21  28
BRANCH  24  29
ATOM     29  C   UNL     1       2.457   2.700  21.556  0.00  0.00    +0.000 C 
ATOM     30  O   UNL     1       1.410   2.495  22.145  0.00  0.00    +0.000 OA
BRANCH  29  31
ATOM     31  O   UNL     1       3.577   1.982  21.784  0.00  0.00    +0.000 OA
ATOM     32  H   UNL     1       4.280   2.435  22.284  0.00  0.00    +0.000 HD
ENDBRANCH  29  31
ENDBRANCH  24  29
ENDBRANCH  19  26
ENDBRANCH   1  19
TORSDOF 8
ENDMDL
MODEL 7
REMARK VINA RESULT:      -7.5      1.733      3.358
REMARK  Name = 
REMARK  9 active torsions:
REMARK  status: ('A' for Active; 'I' for Inactive)
REMARK    1  A    between atoms: C_1  and  O_2
REMARK    2  A    between atoms: O_2  and  C_3
REMARK    3  A    between atoms: C_6  and  C_7
REMARK    4  A    between atoms: C_7  and  O_9
REMARK    5  A    between atoms: C_11  and  N_12
REMARK    6  A    between atoms: N_12  and  C_13
REMARK    7  A    between atoms: C_13  and  N_15
REMARK    8  A    between atoms: C_16  and  C_18
REMARK    9  A    between atoms: C_21  and  C_22
REMARK                            x       y       z     vdW  Elec       q    Type
REMARK                         _______ _______ _______ _____ _____    ______ ____
ROOT
ATOM      1  C   UNL     1       4.661   3.793  19.460  0.00  0.00    +0.000 C 
ATOM      2  S   UNL     1       3.893   2.394  19.968  0.00  0.00    +0.000 S 
ENDROOT
BRANCH   1   3
ATOM      3  N   UNL     1       3.919   4.957  19.425  0.00  0.00    +0.000 N 
ATOM      4  C   UNL     1       3.073   5.379  18.417  0.00  0.00    +0.000 C 
ATOM      5  O   UNL     1       2.663   4.613  17.540  0.00  0.00    +0.000 OA
ATOM      6  H   UNL     1       4.115   5.623  20.166  0.00  0.00    +0.000 HD
BRANCH   4   7
ATOM      7  C   UNL     1       2.673   6.763  18.486  0.00  0.00    +0.000 A 
ATOM      8  C   UNL     1       2.915   7.793  17.600  0.00  0.00    +0.000 A 
ATOM      9  C   UNL     1       2.305   8.943  18.144  0.00  0.00    +0.000 A 
ATOM     10  C   UNL     1       1.721   8.561  19.337  0.00  0.00    +0.000 A 
ATOM     11  O   UNL     1       1.954   7.228  19.553  0.00  0.00    +0.000 OA
BRANCH  10  12
ATOM     12  C   UNL     1       0.922   9.266  20.337  0.00  0.00    +0.000 A 
ATOM     13  C   UNL     1       0.518  10.593  20.115  0.00  0.00    +0.000 A 
ATOM     14  C   UNL     1      -0.294  11.264  21.036  0.00  0.00    +0.000 A 
ATOM     15  C   UNL     1      -0.706  10.613  22.194  0.00  0.00    +0.000 A 
ATOM     16 CL   UNL     1      -1.730  11.423  23.313  0.00  0.00    +0.000 Cl
ATOM     17  C   UNL     1      -0.300   9.307  22.447  0.00  0.00    +0.000 A 
ATOM     18  C   UNL     1       0.511   8.638  21.522  0.00  0.00    +0.000 A 
ENDBRANCH  10  12
ENDBRANCH   4   7
ENDBRANCH   1   3
BRANCH   1  19
ATOM     19  N   UNL     1       5.968   3.922  19.043  0.00  0.00    +0.000 N 
ATOM     20  H   UNL     1       6.631   3.276  19.471  0.00  0.00    +0.000 HD
BRANCH  19  26
ATOM     21  C   UNL     1       6.367   4.640  16.727  0.00  0.00    +0.000 A 
ATOM     22  C   UNL     1       6.847   5.626  15.852  0.00  0.00    +0.000 A 
ATOM     23  C   UNL     1       7.453   6.787  16.336  0.00  0.00    +0.000 A 
ATOM     24  C   UNL     1       7.570   6.990  17.710  0.00  0.00    +0.000 A 
ATOM     25  C   UNL     1       7.103   6.007  18.589  0.00  0.00    +0.000 A 
ATOM     26  C   UNL     1       6.532   4.817  18.113  0.00  0.00    +0.000 A 
BRANCH  21  28
ATOM     27  C   UNL     1       5.685   3.631  14.659  0.00  0.00    +0.000 C 
ATOM     28  O   UNL     1       5.719   3.622  16.081  0.00  0.00    +0.000 OA
ENDBRANCH  21  28
BRANCH  24  29
ATOM     29  C   UNL     1       8.085   8.301  18.191  0.00  0.00    +0.000 C 
ATOM     30  O   UNL     1       8.925   8.392  19.069  0.00  0.00    +0.000 OA
BRANCH  29  31
ATOM     31  O   UNL     1       7.543   9.377  17.583  0.00  0.00    +0.000 OA
ATOM     32  H   UNL     1       6.897   9.189  16.879  0.00  0.00    +0.000 HD
ENDBRANCH  29  31
ENDBRANCH  24  29
ENDBRANCH  19  26
ENDBRANCH   1  19
TORSDOF 8
ENDMDL
MODEL 8
REMARK VINA RESULT:      -7.4      2.575      4.151
REMARK  Name = 
REMARK  9 active torsions:
REMARK  status: ('A' for Active; 'I' for Inactive)
REMARK    1  A    between atoms: C_1  and  O_2
REMARK    2  A    between atoms: O_2  and  C_3
REMARK    3  A    between atoms: C_6  and  C_7
REMARK    4  A    between atoms: C_7  and  O_9
REMARK    5  A    between atoms: C_11  and  N_12
REMARK    6  A    between atoms: N_12  and  C_13
REMARK    7  A    between atoms: C_13  and  N_15
REMARK    8  A    between atoms: C_16  and  C_18
REMARK    9  A    between atoms: C_21  and  C_22
REMARK                            x       y       z     vdW  Elec       q    Type
REMARK                         _______ _______ _______ _____ _____    ______ ____
ROOT
ATOM      1  C   UNL     1       2.628   5.263  20.772  0.00  0.00    +0.000 C 
ATOM      2  S   UNL     1       2.087   3.833  21.455  0.00  0.00    +0.000 S 
ENDROOT
BRANCH   1   3
ATOM      3  N   UNL     1       1.849   6.391  20.941  0.00  0.00    +0.000 N 
ATOM      4  C   UNL     1       1.819   7.514  20.138  0.00  0.00    +0.000 C 
ATOM      5  O   UNL     1       2.292   7.520  18.998  0.00  0.00    +0.000 OA
ATOM      6  H   UNL     1       1.338   6.441  21.817  0.00  0.00    +0.000 HD
BRANCH   4   7
ATOM      7  C   UNL     1       1.161   8.664  20.709  0.00  0.00    +0.000 A 
ATOM      8  C   UNL     1       0.589   8.820  21.954  0.00  0.00    +0.000 A 
ATOM      9  C   UNL     1       0.084  10.137  22.004  0.00  0.00    +0.000 A 
ATOM     10  C   UNL     1       0.372  10.723  20.785  0.00  0.00    +0.000 A 
ATOM     11  O   UNL     1       1.024   9.818  19.987  0.00  0.00    +0.000 OA
BRANCH  10  12
ATOM     12  C   UNL     1       0.152  12.057  20.233  0.00  0.00    +0.000 A 
ATOM     13  C   UNL     1       0.499  13.198  20.976  0.00  0.00    +0.000 A 
ATOM     14  C   UNL     1       0.347  14.482  20.441  0.00  0.00    +0.000 A 
ATOM     15  C   UNL     1      -0.161  14.637  19.155  0.00  0.00    +0.000 A 
ATOM     16 CL   UNL     1      -0.320  16.212  18.482  0.00  0.00    +0.000 Cl
ATOM     17  C   UNL     1      -0.533  13.523  18.409  0.00  0.00    +0.000 A 
ATOM     18  C   UNL     1      -0.377  12.240  18.946  0.00  0.00    +0.000 A 
ENDBRANCH  10  12
ENDBRANCH   4   7
ENDBRANCH   1   3
BRANCH   1  19
ATOM     19  N   UNL     1       3.771   5.451  20.027  0.00  0.00    +0.000 N 
ATOM     20  H   UNL     1       4.439   6.122  20.408  0.00  0.00    +0.000 HD
BRANCH  19  26
ATOM     21  C   UNL     1       3.215   4.322  17.916  0.00  0.00    +0.000 A 
ATOM     22  C   UNL     1       3.648   3.853  16.667  0.00  0.00    +0.000 A 
ATOM     23  C   UNL     1       4.989   3.939  16.288  0.00  0.00    +0.000 A 
ATOM     24  C   UNL     1       5.920   4.518  17.151  0.00  0.00    +0.000 A 
ATOM     25  C   UNL     1       5.498   4.979  18.402  0.00  0.00    +0.000 A 
ATOM     26  C   UNL     1       4.161   4.857  18.810  0.00  0.00    +0.000 A 
BRANCH  21  28
ATOM     27  C   UNL     1       1.255   2.961  18.175  0.00  0.00    +0.000 C 
ATOM     28  O   UNL     1       1.857   4.245  18.074  0.00  0.00    +0.000 OA
ENDBRANCH  21  28
BRANCH  24  29
ATOM     29  C   UNL     1       7.307   4.727  16.657  0.00  0.00    +0.000 C 
ATOM     30  O   UNL     1       7.561   5.440  15.701  0.00  0.00    +0.000 OA
BRANCH  29  31
ATOM     31  O   UNL     1       8.258   4.060  17.345  0.00  0.00    +0.000 OA
ATOM     32  H   UNL     1       8.211   4.131  18.315  0.00  0.00    +0.000 HD
ENDBRANCH  29  31
ENDBRANCH  24  29
ENDBRANCH  19  26
ENDBRANCH   1  19
TORSDOF 8
ENDMDL
MODEL 9
REMARK VINA RESULT:      -7.4      4.880      9.683
REMARK  Name = 
REMARK  9 active torsions:
REMARK  status: ('A' for Active; 'I' for Inactive)
REMARK    1  A    between atoms: C_1  and  O_2
REMARK    2  A    between atoms: O_2  and  C_3
REMARK    3  A    between atoms: C_6  and  C_7
REMARK    4  A    between atoms: C_7  and  O_9
REMARK    5  A    between atoms: C_11  and  N_12
REMARK    6  A    between atoms: N_12  and  C_13
REMARK    7  A    between atoms: C_13  and  N_15
REMARK    8  A    between atoms: C_16  and  C_18
REMARK    9  A    between atoms: C_21  and  C_22
REMARK                            x       y       z     vdW  Elec       q    Type
REMARK                         _______ _______ _______ _____ _____    ______ ____
ROOT
ATOM      1  C   UNL     1       0.956  11.273  19.318  0.00  0.00    +0.000 C 
ATOM      2  S   UNL     1       2.111  12.281  18.644  0.00  0.00    +0.000 S 
ENDROOT
BRANCH   1   3
ATOM      3  N   UNL     1       1.183   9.912  19.268  0.00  0.00    +0.000 N 
ATOM      4  C   UNL     1       1.191   9.026  20.328  0.00  0.00    +0.000 C 
ATOM      5  O   UNL     1       0.709   9.313  21.428  0.00  0.00    +0.000 OA
ATOM      6  H   UNL     1       1.497   9.556  18.371  0.00  0.00    +0.000 HD
BRANCH   4   7
ATOM      7  C   UNL     1       1.765   7.733  20.047  0.00  0.00    +0.000 A 
ATOM      8  C   UNL     1       1.636   6.546  20.737  0.00  0.00    +0.000 A 
ATOM      9  C   UNL     1       2.401   5.588  20.039  0.00  0.00    +0.000 A 
ATOM     10  C   UNL     1       2.963   6.237  18.955  0.00  0.00    +0.000 A 
ATOM     11  O   UNL     1       2.581   7.554  18.964  0.00  0.00    +0.000 OA
BRANCH  10  12
ATOM     12  C   UNL     1       3.811   5.800  17.849  0.00  0.00    +0.000 A 
ATOM     13  C   UNL     1       3.935   4.433  17.548  0.00  0.00    +0.000 A 
ATOM     14  C   UNL     1       4.699   4.000  16.459  0.00  0.00    +0.000 A 
ATOM     15  C   UNL     1       5.353   4.934  15.661  0.00  0.00    +0.000 A 
ATOM     16 CL   UNL     1       6.267   4.407  14.302  0.00  0.00    +0.000 Cl
ATOM     17  C   UNL     1       5.264   6.291  15.953  0.00  0.00    +0.000 A 
ATOM     18  C   UNL     1       4.497   6.721  17.042  0.00  0.00    +0.000 A 
ENDBRANCH  10  12
ENDBRANCH   4   7
ENDBRANCH   1   3
BRANCH   1  19
ATOM     19  N   UNL     1      -0.231  11.645  19.911  0.00  0.00    +0.000 N 
ATOM     20  H   UNL     1      -0.154  11.991  20.868  0.00  0.00    +0.000 HD
BRANCH  19  26
ATOM     21  C   UNL     1      -2.599  12.286  20.043  0.00  0.00    +0.000 A 
ATOM     22  C   UNL     1      -3.857  12.327  19.424  0.00  0.00    +0.000 A 
ATOM     23  C   UNL     1      -4.065  11.747  18.171  0.00  0.00    +0.000 A 
ATOM     24  C   UNL     1      -3.006  11.130  17.506  0.00  0.00    +0.000 A 
ATOM     25  C   UNL     1      -1.751  11.076  18.120  0.00  0.00    +0.000 A 
ATOM     26  C   UNL     1      -1.542  11.618  19.397  0.00  0.00    +0.000 A 
BRANCH  21  28
ATOM     27  C   UNL     1      -3.191  12.435  22.364  0.00  0.00    +0.000 C 
ATOM     28  O   UNL     1      -2.558  12.989  21.217  0.00  0.00    +0.000 OA
ENDBRANCH  21  28
BRANCH  24  29
ATOM     29  C   UNL     1      -3.227  10.655  16.113  0.00  0.00    +0.000 C 
ATOM     30  O   UNL     1      -3.210   9.473  15.815  0.00  0.00    +0.000 OA
BRANCH  29  31
ATOM     31  O   UNL     1      -3.438  11.634  15.209  0.00  0.00    +0.000 OA
ATOM     32  H   UNL     1      -3.486  11.351  14.278  0.00  0.00    +0.000 HD
ENDBRANCH  29  31
ENDBRANCH  24  29
ENDBRANCH  19  26
ENDBRANCH   1  19
TORSDOF 8
ENDMDL
