MODEL 1
REMARK VINA RESULT:      -7.5      0.000      0.000
REMARK  Name = 
REMARK  14 active torsions:
REMARK  status: ('A' for Active; 'I' for Inactive)
REMARK    1  A    between atoms: C_1  and  C_2
REMARK    2  A    between atoms: C_2  and  C_3
REMARK    3  A    between atoms: C_2  and  C_4
REMARK    4  A    between atoms: C_4  and  C_5
REMARK    5  A    between atoms: C_5  and  N_6
REMARK    6  A    between atoms: C_5  and  C_14
REMARK    7  A    between atoms: C_7  and  O_9
REMARK    8  A    between atoms: O_9  and  C_10
REMARK    9  A    between atoms: C_10  and  C_11
REMARK   10  A    between atoms: C_10  and  C_12
REMARK   11  A    between atoms: C_10  and  C_13
REMARK   12  A    between atoms: C_18  and  O_19
REMARK   13  A    between atoms: C_21  and  C_22
REMARK   14  A    between atoms: N_24  and  O_25
REMARK                            x       y       z     vdW  Elec       q    Type
REMARK                         _______ _______ _______ _____ _____    ______ ____
ROOT
ATOM      1  C   UNL     1       4.597   5.791  18.336  0.00  0.00    +0.000 C 
ATOM      2  O   UNL     1       4.802   5.593  19.537  0.00  0.00    +0.000 OA
ATOM      3  N   UNL     1       5.518   5.370  17.390  0.00  0.00    +0.000 N 
ATOM      4  C   UNL     1       5.378   5.338  15.937  0.00  0.00    +0.000 C 
ATOM      5  C   UNL     1       6.465   4.359  15.477  0.00  0.00    +0.000 C 
ATOM      6  C   UNL     1       7.558   4.505  16.526  0.00  0.00    +0.000 C 
ATOM      7  C   UNL     1       6.787   4.781  17.820  0.00  0.00    +0.000 C 
ENDROOT
BRANCH   7   8
ATOM      8  C   UNL     1       7.608   5.717  18.719  0.00  0.00    +0.000 C 
ATOM      9  O   UNL     1       7.982   5.434  19.857  0.00  0.00    +0.000 OA
ATOM     10  N   UNL     1       7.869   6.944  18.147  0.00  0.00    +0.000 N 
ATOM     11  H   UNL     1       7.248   7.374  17.471  0.00  0.00    +0.000 HD
BRANCH  10  12
ATOM     12  O   UNL     1       8.624   7.833  18.948  0.00  0.00    +0.000 OA
ATOM     13  H   UNL     1       9.543   7.514  18.800  0.00  0.00    +0.000 HD
ENDBRANCH  10  12
ENDBRANCH   7   8
BRANCH   5  14
ATOM     14  O   UNL     1       5.997   3.011  15.476  0.00  0.00    +0.000 OA
ATOM     15  H   UNL     1       5.436   2.875  16.260  0.00  0.00    +0.000 HD
ENDBRANCH   5  14
BRANCH   1  16
ATOM     16  C   UNL     1       3.247   6.344  17.849  0.00  0.00    +0.000 C 
BRANCH  16  17
ATOM     17  N   UNL     1       2.263   5.687  18.714  0.00  0.00    +0.000 N 
ATOM     18  C   UNL     1       1.660   4.530  18.342  0.00  0.00    +0.000 C 
ATOM     19  O   UNL     1       1.727   4.070  17.204  0.00  0.00    +0.000 OA
ATOM     20  H   UNL     1       2.158   5.985  19.675  0.00  0.00    +0.000 HD
BRANCH  18  21
ATOM     21  O   UNL     1       1.040   3.946  19.396  0.00  0.00    +0.000 OA
BRANCH  21  22
ATOM     22  C   UNL     1       1.609   2.739  19.973  0.00  0.00    +0.000 C 
ATOM     23  C   UNL     1       1.354   2.646  21.485  0.00  0.00    +0.000 C 
ATOM     24  C   UNL     1       0.901   1.561  19.280  0.00  0.00    +0.000 C 
ATOM     25  C   UNL     1       3.108   2.645  19.658  0.00  0.00    +0.000 C 
ENDBRANCH  21  22
ENDBRANCH  18  21
ENDBRANCH  16  17
BRANCH  16  26
ATOM     26  C   UNL     1       3.123   7.876  17.963  0.00  0.00    +0.000 C 
BRANCH  26  28
ATOM     27  C   UNL     1       1.713   8.493  20.017  0.00  0.00    +0.000 C 
ATOM     28  C   UNL     1       1.764   8.395  18.491  0.00  0.00    +0.000 C 
ATOM     29  C   UNL     1       1.455   9.770  17.883  0.00  0.00    +0.000 C 
ENDBRANCH  26  28
ENDBRANCH  16  26
ENDBRANCH   1  16
TORSDOF 9
ENDMDL
MODEL 2
REMARK VINA RESULT:      -7.5      0.538      1.084
REMARK  Name = 
REMARK  14 active torsions:
REMARK  status: ('A' for Active; 'I' for Inactive)
REMARK    1  A    between atoms: C_1  and  C_2
REMARK    2  A    between atoms: C_2  and  C_3
REMARK    3  A    between atoms: C_2  and  C_4
REMARK    4  A    between atoms: C_4  and  C_5
REMARK    5  A    between atoms: C_5  and  N_6
REMARK    6  A    between atoms: C_5  and  C_14
REMARK    7  A    between atoms: C_7  and  O_9
REMARK    8  A    between atoms: O_9  and  C_10
REMARK    9  A    between atoms: C_10  and  C_11
REMARK   10  A    between atoms: C_10  and  C_12
REMARK   11  A    between atoms: C_10  and  C_13
REMARK   12  A    between atoms: C_18  and  O_19
REMARK   13  A    between atoms: C_21  and  C_22
REMARK   14  A    between atoms: N_24  and  O_25
REMARK                            x       y       z     vdW  Elec       q    Type
REMARK                         _______ _______ _______ _____ _____    ______ ____
ROOT
ATOM      1  C   UNL     1       4.582   5.728  18.290  0.00  0.00    +0.000 C 
ATOM      2  O   UNL     1       4.796   5.536  19.491  0.00  0.00    +0.000 OA
ATOM      3  N   UNL     1       5.510   5.329  17.341  0.00  0.00    +0.000 N 
ATOM      4  C   UNL     1       5.366   5.292  15.889  0.00  0.00    +0.000 C 
ATOM      5  C   UNL     1       6.475   4.341  15.425  0.00  0.00    +0.000 C 
ATOM      6  C   UNL     1       7.568   4.515  16.470  0.00  0.00    +0.000 C 
ATOM      7  C   UNL     1       6.794   4.772  17.767  0.00  0.00    +0.000 C 
ENDROOT
BRANCH   7   8
ATOM      8  C   UNL     1       7.595   5.730  18.663  0.00  0.00    +0.000 C 
ATOM      9  O   UNL     1       7.956   5.468  19.810  0.00  0.00    +0.000 OA
ATOM     10  N   UNL     1       7.853   6.950  18.076  0.00  0.00    +0.000 N 
ATOM     11  H   UNL     1       7.238   7.364  17.384  0.00  0.00    +0.000 HD
BRANCH  10  12
ATOM     12  O   UNL     1       8.590   7.857  18.873  0.00  0.00    +0.000 OA
ATOM     13  H   UNL     1       8.871   7.289  19.625  0.00  0.00    +0.000 HD
ENDBRANCH  10  12
ENDBRANCH   7   8
BRANCH   5  14
ATOM     14  O   UNL     1       6.041   2.981  15.427  0.00  0.00    +0.000 OA
ATOM     15  H   UNL     1       6.444   2.526  16.188  0.00  0.00    +0.000 HD
ENDBRANCH   5  14
BRANCH   1  16
ATOM     16  C   UNL     1       3.216   6.246  17.808  0.00  0.00    +0.000 C 
BRANCH  16  17
ATOM     17  N   UNL     1       2.251   5.541  18.655  0.00  0.00    +0.000 N 
ATOM     18  C   UNL     1       1.796   4.305  18.328  0.00  0.00    +0.000 C 
ATOM     19  O   UNL     1       1.986   3.787  17.230  0.00  0.00    +0.000 OA
ATOM     20  H   UNL     1       2.052   5.885  19.586  0.00  0.00    +0.000 HD
BRANCH  18  21
ATOM     21  O   UNL     1       1.172   3.724  19.380  0.00  0.00    +0.000 OA
BRANCH  21  22
ATOM     22  C   UNL     1       1.958   3.324  20.537  0.00  0.00    +0.000 C 
ATOM     23  C   UNL     1       3.273   2.641  20.132  0.00  0.00    +0.000 C 
ATOM     24  C   UNL     1       2.289   4.621  21.297  0.00  0.00    +0.000 C 
ATOM     25  C   UNL     1       1.132   2.426  21.466  0.00  0.00    +0.000 C 
ENDBRANCH  21  22
ENDBRANCH  18  21
ENDBRANCH  16  17
BRANCH  16  26
ATOM     26  C   UNL     1       3.043   7.771  17.951  0.00  0.00    +0.000 C 
BRANCH  26  28
ATOM     27  C   UNL     1       1.741   8.362  20.082  0.00  0.00    +0.000 C 
ATOM     28  C   UNL     1       1.697   8.232  18.558  0.00  0.00    +0.000 C 
ATOM     29  C   UNL     1       1.277   9.576  17.947  0.00  0.00    +0.000 C 
ENDBRANCH  26  28
ENDBRANCH  16  26
ENDBRANCH   1  16
TORSDOF 9
ENDMDL
MODEL 3
REMARK VINA RESULT:      -7.3      0.876      1.153
REMARK  Name = 
REMARK  14 active torsions:
REMARK  status: ('A' for Active; 'I' for Inactive)
REMARK    1  A    between atoms: C_1  and  C_2
REMARK    2  A    between atoms: C_2  and  C_3
REMARK    3  A    between atoms: C_2  and  C_4
REMARK    4  A    between atoms: C_4  and  C_5
REMARK    5  A    between atoms: C_5  and  N_6
REMARK    6  A    between atoms: C_5  and  C_14
REMARK    7  A    between atoms: C_7  and  O_9
REMARK    8  A    between atoms: O_9  and  C_10
REMARK    9  A    between atoms: C_10  and  C_11
REMARK   10  A    between atoms: C_10  and  C_12
REMARK   11  A    between atoms: C_10  and  C_13
REMARK   12  A    between atoms: C_18  and  O_19
REMARK   13  A    between atoms: C_21  and  C_22
REMARK   14  A    between atoms: N_24  and  O_25
REMARK                            x       y       z     vdW  Elec       q    Type
REMARK                         _______ _______ _______ _____ _____    ______ ____
ROOT
ATOM      1  C   UNL     1       4.506   5.606  18.045  0.00  0.00    +0.000 C 
ATOM      2  O   UNL     1       4.710   5.188  19.189  0.00  0.00    +0.000 OA
ATOM      3  N   UNL     1       5.457   5.424  17.054  0.00  0.00    +0.000 N 
ATOM      4  C   UNL     1       5.332   5.669  15.620  0.00  0.00    +0.000 C 
ATOM      5  C   UNL     1       6.472   4.854  14.999  0.00  0.00    +0.000 C 
ATOM      6  C   UNL     1       7.547   4.846  16.077  0.00  0.00    +0.000 C 
ATOM      7  C   UNL     1       6.750   4.825  17.385  0.00  0.00    +0.000 C 
ENDROOT
BRANCH   7   8
ATOM      8  C   UNL     1       7.512   5.606  18.465  0.00  0.00    +0.000 C 
ATOM      9  O   UNL     1       8.036   6.706  18.286  0.00  0.00    +0.000 OA
ATOM     10  N   UNL     1       7.595   4.945  19.672  0.00  0.00    +0.000 N 
ATOM     11  H   UNL     1       7.597   3.933  19.741  0.00  0.00    +0.000 HD
BRANCH  10  12
ATOM     12  O   UNL     1       8.292   5.637  20.691  0.00  0.00    +0.000 OA
ATOM     13  H   UNL     1       9.198   5.702  20.313  0.00  0.00    +0.000 HD
ENDBRANCH  10  12
ENDBRANCH   7   8
BRANCH   5  14
ATOM     14  O   UNL     1       6.075   3.511  14.726  0.00  0.00    +0.000 OA
ATOM     15  H   UNL     1       6.739   3.101  14.143  0.00  0.00    +0.000 HD
ENDBRANCH   5  14
BRANCH   1  16
ATOM     16  C   UNL     1       3.133   6.177  17.650  0.00  0.00    +0.000 C 
BRANCH  16  17
ATOM     17  N   UNL     1       2.193   5.480  18.531  0.00  0.00    +0.000 N 
ATOM     18  C   UNL     1       1.738   4.236  18.233  0.00  0.00    +0.000 C 
ATOM     19  O   UNL     1       1.905   3.702  17.139  0.00  0.00    +0.000 OA
ATOM     20  H   UNL     1       2.015   5.837  19.461  0.00  0.00    +0.000 HD
BRANCH  18  21
ATOM     21  O   UNL     1       1.143   3.669  19.309  0.00  0.00    +0.000 OA
BRANCH  21  22
ATOM     22  C   UNL     1       1.943   3.376  20.489  0.00  0.00    +0.000 C 
ATOM     23  C   UNL     1       2.327   4.650  21.255  0.00  0.00    +0.000 C 
ATOM     24  C   UNL     1       1.059   2.502  21.397  0.00  0.00    +0.000 C 
ATOM     25  C   UNL     1       3.186   2.562  20.109  0.00  0.00    +0.000 C 
ENDBRANCH  21  22
ENDBRANCH  18  21
ENDBRANCH  16  17
BRANCH  16  26
ATOM     26  C   UNL     1       3.015   7.703  17.838  0.00  0.00    +0.000 C 
BRANCH  26  28
ATOM     27  C   UNL     1       1.794   8.282  20.019  0.00  0.00    +0.000 C 
ATOM     28  C   UNL     1       1.702   8.191  18.494  0.00  0.00    +0.000 C 
ATOM     29  C   UNL     1       1.307   9.561  17.927  0.00  0.00    +0.000 C 
ENDBRANCH  26  28
ENDBRANCH  16  26
ENDBRANCH   1  16
TORSDOF 9
ENDMDL
MODEL 4
REMARK VINA RESULT:      -6.9      2.059      5.040
REMARK  Name = 
REMARK  14 active torsions:
REMARK  status: ('A' for Active; 'I' for Inactive)
REMARK    1  A    between atoms: C_1  and  C_2
REMARK    2  A    between atoms: C_2  and  C_3
REMARK    3  A    between atoms: C_2  and  C_4
REMARK    4  A    between atoms: C_4  and  C_5
REMARK    5  A    between atoms: C_5  and  N_6
REMARK    6  A    between atoms: C_5  and  C_14
REMARK    7  A    between atoms: C_7  and  O_9
REMARK    8  A    between atoms: O_9  and  C_10
REMARK    9  A    between atoms: C_10  and  C_11
REMARK   10  A    between atoms: C_10  and  C_12
REMARK   11  A    between atoms: C_10  and  C_13
REMARK   12  A    between atoms: C_18  and  O_19
REMARK   13  A    between atoms: C_21  and  C_22
REMARK   14  A    between atoms: N_24  and  O_25
REMARK                            x       y       z     vdW  Elec       q    Type
REMARK                         _______ _______ _______ _____ _____    ______ ____
ROOT
ATOM      1  C   UNL     1       4.327   6.286  17.505  0.00  0.00    +0.000 C 
ATOM      2  O   UNL     1       4.385   6.974  16.482  0.00  0.00    +0.000 OA
ATOM      3  N   UNL     1       5.456   5.634  17.975  0.00  0.00    +0.000 N 
ATOM      4  C   UNL     1       5.642   4.940  19.245  0.00  0.00    +0.000 C 
ATOM      5  C   UNL     1       7.164   4.860  19.411  0.00  0.00    +0.000 C 
ATOM      6  C   UNL     1       7.686   4.806  17.982  0.00  0.00    +0.000 C 
ATOM      7  C   UNL     1       6.697   5.677  17.200  0.00  0.00    +0.000 C 
ENDROOT
BRANCH   7   8
ATOM      8  C   UNL     1       6.535   5.120  15.778  0.00  0.00    +0.000 C 
ATOM      9  O   UNL     1       6.583   5.804  14.756  0.00  0.00    +0.000 OA
ATOM     10  N   UNL     1       6.291   3.764  15.739  0.00  0.00    +0.000 N 
ATOM     11  H   UNL     1       5.814   3.274  16.488  0.00  0.00    +0.000 HD
BRANCH  10  12
ATOM     12  O   UNL     1       6.136   3.217  14.443  0.00  0.00    +0.000 OA
ATOM     13  H   UNL     1       5.319   2.679  14.543  0.00  0.00    +0.000 HD
ENDBRANCH  10  12
ENDBRANCH   7   8
BRANCH   5  14
ATOM     14  O   UNL     1       7.687   6.020  20.056  0.00  0.00    +0.000 OA
ATOM     15  H   UNL     1       7.670   5.877  21.019  0.00  0.00    +0.000 HD
ENDBRANCH   5  14
BRANCH   1  16
ATOM     16  C   UNL     1       3.059   6.277  18.376  0.00  0.00    +0.000 C 
BRANCH  16  17
ATOM     17  N   UNL     1       2.448   7.585  18.126  0.00  0.00    +0.000 N 
ATOM     18  C   UNL     1       1.965   8.343  19.142  0.00  0.00    +0.000 C 
ATOM     19  O   UNL     1       1.813   7.920  20.285  0.00  0.00    +0.000 OA
ATOM     20  H   UNL     1       2.545   8.020  17.217  0.00  0.00    +0.000 HD
BRANCH  18  21
ATOM     21  O   UNL     1       1.738   9.614  18.731  0.00  0.00    +0.000 OA
BRANCH  21  22
ATOM     22  C   UNL     1       0.417  10.194  18.920  0.00  0.00    +0.000 C 
ATOM     23  C   UNL     1      -0.158   9.877  20.309  0.00  0.00    +0.000 C 
ATOM     24  C   UNL     1       0.598  11.717  18.797  0.00  0.00    +0.000 C 
ATOM     25  C   UNL     1      -0.537   9.737  17.809  0.00  0.00    +0.000 C 
ENDBRANCH  21  22
ENDBRANCH  18  21
ENDBRANCH  16  17
BRANCH  16  26
ATOM     26  C   UNL     1       2.071   5.146  18.026  0.00  0.00    +0.000 C 
BRANCH  26  28
ATOM     27  C   UNL     1       1.351   4.499  20.403  0.00  0.00    +0.000 C 
ATOM     28  C   UNL     1       1.951   4.020  19.080  0.00  0.00    +0.000 C 
ATOM     29  C   UNL     1       1.101   2.869  18.525  0.00  0.00    +0.000 C 
ENDBRANCH  26  28
ENDBRANCH  16  26
ENDBRANCH   1  16
TORSDOF 9
ENDMDL
MODEL 5
REMARK VINA RESULT:      -6.8      2.545      6.256
REMARK  Name = 
REMARK  14 active torsions:
REMARK  status: ('A' for Active; 'I' for Inactive)
REMARK    1  A    between atoms: C_1  and  C_2
REMARK    2  A    between atoms: C_2  and  C_3
REMARK    3  A    between atoms: C_2  and  C_4
REMARK    4  A    between atoms: C_4  and  C_5
REMARK    5  A    between atoms: C_5  and  N_6
REMARK    6  A    between atoms: C_5  and  C_14
REMARK    7  A    between atoms: C_7  and  O_9
REMARK    8  A    between atoms: O_9  and  C_10
REMARK    9  A    between atoms: C_10  and  C_11
REMARK   10  A    between atoms: C_10  and  C_12
REMARK   11  A    between atoms: C_10  and  C_13
REMARK   12  A    between atoms: C_18  and  O_19
REMARK   13  A    between atoms: C_21  and  C_22
REMARK   14  A    between atoms: N_24  and  O_25
REMARK                            x       y       z     vdW  Elec       q    Type
REMARK                         _______ _______ _______ _____ _____    ______ ____
ROOT
ATOM      1  C   UNL     1       4.677   4.972  17.262  0.00  0.00    +0.000 C 
ATOM      2  O   UNL     1       4.278   5.954  16.628  0.00  0.00    +0.000 OA
ATOM      3  N   UNL     1       3.797   4.238  18.042  0.00  0.00    +0.000 N 
ATOM      4  C   UNL     1       4.023   2.957  18.704  0.00  0.00    +0.000 C 
ATOM      5  C   UNL     1       2.612   2.425  18.983  0.00  0.00    +0.000 C 
ATOM      6  C   UNL     1       1.774   3.683  19.162  0.00  0.00    +0.000 C 
ATOM      7  C   UNL     1       2.413   4.687  18.198  0.00  0.00    +0.000 C 
ENDROOT
BRANCH   7   8
ATOM      8  C   UNL     1       2.305   6.103  18.782  0.00  0.00    +0.000 C 
ATOM      9  O   UNL     1       2.158   7.122  18.108  0.00  0.00    +0.000 OA
ATOM     10  N   UNL     1       2.423   6.145  20.155  0.00  0.00    +0.000 N 
ATOM     11  H   UNL     1       2.966   5.466  20.677  0.00  0.00    +0.000 HD
BRANCH  10  12
ATOM     12  O   UNL     1       2.327   7.435  20.728  0.00  0.00    +0.000 OA
ATOM     13  H   UNL     1       1.637   7.858  20.169  0.00  0.00    +0.000 HD
ENDBRANCH  10  12
ENDBRANCH   7   8
BRANCH   5  14
ATOM     14  O   UNL     1       2.101   1.678  17.880  0.00  0.00    +0.000 OA
ATOM     15  H   UNL     1       1.343   1.148  18.186  0.00  0.00    +0.000 HD
ENDBRANCH   5  14
BRANCH   1  16
ATOM     16  C   UNL     1       6.105   4.436  17.065  0.00  0.00    +0.000 C 
BRANCH  16  17
ATOM     17  N   UNL     1       6.017   3.634  15.843  0.00  0.00    +0.000 N 
ATOM     18  C   UNL     1       6.374   4.144  14.637  0.00  0.00    +0.000 C 
ATOM     19  O   UNL     1       6.589   5.339  14.449  0.00  0.00    +0.000 OA
ATOM     20  H   UNL     1       5.867   2.635  15.906  0.00  0.00    +0.000 HD
BRANCH  18  21
ATOM     21  O   UNL     1       6.511   3.160  13.716  0.00  0.00    +0.000 OA
BRANCH  21  22
ATOM     22  C   UNL     1       6.301   3.472  12.311  0.00  0.00    +0.000 C 
ATOM     23  C   UNL     1       7.187   4.634  11.840  0.00  0.00    +0.000 C 
ATOM     24  C   UNL     1       6.693   2.205  11.530  0.00  0.00    +0.000 C 
ATOM     25  C   UNL     1       4.819   3.760  12.037  0.00  0.00    +0.000 C 
ENDBRANCH  21  22
ENDBRANCH  18  21
ENDBRANCH  16  17
BRANCH  16  26
ATOM     26  C   UNL     1       7.169   5.541  16.907  0.00  0.00    +0.000 C 
BRANCH  26  28
ATOM     27  C   UNL     1       8.078   6.003  19.262  0.00  0.00    +0.000 C 
ATOM     28  C   UNL     1       7.266   6.542  18.082  0.00  0.00    +0.000 C 
ATOM     29  C   UNL     1       7.886   7.861  17.600  0.00  0.00    +0.000 C 
ENDBRANCH  26  28
ENDBRANCH  16  26
ENDBRANCH   1  16
TORSDOF 9
ENDMDL
MODEL 6
REMARK VINA RESULT:      -6.7      2.009      4.938
REMARK  Name = 
REMARK  14 active torsions:
REMARK  status: ('A' for Active; 'I' for Inactive)
REMARK    1  A    between atoms: C_1  and  C_2
REMARK    2  A    between atoms: C_2  and  C_3
REMARK    3  A    between atoms: C_2  and  C_4
REMARK    4  A    between atoms: C_4  and  C_5
REMARK    5  A    between atoms: C_5  and  N_6
REMARK    6  A    between atoms: C_5  and  C_14
REMARK    7  A    between atoms: C_7  and  O_9
REMARK    8  A    between atoms: O_9  and  C_10
REMARK    9  A    between atoms: C_10  and  C_11
REMARK   10  A    between atoms: C_10  and  C_12
REMARK   11  A    between atoms: C_10  and  C_13
REMARK   12  A    between atoms: C_18  and  O_19
REMARK   13  A    between atoms: C_21  and  C_22
REMARK   14  A    between atoms: N_24  and  O_25
REMARK                            x       y       z     vdW  Elec       q    Type
REMARK                         _______ _______ _______ _____ _____    ______ ____
ROOT
ATOM      1  C   UNL     1       4.371   6.042  17.371  0.00  0.00    +0.000 C 
ATOM      2  O   UNL     1       4.458   6.670  16.311  0.00  0.00    +0.000 OA
ATOM      3  N   UNL     1       5.494   5.455  17.931  0.00  0.00    +0.000 N 
ATOM      4  C   UNL     1       5.638   4.844  19.249  0.00  0.00    +0.000 C 
ATOM      5  C   UNL     1       7.152   4.822  19.490  0.00  0.00    +0.000 C 
ATOM      6  C   UNL     1       7.744   4.700  18.093  0.00  0.00    +0.000 C 
ATOM      7  C   UNL     1       6.769   5.491  17.214  0.00  0.00    +0.000 C 
ENDROOT
BRANCH   7   8
ATOM      8  C   UNL     1       6.692   4.846  15.822  0.00  0.00    +0.000 C 
ATOM      9  O   UNL     1       6.173   3.754  15.591  0.00  0.00    +0.000 OA
ATOM     10  N   UNL     1       7.296   5.592  14.833  0.00  0.00    +0.000 N 
ATOM     11  H   UNL     1       8.078   6.211  15.016  0.00  0.00    +0.000 HD
BRANCH  10  12
ATOM     12  O   UNL     1       7.243   5.028  13.536  0.00  0.00    +0.000 OA
ATOM     13  H   UNL     1       7.227   5.828  12.964  0.00  0.00    +0.000 HD
ENDBRANCH  10  12
ENDBRANCH   7   8
BRANCH   5  14
ATOM     14  O   UNL     1       7.610   6.034  20.086  0.00  0.00    +0.000 OA
ATOM     15  H   UNL     1       8.543   5.922  20.344  0.00  0.00    +0.000 HD
ENDBRANCH   5  14
BRANCH   1  16
ATOM     16  C   UNL     1       3.063   6.045  18.181  0.00  0.00    +0.000 C 
BRANCH  16  17
ATOM     17  N   UNL     1       2.497   7.373  17.935  0.00  0.00    +0.000 N 
ATOM     18  C   UNL     1       2.137   8.187  18.959  0.00  0.00    +0.000 C 
ATOM     19  O   UNL     1       2.060   7.808  20.125  0.00  0.00    +0.000 OA
ATOM     20  H   UNL     1       2.539   7.775  17.006  0.00  0.00    +0.000 HD
BRANCH  18  21
ATOM     21  O   UNL     1       1.937   9.454  18.523  0.00  0.00    +0.000 OA
BRANCH  21  22
ATOM     22  C   UNL     1       0.717  10.149  18.902  0.00  0.00    +0.000 C 
ATOM     23  C   UNL     1       0.882  11.675  18.848  0.00  0.00    +0.000 C 
ATOM     24  C   UNL     1      -0.348   9.732  17.872  0.00  0.00    +0.000 C 
ATOM     25  C   UNL     1       0.243   9.693  20.287  0.00  0.00    +0.000 C 
ENDBRANCH  21  22
ENDBRANCH  18  21
ENDBRANCH  16  17
BRANCH  16  26
ATOM     26  C   UNL     1       2.065   4.949  17.758  0.00  0.00    +0.000 C 
BRANCH  26  28
ATOM     27  C   UNL     1       1.535   2.608  18.666  0.00  0.00    +0.000 C 
ATOM     28  C   UNL     1       1.463   4.116  18.914  0.00  0.00    +0.000 C 
ATOM     29  C   UNL     1       2.179   4.449  20.230  0.00  0.00    +0.000 C 
ENDBRANCH  26  28
ENDBRANCH  16  26
ENDBRANCH   1  16
TORSDOF 9
ENDMDL
MODEL 7
REMARK VINA RESULT:      -6.7      1.576      2.781
REMARK  Name = 
REMARK  14 active torsions:
REMARK  status: ('A' for Active; 'I' for Inactive)
REMARK    1  A    between atoms: C_1  and  C_2
REMARK    2  A    between atoms: C_2  and  C_3
REMARK    3  A    between atoms: C_2  and  C_4
REMARK    4  A    between atoms: C_4  and  C_5
REMARK    5  A    between atoms: C_5  and  N_6
REMARK    6  A    between atoms: C_5  and  C_14
REMARK    7  A    between atoms: C_7  and  O_9
REMARK    8  A    between atoms: O_9  and  C_10
REMARK    9  A    between atoms: C_10  and  C_11
REMARK   10  A    between atoms: C_10  and  C_12
REMARK   11  A    between atoms: C_10  and  C_13
REMARK   12  A    between atoms: C_18  and  O_19
REMARK   13  A    between atoms: C_21  and  C_22
REMARK   14  A    between atoms: N_24  and  O_25
REMARK                            x       y       z     vdW  Elec       q    Type
REMARK                         _______ _______ _______ _____ _____    ______ ____
ROOT
ATOM      1  C   UNL     1       4.731   6.357  16.585  0.00  0.00    +0.000 C 
ATOM      2  O   UNL     1       4.966   6.868  15.486  0.00  0.00    +0.000 OA
ATOM      3  N   UNL     1       5.727   5.679  17.270  0.00  0.00    +0.000 N 
ATOM      4  C   UNL     1       5.706   5.177  18.640  0.00  0.00    +0.000 C 
ATOM      5  C   UNL     1       7.186   4.975  18.989  0.00  0.00    +0.000 C 
ATOM      6  C   UNL     1       7.836   4.649  17.651  0.00  0.00    +0.000 C 
ATOM      7  C   UNL     1       7.034   5.479  16.644  0.00  0.00    +0.000 C 
ENDROOT
BRANCH   7   8
ATOM      8  C   UNL     1       6.949   4.726  15.308  0.00  0.00    +0.000 C 
ATOM      9  O   UNL     1       6.468   3.601  15.175  0.00  0.00    +0.000 OA
ATOM     10  N   UNL     1       7.501   5.414  14.249  0.00  0.00    +0.000 N 
ATOM     11  H   UNL     1       8.263   6.074  14.364  0.00  0.00    +0.000 HD
BRANCH  10  12
ATOM     12  O   UNL     1       7.440   4.749  13.001  0.00  0.00    +0.000 OA
ATOM     13  H   UNL     1       6.676   4.143  13.129  0.00  0.00    +0.000 HD
ENDBRANCH  10  12
ENDBRANCH   7   8
BRANCH   5  14
ATOM     14  O   UNL     1       7.773   6.165  19.514  0.00  0.00    +0.000 OA
ATOM     15  H   UNL     1       7.064   6.735  19.864  0.00  0.00    +0.000 HD
ENDBRANCH   5  14
BRANCH   1  16
ATOM     16  C   UNL     1       3.391   6.608  17.298  0.00  0.00    +0.000 C 
BRANCH  16  17
ATOM     17  N   UNL     1       3.281   5.497  18.247  0.00  0.00    +0.000 N 
ATOM     18  C   UNL     1       2.347   4.526  18.091  0.00  0.00    +0.000 C 
ATOM     19  O   UNL     1       1.416   4.610  17.294  0.00  0.00    +0.000 OA
ATOM     20  H   UNL     1       4.017   5.339  18.925  0.00  0.00    +0.000 HD
BRANCH  18  21
ATOM     21  O   UNL     1       2.620   3.460  18.881  0.00  0.00    +0.000 OA
BRANCH  21  22
ATOM     22  C   UNL     1       1.826   3.245  20.081  0.00  0.00    +0.000 C 
ATOM     23  C   UNL     1       1.147   4.537  20.561  0.00  0.00    +0.000 C 
ATOM     24  C   UNL     1       0.736   2.229  19.695  0.00  0.00    +0.000 C 
ATOM     25  C   UNL     1       2.683   2.625  21.191  0.00  0.00    +0.000 C 
ENDBRANCH  21  22
ENDBRANCH  18  21
ENDBRANCH  16  17
BRANCH  16  26
ATOM     26  C   UNL     1       3.323   7.958  18.040  0.00  0.00    +0.000 C 
BRANCH  26  28
ATOM     27  C   UNL     1       1.670   8.252  19.982  0.00  0.00    +0.000 C 
ATOM     28  C   UNL     1       1.908   8.405  18.477  0.00  0.00    +0.000 C 
ATOM     29  C   UNL     1       1.668   9.865  18.072  0.00  0.00    +0.000 C 
ENDBRANCH  26  28
ENDBRANCH  16  26
ENDBRANCH   1  16
TORSDOF 9
ENDMDL
MODEL 8
REMARK VINA RESULT:      -6.6      1.619      4.224
REMARK  Name = 
REMARK  14 active torsions:
REMARK  status: ('A' for Active; 'I' for Inactive)
REMARK    1  A    between atoms: C_1  and  C_2
REMARK    2  A    between atoms: C_2  and  C_3
REMARK    3  A    between atoms: C_2  and  C_4
REMARK    4  A    between atoms: C_4  and  C_5
REMARK    5  A    between atoms: C_5  and  N_6
REMARK    6  A    between atoms: C_5  and  C_14
REMARK    7  A    between atoms: C_7  and  O_9
REMARK    8  A    between atoms: O_9  and  C_10
REMARK    9  A    between atoms: C_10  and  C_11
REMARK   10  A    between atoms: C_10  and  C_12
REMARK   11  A    between atoms: C_10  and  C_13
REMARK   12  A    between atoms: C_18  and  O_19
REMARK   13  A    between atoms: C_21  and  C_22
REMARK   14  A    between atoms: N_24  and  O_25
REMARK                            x       y       z     vdW  Elec       q    Type
REMARK                         _______ _______ _______ _____ _____    ______ ____
ROOT
ATOM      1  C   UNL     1       4.985   5.464  18.885  0.00  0.00    +0.000 C 
ATOM      2  O   UNL     1       5.799   5.645  19.797  0.00  0.00    +0.000 OA
ATOM      3  N   UNL     1       5.423   5.248  17.589  0.00  0.00    +0.000 N 
ATOM      4  C   UNL     1       4.646   4.833  16.425  0.00  0.00    +0.000 C 
ATOM      5  C   UNL     1       5.696   4.300  15.443  0.00  0.00    +0.000 C 
ATOM      6  C   UNL     1       6.944   5.110  15.765  0.00  0.00    +0.000 C 
ATOM      7  C   UNL     1       6.850   5.337  17.277  0.00  0.00    +0.000 C 
ENDROOT
BRANCH   7   8
ATOM      8  C   UNL     1       7.457   6.703  17.631  0.00  0.00    +0.000 C 
ATOM      9  O   UNL     1       7.315   7.721  16.954  0.00  0.00    +0.000 OA
ATOM     10  N   UNL     1       8.220   6.689  18.780  0.00  0.00    +0.000 N 
ATOM     11  H   UNL     1       8.717   5.863  19.093  0.00  0.00    +0.000 HD
BRANCH  10  12
ATOM     12  O   UNL     1       8.794   7.932  19.136  0.00  0.00    +0.000 OA
ATOM     13  H   UNL     1       8.085   8.337  19.683  0.00  0.00    +0.000 HD
ENDBRANCH  10  12
ENDBRANCH   7   8
BRANCH   5  14
ATOM     14  O   UNL     1       5.969   2.917  15.659  0.00  0.00    +0.000 OA
ATOM     15  H   UNL     1       5.762   2.426  14.844  0.00  0.00    +0.000 HD
ENDBRANCH   5  14
BRANCH   1  16
ATOM     16  C   UNL     1       3.487   5.298  19.191  0.00  0.00    +0.000 C 
BRANCH  16  17
ATOM     17  N   UNL     1       2.847   6.363  18.415  0.00  0.00    +0.000 N 
ATOM     18  C   UNL     1       2.232   7.408  19.024  0.00  0.00    +0.000 C 
ATOM     19  O   UNL     1       1.986   7.435  20.228  0.00  0.00    +0.000 OA
ATOM     20  H   UNL     1       3.015   6.431  17.419  0.00  0.00    +0.000 HD
BRANCH  18  21
ATOM     21  O   UNL     1       1.991   8.408  18.144  0.00  0.00    +0.000 OA
BRANCH  21  22
ATOM     22  C   UNL     1       1.210   9.557  18.574  0.00  0.00    +0.000 C 
ATOM     23  C   UNL     1       0.963   9.551  20.090  0.00  0.00    +0.000 C 
ATOM     24  C   UNL     1       2.046  10.799  18.216  0.00  0.00    +0.000 C 
ATOM     25  C   UNL     1      -0.112   9.633  17.799  0.00  0.00    +0.000 C 
ENDBRANCH  21  22
ENDBRANCH  18  21
ENDBRANCH  16  17
BRANCH  16  26
ATOM     26  C   UNL     1       2.917   3.923  18.788  0.00  0.00    +0.000 C 
BRANCH  26  28
ATOM     27  C   UNL     1       0.911   2.326  18.686  0.00  0.00    +0.000 C 
ATOM     28  C   UNL     1       1.405   3.729  19.047  0.00  0.00    +0.000 C 
ATOM     29  C   UNL     1       1.082   4.016  20.520  0.00  0.00    +0.000 C 
ENDBRANCH  26  28
ENDBRANCH  16  26
ENDBRANCH   1  16
TORSDOF 9
ENDMDL
MODEL 9
REMARK VINA RESULT:      -6.5      3.299      6.202
REMARK  Name = 
REMARK  14 active torsions:
REMARK  status: ('A' for Active; 'I' for Inactive)
REMARK    1  A    between atoms: C_1  and  C_2
REMARK    2  A    between atoms: C_2  and  C_3
REMARK    3  A    between atoms: C_2  and  C_4
REMARK    4  A    between atoms: C_4  and  C_5
REMARK    5  A    between atoms: C_5  and  N_6
REMARK    6  A    between atoms: C_5  and  C_14
REMARK    7  A    between atoms: C_7  and  O_9
REMARK    8  A    between atoms: O_9  and  C_10
REMARK    9  A    between atoms: C_10  and  C_11
REMARK   10  A    between atoms: C_10  and  C_12
REMARK   11  A    between atoms: C_10  and  C_13
REMARK   12  A    between atoms: C_18  and  O_19
REMARK   13  A    between atoms: C_21  and  C_22
REMARK   14  A    between atoms: N_24  and  O_25
REMARK                            x       y       z     vdW  Elec       q    Type
REMARK                         _______ _______ _______ _____ _____    ______ ____
ROOT
ATOM      1  C   UNL     1       1.971   8.634  18.455  0.00  0.00    +0.000 C 
ATOM      2  O   UNL     1       1.566   9.132  17.401  0.00  0.00    +0.000 OA
ATOM      3  N   UNL     1       1.365   8.955  19.659  0.00  0.00    +0.000 N 
ATOM      4  C   UNL     1       1.565   8.342  20.969  0.00  0.00    +0.000 C 
ATOM      5  C   UNL     1       0.324   8.752  21.770  0.00  0.00    +0.000 C 
ATOM      6  C   UNL     1      -0.067  10.098  21.176  0.00  0.00    +0.000 C 
ATOM      7  C   UNL     1       0.308   9.966  19.696  0.00  0.00    +0.000 C 
ENDROOT
BRANCH   7   8
ATOM      8  C   UNL     1       0.764  11.329  19.157  0.00  0.00    +0.000 C 
ATOM      9  O   UNL     1       1.727  11.961  19.593  0.00  0.00    +0.000 OA
ATOM     10  N   UNL     1      -0.031  11.818  18.142  0.00  0.00    +0.000 N 
ATOM     11  H   UNL     1      -1.017  11.593  18.066  0.00  0.00    +0.000 HD
BRANCH  10  12
ATOM     12  O   UNL     1       0.361  13.073  17.621  0.00  0.00    +0.000 OA
ATOM     13  H   UNL     1      -0.114  13.699  18.212  0.00  0.00    +0.000 HD
ENDBRANCH  10  12
ENDBRANCH   7   8
BRANCH   5  14
ATOM     14  O   UNL     1      -0.752   7.833  21.588  0.00  0.00    +0.000 OA
ATOM     15  H   UNL     1      -1.584   8.335  21.521  0.00  0.00    +0.000 HD
ENDBRANCH   5  14
BRANCH   1  16
ATOM     16  C   UNL     1       3.031   7.519  18.442  0.00  0.00    +0.000 C 
BRANCH  16  17
ATOM     17  N   UNL     1       2.245   6.283  18.415  0.00  0.00    +0.000 N 
ATOM     18  C   UNL     1       2.426   5.313  19.346  0.00  0.00    +0.000 C 
ATOM     19  O   UNL     1       3.372   5.299  20.130  0.00  0.00    +0.000 OA
ATOM     20  H   UNL     1       1.432   6.216  17.816  0.00  0.00    +0.000 HD
BRANCH  18  21
ATOM     21  O   UNL     1       1.406   4.422  19.321  0.00  0.00    +0.000 OA
BRANCH  21  22
ATOM     22  C   UNL     1       1.683   3.020  19.590  0.00  0.00    +0.000 C 
ATOM     23  C   UNL     1       1.546   2.682  21.082  0.00  0.00    +0.000 C 
ATOM     24  C   UNL     1       0.630   2.218  18.804  0.00  0.00    +0.000 C 
ATOM     25  C   UNL     1       3.069   2.632  19.060  0.00  0.00    +0.000 C 
ENDBRANCH  21  22
ENDBRANCH  18  21
ENDBRANCH  16  17
BRANCH  16  26
ATOM     26  C   UNL     1       3.982   7.578  17.229  0.00  0.00    +0.000 C 
BRANCH  26  28
ATOM     27  C   UNL     1       5.089   5.635  15.970  0.00  0.00    +0.000 C 
ATOM     28  C   UNL     1       5.110   6.520  17.218  0.00  0.00    +0.000 C 
ATOM     29  C   UNL     1       6.477   7.208  17.330  0.00  0.00    +0.000 C 
ENDBRANCH  26  28
ENDBRANCH  16  26
ENDBRANCH   1  16
TORSDOF 9
ENDMDL
