MODEL 1
REMARK VINA RESULT:      -7.7      0.000      0.000
REMARK  Name = 
REMARK  6 active torsions:
REMARK  status: ('A' for Active; 'I' for Inactive)
REMARK    1  A    between atoms: C_1  and  C_2
REMARK    2  A    between atoms: C_2  and  C_3
REMARK    3  A    between atoms: C_6  and  S_7
REMARK    4  A    between atoms: S_7  and  N_10
REMARK    5  A    between atoms: N_10  and  C_11
REMARK    6  A    between atoms: C_14  and  C_15
REMARK                            x       y       z     vdW  Elec       q    Type
REMARK                         _______ _______ _______ _____ _____    ______ ____
ROOT
ATOM      1  C   UNL     1       2.662   5.810  19.036  0.00  0.00    +0.000 A 
ATOM      2  C   UNL     1       2.712   7.002  18.320  0.00  0.00    +0.000 A 
ATOM      3  C   UNL     1       2.128   8.159  18.846  0.00  0.00    +0.000 A 
ATOM      4  C   UNL     1       1.498   8.149  20.103  0.00  0.00    +0.000 A 
ATOM      5  C   UNL     1       1.488   6.943  20.824  0.00  0.00    +0.000 A 
ATOM      6  C   UNL     1       2.071   5.782  20.298  0.00  0.00    +0.000 A 
ENDROOT
BRANCH   4   7
ATOM      7  C   UNL     1       0.804   9.333  20.651  0.00  0.00    +0.000 A 
ATOM      8  N   UNL     1       0.207   9.361  21.831  0.00  0.00    +0.000 NA
ATOM      9  C   UNL     1      -0.443  10.573  21.998  0.00  0.00    +0.000 A 
ATOM     10  C   UNL     1      -1.247  10.981  23.076  0.00  0.00    +0.000 A 
ATOM     11  C   UNL     1      -1.833  12.247  23.014  0.00  0.00    +0.000 A 
ATOM     12  C   UNL     1      -1.588  13.047  21.906  0.00  0.00    +0.000 A 
ATOM     13  N   UNL     1      -0.814  12.712  20.853  0.00  0.00    +0.000 NA
ATOM     14  C   UNL     1      -0.280  11.477  20.955  0.00  0.00    +0.000 A 
ATOM     15  S   UNL     1       0.714  10.808  19.752  0.00  0.00    +0.000 S 
ENDBRANCH   4   7
BRANCH   1  16
ATOM     16  N   UNL     1       3.267   4.629  18.506  0.00  0.00    +0.000 N 
ATOM     17  H   UNL     1       3.210   4.562  17.488  0.00  0.00    +0.000 HD
BRANCH  16  18
ATOM     18  S   UNL     1       4.889   4.367  18.943  0.00  0.00    +0.000 S 
ATOM     19  O   UNL     1       5.037   2.984  19.341  0.00  0.00    +0.000 OA
ATOM     20  O   UNL     1       5.259   5.441  19.842  0.00  0.00    +0.000 OA
BRANCH  18  24
ATOM     21  C   UNL     1       6.503   4.649  15.092  0.00  0.00    +0.000 A 
ATOM     22  C   UNL     1       7.605   4.664  15.923  0.00  0.00    +0.000 A 
ATOM     23  C   UNL     1       7.240   4.620  17.297  0.00  0.00    +0.000 A 
ATOM     24  C   UNL     1       5.874   4.538  17.474  0.00  0.00    +0.000 A 
ATOM     25  S   UNL     1       5.045   4.517  15.981  0.00  0.00    +0.000 S 
BRANCH  21  27
ATOM     26  C   UNL     1       6.032   3.424  12.977  0.00  0.00    +0.000 C 
ATOM     27  C   UNL     1       6.476   4.740  13.597  0.00  0.00    +0.000 C 
ENDBRANCH  21  27
ENDBRANCH  18  24
ENDBRANCH  16  18
ENDBRANCH   1  16
TORSDOF 5
ENDMDL
MODEL 2
REMARK VINA RESULT:      -7.7      1.638      2.051
REMARK  Name = 
REMARK  6 active torsions:
REMARK  status: ('A' for Active; 'I' for Inactive)
REMARK    1  A    between atoms: C_1  and  C_2
REMARK    2  A    between atoms: C_2  and  C_3
REMARK    3  A    between atoms: C_6  and  S_7
REMARK    4  A    between atoms: S_7  and  N_10
REMARK    5  A    between atoms: N_10  and  C_11
REMARK    6  A    between atoms: C_14  and  C_15
REMARK                            x       y       z     vdW  Elec       q    Type
REMARK                         _______ _______ _______ _____ _____    ______ ____
ROOT
ATOM      1  C   UNL     1       2.851   5.952  18.916  0.00  0.00    +0.000 A 
ATOM      2  C   UNL     1       2.969   6.799  17.819  0.00  0.00    +0.000 A 
ATOM      3  C   UNL     1       2.445   8.095  17.875  0.00  0.00    +0.000 A 
ATOM      4  C   UNL     1       1.809   8.572  19.034  0.00  0.00    +0.000 A 
ATOM      5  C   UNL     1       1.731   7.712  20.143  0.00  0.00    +0.000 A 
ATOM      6  C   UNL     1       2.253   6.413  20.088  0.00  0.00    +0.000 A 
ENDROOT
BRANCH   4   7
ATOM      7  C   UNL     1       1.176   9.906  19.098  0.00  0.00    +0.000 A 
ATOM      8  N   UNL     1       1.671  10.988  18.520  0.00  0.00    +0.000 NA
ATOM      9  C   UNL     1       0.907  12.092  18.863  0.00  0.00    +0.000 A 
ATOM     10  C   UNL     1       1.127  13.437  18.518  0.00  0.00    +0.000 A 
ATOM     11  C   UNL     1       0.237  14.394  19.008  0.00  0.00    +0.000 A 
ATOM     12  C   UNL     1      -0.826  13.979  19.798  0.00  0.00    +0.000 A 
ATOM     13  N   UNL     1      -1.094  12.703  20.147  0.00  0.00    +0.000 NA
ATOM     14  C   UNL     1      -0.200  11.818  19.658  0.00  0.00    +0.000 A 
ATOM     15  S   UNL     1      -0.296  10.153  19.970  0.00  0.00    +0.000 S 
ENDBRANCH   4   7
BRANCH   1  16
ATOM     16  N   UNL     1       3.395   4.632  18.866  0.00  0.00    +0.000 N 
ATOM     17  H   UNL     1       3.133   4.114  18.025  0.00  0.00    +0.000 HD
BRANCH  16  18
ATOM     18  S   UNL     1       5.084   4.520  19.026  0.00  0.00    +0.000 S 
ATOM     19  O   UNL     1       5.405   3.224  19.585  0.00  0.00    +0.000 OA
ATOM     20  O   UNL     1       5.525   5.737  19.676  0.00  0.00    +0.000 OA
BRANCH  18  24
ATOM     21  C   UNL     1       6.025   4.111  14.968  0.00  0.00    +0.000 A 
ATOM     22  C   UNL     1       7.183   4.600  15.536  0.00  0.00    +0.000 A 
ATOM     23  C   UNL     1       7.033   4.847  16.930  0.00  0.00    +0.000 A 
ATOM     24  C   UNL     1       5.777   4.507  17.390  0.00  0.00    +0.000 A 
ATOM     25  S   UNL     1       4.791   3.896  16.137  0.00  0.00    +0.000 S 
BRANCH  21  27
ATOM     26  C   UNL     1       6.956   4.186  12.660  0.00  0.00    +0.000 C 
ATOM     27  C   UNL     1       5.772   3.786  13.528  0.00  0.00    +0.000 C 
ENDBRANCH  21  27
ENDBRANCH  18  24
ENDBRANCH  16  18
ENDBRANCH   1  16
TORSDOF 5
ENDMDL
MODEL 3
REMARK VINA RESULT:      -7.6      3.769     10.034
REMARK  Name = 
REMARK  6 active torsions:
REMARK  status: ('A' for Active; 'I' for Inactive)
REMARK    1  A    between atoms: C_1  and  C_2
REMARK    2  A    between atoms: C_2  and  C_3
REMARK    3  A    between atoms: C_6  and  S_7
REMARK    4  A    between atoms: S_7  and  N_10
REMARK    5  A    between atoms: N_10  and  C_11
REMARK    6  A    between atoms: C_14  and  C_15
REMARK                            x       y       z     vdW  Elec       q    Type
REMARK                         _______ _______ _______ _____ _____    ______ ____
ROOT
ATOM      1  C   UNL     1       1.237  10.045  19.064  0.00  0.00    +0.000 A 
ATOM      2  C   UNL     1       1.196   9.244  20.201  0.00  0.00    +0.000 A 
ATOM      3  C   UNL     1       1.692   7.937  20.153  0.00  0.00    +0.000 A 
ATOM      4  C   UNL     1       2.251   7.413  18.975  0.00  0.00    +0.000 A 
ATOM      5  C   UNL     1       2.314   8.251  17.848  0.00  0.00    +0.000 A 
ATOM      6  C   UNL     1       1.816   9.560  17.893  0.00  0.00    +0.000 A 
ENDROOT
BRANCH   4   7
ATOM      7  C   UNL     1       2.711   6.012  18.870  0.00  0.00    +0.000 A 
ATOM      8  N   UNL     1       2.004   5.041  18.317  0.00  0.00    +0.000 NA
ATOM      9  C   UNL     1       2.662   3.833  18.480  0.00  0.00    +0.000 A 
ATOM     10  C   UNL     1       2.224   2.552  18.100  0.00  0.00    +0.000 A 
ATOM     11  C   UNL     1       3.047   1.463  18.396  0.00  0.00    +0.000 A 
ATOM     12  C   UNL     1       4.258   1.692  19.036  0.00  0.00    +0.000 A 
ATOM     13  N   UNL     1       4.733   2.899  19.409  0.00  0.00    +0.000 NA
ATOM     14  C   UNL     1       3.898   3.916  19.110  0.00  0.00    +0.000 A 
ATOM     15  S   UNL     1       4.250   5.532  19.493  0.00  0.00    +0.000 S 
ENDBRANCH   4   7
BRANCH   1  16
ATOM     16  N   UNL     1       0.742  11.384  19.112  0.00  0.00    +0.000 N 
ATOM     17  H   UNL     1       1.142  11.994  18.398  0.00  0.00    +0.000 HD
BRANCH  16  18
ATOM     18  S   UNL     1      -0.948  11.553  19.037  0.00  0.00    +0.000 S 
ATOM     19  O   UNL     1      -1.516  10.286  18.627  0.00  0.00    +0.000 OA
ATOM     20  O   UNL     1      -1.215  12.763  18.286  0.00  0.00    +0.000 OA
BRANCH  18  24
ATOM     21  C   UNL     1      -2.863  12.670  22.587  0.00  0.00    +0.000 A 
ATOM     22  C   UNL     1      -1.784  11.919  23.006  0.00  0.00    +0.000 A 
ATOM     23  C   UNL     1      -1.030  11.409  21.913  0.00  0.00    +0.000 A 
ATOM     24  C   UNL     1      -1.535  11.813  20.694  0.00  0.00    +0.000 A 
ATOM     25  S   UNL     1      -2.914  12.803  20.880  0.00  0.00    +0.000 S 
BRANCH  21  27
ATOM     26  C   UNL     1      -4.306  12.431  24.602  0.00  0.00    +0.000 C 
ATOM     27  C   UNL     1      -3.916  13.321  23.431  0.00  0.00    +0.000 C 
ENDBRANCH  21  27
ENDBRANCH  18  24
ENDBRANCH  16  18
ENDBRANCH   1  16
TORSDOF 5
ENDMDL
MODEL 4
REMARK VINA RESULT:      -7.6      0.397      1.025
REMARK  Name = 
REMARK  6 active torsions:
REMARK  status: ('A' for Active; 'I' for Inactive)
REMARK    1  A    between atoms: C_1  and  C_2
REMARK    2  A    between atoms: C_2  and  C_3
REMARK    3  A    between atoms: C_6  and  S_7
REMARK    4  A    between atoms: S_7  and  N_10
REMARK    5  A    between atoms: N_10  and  C_11
REMARK    6  A    between atoms: C_14  and  C_15
REMARK                            x       y       z     vdW  Elec       q    Type
REMARK                         _______ _______ _______ _____ _____    ______ ____
ROOT
ATOM      1  C   UNL     1       2.703   5.816  19.020  0.00  0.00    +0.000 A 
ATOM      2  C   UNL     1       2.068   5.777  20.257  0.00  0.00    +0.000 A 
ATOM      3  C   UNL     1       1.458   6.929  20.766  0.00  0.00    +0.000 A 
ATOM      4  C   UNL     1       1.460   8.134  20.042  0.00  0.00    +0.000 A 
ATOM      5  C   UNL     1       2.078   8.142  18.780  0.00  0.00    +0.000 A 
ATOM      6  C   UNL     1       2.690   6.990  18.269  0.00  0.00    +0.000 A 
ENDROOT
BRANCH   4   7
ATOM      7  C   UNL     1       0.895   9.387  20.587  0.00  0.00    +0.000 A 
ATOM      8  N   UNL     1       0.264   9.471  21.746  0.00  0.00    +0.000 NA
ATOM      9  C   UNL     1      -0.240  10.750  21.912  0.00  0.00    +0.000 A 
ATOM     10  C   UNL     1      -1.028  11.239  22.969  0.00  0.00    +0.000 A 
ATOM     11  C   UNL     1      -1.454  12.568  22.909  0.00  0.00    +0.000 A 
ATOM     12  C   UNL     1      -1.075  13.346  21.824  0.00  0.00    +0.000 A 
ATOM     13  N   UNL     1      -0.309  12.933  20.791  0.00  0.00    +0.000 NA
ATOM     14  C   UNL     1       0.068  11.642  20.891  0.00  0.00    +0.000 A 
ATOM     15  S   UNL     1       1.016  10.872  19.711  0.00  0.00    +0.000 S 
ENDBRANCH   4   7
BRANCH   1  16
ATOM     16  N   UNL     1       3.316   4.639  18.492  0.00  0.00    +0.000 N 
ATOM     17  H   UNL     1       3.212   4.542  17.480  0.00  0.00    +0.000 HD
BRANCH  16  18
ATOM     18  S   UNL     1       4.965   4.434  18.855  0.00  0.00    +0.000 S 
ATOM     19  O   UNL     1       5.170   3.071  19.295  0.00  0.00    +0.000 OA
ATOM     20  O   UNL     1       5.350   5.551  19.694  0.00  0.00    +0.000 OA
BRANCH  18  24
ATOM     21  C   UNL     1       6.499   4.300  14.963  0.00  0.00    +0.000 A 
ATOM     22  C   UNL     1       7.488   4.924  15.696  0.00  0.00    +0.000 A 
ATOM     23  C   UNL     1       7.116   5.100  17.058  0.00  0.00    +0.000 A 
ATOM     24  C   UNL     1       5.869   4.575  17.332  0.00  0.00    +0.000 A 
ATOM     25  S   UNL     1       5.160   3.876  15.944  0.00  0.00    +0.000 S 
BRANCH  21  27
ATOM     26  C   UNL     1       5.085   3.697  13.005  0.00  0.00    +0.000 C 
ATOM     27  C   UNL     1       6.494   3.994  13.497  0.00  0.00    +0.000 C 
ENDBRANCH  21  27
ENDBRANCH  18  24
ENDBRANCH  16  18
ENDBRANCH   1  16
TORSDOF 5
ENDMDL
MODEL 5
REMARK VINA RESULT:      -7.5      1.104      1.684
REMARK  Name = 
REMARK  6 active torsions:
REMARK  status: ('A' for Active; 'I' for Inactive)
REMARK    1  A    between atoms: C_1  and  C_2
REMARK    2  A    between atoms: C_2  and  C_3
REMARK    3  A    between atoms: C_6  and  S_7
REMARK    4  A    between atoms: S_7  and  N_10
REMARK    5  A    between atoms: N_10  and  C_11
REMARK    6  A    between atoms: C_14  and  C_15
REMARK                            x       y       z     vdW  Elec       q    Type
REMARK                         _______ _______ _______ _____ _____    ______ ____
ROOT
ATOM      1  C   UNL     1       2.738   5.887  18.980  0.00  0.00    +0.000 A 
ATOM      2  C   UNL     1       2.159   5.828  20.244  0.00  0.00    +0.000 A 
ATOM      3  C   UNL     1       1.521   6.955  20.774  0.00  0.00    +0.000 A 
ATOM      4  C   UNL     1       1.439   8.154  20.046  0.00  0.00    +0.000 A 
ATOM      5  C   UNL     1       2.001   8.181  18.758  0.00  0.00    +0.000 A 
ATOM      6  C   UNL     1       2.641   7.055  18.226  0.00  0.00    +0.000 A 
ENDROOT
BRANCH   4   7
ATOM      7  C   UNL     1       0.843   9.384  20.609  0.00  0.00    +0.000 A 
ATOM      8  N   UNL     1       0.902  10.569  20.025  0.00  0.00    +0.000 NA
ATOM      9  C   UNL     1       0.351  11.529  20.858  0.00  0.00    +0.000 A 
ATOM     10  C   UNL     1       0.276  12.917  20.647  0.00  0.00    +0.000 A 
ATOM     11  C   UNL     1      -0.299  13.702  21.648  0.00  0.00    +0.000 A 
ATOM     12  C   UNL     1      -0.780  13.082  22.794  0.00  0.00    +0.000 A 
ATOM     13  N   UNL     1      -0.748  11.756  23.041  0.00  0.00    +0.000 NA
ATOM     14  C   UNL     1      -0.174  11.043  22.050  0.00  0.00    +0.000 A 
ATOM     15  S   UNL     1       0.010   9.357  22.124  0.00  0.00    +0.000 S 
ENDBRANCH   4   7
BRANCH   1  16
ATOM     16  N   UNL     1       3.379   4.734  18.431  0.00  0.00    +0.000 N 
ATOM     17  H   UNL     1       3.203   4.605  17.433  0.00  0.00    +0.000 HD
BRANCH  16  18
ATOM     18  S   UNL     1       5.060   4.638  18.667  0.00  0.00    +0.000 S 
ATOM     19  O   UNL     1       5.368   3.342  19.234  0.00  0.00    +0.000 OA
ATOM     20  O   UNL     1       5.458   5.856  19.342  0.00  0.00    +0.000 OA
BRANCH  18  24
ATOM     21  C   UNL     1       6.254   4.147  14.686  0.00  0.00    +0.000 A 
ATOM     22  C   UNL     1       7.290   4.851  15.265  0.00  0.00    +0.000 A 
ATOM     23  C   UNL     1       7.033   5.153  16.632  0.00  0.00    +0.000 A 
ATOM     24  C   UNL     1       5.827   4.641  17.064  0.00  0.00    +0.000 A 
ATOM     25  S   UNL     1       5.015   3.803  15.817  0.00  0.00    +0.000 S 
BRANCH  21  27
ATOM     26  C   UNL     1       7.174   4.371  12.383  0.00  0.00    +0.000 C 
ATOM     27  C   UNL     1       6.129   3.700  13.262  0.00  0.00    +0.000 C 
ENDBRANCH  21  27
ENDBRANCH  18  24
ENDBRANCH  16  18
ENDBRANCH   1  16
TORSDOF 5
ENDMDL
MODEL 6
REMARK VINA RESULT:      -7.5      1.828      2.439
REMARK  Name = 
REMARK  6 active torsions:
REMARK  status: ('A' for Active; 'I' for Inactive)
REMARK    1  A    between atoms: C_1  and  C_2
REMARK    2  A    between atoms: C_2  and  C_3
REMARK    3  A    between atoms: C_6  and  S_7
REMARK    4  A    between atoms: S_7  and  N_10
REMARK    5  A    between atoms: N_10  and  C_11
REMARK    6  A    between atoms: C_14  and  C_15
REMARK                            x       y       z     vdW  Elec       q    Type
REMARK                         _______ _______ _______ _____ _____    ______ ____
ROOT
ATOM      1  C   UNL     1       4.237   5.547  17.781  0.00  0.00    +0.000 A 
ATOM      2  C   UNL     1       3.842   6.732  17.169  0.00  0.00    +0.000 A 
ATOM      3  C   UNL     1       3.071   7.661  17.876  0.00  0.00    +0.000 A 
ATOM      4  C   UNL     1       2.694   7.428  19.211  0.00  0.00    +0.000 A 
ATOM      5  C   UNL     1       3.133   6.240  19.820  0.00  0.00    +0.000 A 
ATOM      6  C   UNL     1       3.904   5.308  19.113  0.00  0.00    +0.000 A 
ENDROOT
BRANCH   4   7
ATOM      7  C   UNL     1       1.815   8.351  19.959  0.00  0.00    +0.000 A 
ATOM      8  N   UNL     1       1.576   8.257  21.256  0.00  0.00    +0.000 NA
ATOM      9  C   UNL     1       0.627   9.196  21.626  0.00  0.00    +0.000 A 
ATOM     10  C   UNL     1       0.047   9.386  22.893  0.00  0.00    +0.000 A 
ATOM     11  C   UNL     1      -0.922  10.382  23.026  0.00  0.00    +0.000 A 
ATOM     12  C   UNL     1      -1.259  11.144  21.916  0.00  0.00    +0.000 A 
ATOM     13  N   UNL     1      -0.724  11.016  20.684  0.00  0.00    +0.000 NA
ATOM     14  C   UNL     1       0.199  10.034  20.604  0.00  0.00    +0.000 A 
ATOM     15  S   UNL     1       1.005   9.653  19.160  0.00  0.00    +0.000 S 
ENDBRANCH   4   7
BRANCH   1  16
ATOM     16  N   UNL     1       5.035   4.602  17.065  0.00  0.00    +0.000 N 
ATOM     17  H   UNL     1       4.532   4.131  16.311  0.00  0.00    +0.000 HD
BRANCH  16  18
ATOM     18  S   UNL     1       6.486   5.200  16.413  0.00  0.00    +0.000 S 
ATOM     19  O   UNL     1       7.590   4.519  17.055  0.00  0.00    +0.000 OA
ATOM     20  O   UNL     1       6.392   6.645  16.436  0.00  0.00    +0.000 OA
BRANCH  18  24
ATOM     21  C   UNL     1       6.037   3.516  12.607  0.00  0.00    +0.000 A 
ATOM     22  C   UNL     1       7.171   4.294  12.501  0.00  0.00    +0.000 A 
ATOM     23  C   UNL     1       7.458   4.990  13.708  0.00  0.00    +0.000 A 
ATOM     24  C   UNL     1       6.555   4.697  14.710  0.00  0.00    +0.000 A 
ATOM     25  S   UNL     1       5.369   3.586  14.183  0.00  0.00    +0.000 S 
BRANCH  21  27
ATOM     26  C   UNL     1       4.016   3.240  11.180  0.00  0.00    +0.000 C 
ATOM     27  C   UNL     1       5.386   2.687  11.542  0.00  0.00    +0.000 C 
ENDBRANCH  21  27
ENDBRANCH  18  24
ENDBRANCH  16  18
ENDBRANCH   1  16
TORSDOF 5
ENDMDL
MODEL 7
REMARK VINA RESULT:      -7.5      2.517      3.474
REMARK  Name = 
REMARK  6 active torsions:
REMARK  status: ('A' for Active; 'I' for Inactive)
REMARK    1  A    between atoms: C_1  and  C_2
REMARK    2  A    between atoms: C_2  and  C_3
REMARK    3  A    between atoms: C_6  and  S_7
REMARK    4  A    between atoms: S_7  and  N_10
REMARK    5  A    between atoms: N_10  and  C_11
REMARK    6  A    between atoms: C_14  and  C_15
REMARK                            x       y       z     vdW  Elec       q    Type
REMARK                         _______ _______ _______ _____ _____    ______ ____
ROOT
ATOM      1  C   UNL     1       3.821   5.499  17.728  0.00  0.00    +0.000 A 
ATOM      2  C   UNL     1       3.348   5.137  18.985  0.00  0.00    +0.000 A 
ATOM      3  C   UNL     1       2.599   6.047  19.740  0.00  0.00    +0.000 A 
ATOM      4  C   UNL     1       2.298   7.327  19.245  0.00  0.00    +0.000 A 
ATOM      5  C   UNL     1       2.756   7.660  17.959  0.00  0.00    +0.000 A 
ATOM      6  C   UNL     1       3.508   6.752  17.203  0.00  0.00    +0.000 A 
ENDROOT
BRANCH   4   7
ATOM      7  C   UNL     1       1.577   8.338  20.048  0.00  0.00    +0.000 A 
ATOM      8  N   UNL     1       1.206   8.157  21.304  0.00  0.00    +0.000 NA
ATOM      9  C   UNL     1       0.456   9.240  21.731  0.00  0.00    +0.000 A 
ATOM     10  C   UNL     1      -0.182   9.416  22.972  0.00  0.00    +0.000 A 
ATOM     11  C   UNL     1      -0.917  10.586  23.171  0.00  0.00    +0.000 A 
ATOM     12  C   UNL     1      -0.976  11.524  22.149  0.00  0.00    +0.000 A 
ATOM     13  N   UNL     1      -0.371  11.414  20.947  0.00  0.00    +0.000 NA
ATOM     14  C   UNL     1       0.317  10.263  20.800  0.00  0.00    +0.000 A 
ATOM     15  S   UNL     1       1.149   9.871  19.374  0.00  0.00    +0.000 S 
ENDBRANCH   4   7
BRANCH   1  16
ATOM     16  N   UNL     1       4.576   4.568  16.951  0.00  0.00    +0.000 N 
ATOM     17  H   UNL     1       4.021   4.078  16.247  0.00  0.00    +0.000 HD
BRANCH  16  18
ATOM     18  S   UNL     1       5.948   5.197  16.168  0.00  0.00    +0.000 S 
ATOM     19  O   UNL     1       5.519   6.237  15.258  0.00  0.00    +0.000 OA
ATOM     20  O   UNL     1       6.715   4.064  15.692  0.00  0.00    +0.000 OA
BRANCH  18  24
ATOM     21  C   UNL     1       8.251   7.774  18.531  0.00  0.00    +0.000 A 
ATOM     22  C   UNL     1       8.295   6.569  19.202  0.00  0.00    +0.000 A 
ATOM     23  C   UNL     1       7.517   5.567  18.556  0.00  0.00    +0.000 A 
ATOM     24  C   UNL     1       6.930   6.027  17.395  0.00  0.00    +0.000 A 
ATOM     25  S   UNL     1       7.322   7.662  17.096  0.00  0.00    +0.000 S 
BRANCH  21  27
ATOM     26  C   UNL     1       8.518  10.180  17.951  0.00  0.00    +0.000 C 
ATOM     27  C   UNL     1       8.888   9.071  18.925  0.00  0.00    +0.000 C 
ENDBRANCH  21  27
ENDBRANCH  18  24
ENDBRANCH  16  18
ENDBRANCH   1  16
TORSDOF 5
ENDMDL
MODEL 8
REMARK VINA RESULT:      -7.4      1.949      2.936
REMARK  Name = 
REMARK  6 active torsions:
REMARK  status: ('A' for Active; 'I' for Inactive)
REMARK    1  A    between atoms: C_1  and  C_2
REMARK    2  A    between atoms: C_2  and  C_3
REMARK    3  A    between atoms: C_6  and  S_7
REMARK    4  A    between atoms: S_7  and  N_10
REMARK    5  A    between atoms: N_10  and  C_11
REMARK    6  A    between atoms: C_14  and  C_15
REMARK                            x       y       z     vdW  Elec       q    Type
REMARK                         _______ _______ _______ _____ _____    ______ ____
ROOT
ATOM      1  C   UNL     1       4.556   5.370  17.834  0.00  0.00    +0.000 A 
ATOM      2  C   UNL     1       3.915   5.119  19.043  0.00  0.00    +0.000 A 
ATOM      3  C   UNL     1       2.992   6.040  19.550  0.00  0.00    +0.000 A 
ATOM      4  C   UNL     1       2.683   7.220  18.851  0.00  0.00    +0.000 A 
ATOM      5  C   UNL     1       3.317   7.437  17.615  0.00  0.00    +0.000 A 
ATOM      6  C   UNL     1       4.243   6.517  17.107  0.00  0.00    +0.000 A 
ENDROOT
BRANCH   4   7
ATOM      7  C   UNL     1       1.774   8.249  19.396  0.00  0.00    +0.000 A 
ATOM      8  N   UNL     1       1.271   9.244  18.685  0.00  0.00    +0.000 NA
ATOM      9  C   UNL     1       0.553  10.094  19.511  0.00  0.00    +0.000 A 
ATOM     10  C   UNL     1      -0.082  11.300  19.168  0.00  0.00    +0.000 A 
ATOM     11  C   UNL     1      -0.725  12.013  20.182  0.00  0.00    +0.000 A 
ATOM     12  C   UNL     1      -0.721  11.498  21.471  0.00  0.00    +0.000 A 
ATOM     13  N   UNL     1      -0.141  10.340  21.852  0.00  0.00    +0.000 NA
ATOM     14  C   UNL     1       0.475   9.695  20.840  0.00  0.00    +0.000 A 
ATOM     15  S   UNL     1       1.299   8.227  21.058  0.00  0.00    +0.000 S 
ENDBRANCH   4   7
BRANCH   1  16
ATOM     16  N   UNL     1       5.490   4.425  17.308  0.00  0.00    +0.000 N 
ATOM     17  H   UNL     1       5.074   3.758  16.656  0.00  0.00    +0.000 HD
BRANCH  16  18
ATOM     18  S   UNL     1       6.865   5.083  16.554  0.00  0.00    +0.000 S 
ATOM     19  O   UNL     1       8.033   4.380  17.039  0.00  0.00    +0.000 OA
ATOM     20  O   UNL     1       6.761   6.523  16.678  0.00  0.00    +0.000 OA
BRANCH  18  24
ATOM     21  C   UNL     1       6.016   3.672  12.706  0.00  0.00    +0.000 A 
ATOM     22  C   UNL     1       7.178   4.398  12.551  0.00  0.00    +0.000 A 
ATOM     23  C   UNL     1       7.600   5.001  13.769  0.00  0.00    +0.000 A 
ATOM     24  C   UNL     1       6.766   4.688  14.824  0.00  0.00    +0.000 A 
ATOM     25  S   UNL     1       5.484   3.673  14.334  0.00  0.00    +0.000 S 
BRANCH  21  27
ATOM     26  C   UNL     1       5.871   1.602  11.330  0.00  0.00    +0.000 C 
ATOM     27  C   UNL     1       5.236   2.946  11.653  0.00  0.00    +0.000 C 
ENDBRANCH  21  27
ENDBRANCH  18  24
ENDBRANCH  16  18
ENDBRANCH   1  16
TORSDOF 5
ENDMDL
MODEL 9
REMARK VINA RESULT:      -7.4      0.868      1.018
REMARK  Name = 
REMARK  6 active torsions:
REMARK  status: ('A' for Active; 'I' for Inactive)
REMARK    1  A    between atoms: C_1  and  C_2
REMARK    2  A    between atoms: C_2  and  C_3
REMARK    3  A    between atoms: C_6  and  S_7
REMARK    4  A    between atoms: S_7  and  N_10
REMARK    5  A    between atoms: N_10  and  C_11
REMARK    6  A    between atoms: C_14  and  C_15
REMARK                            x       y       z     vdW  Elec       q    Type
REMARK                         _______ _______ _______ _____ _____    ______ ____
ROOT
ATOM      1  C   UNL     1       3.097   5.966  18.656  0.00  0.00    +0.000 A 
ATOM      2  C   UNL     1       2.870   7.127  17.924  0.00  0.00    +0.000 A 
ATOM      3  C   UNL     1       2.155   8.186  18.496  0.00  0.00    +0.000 A 
ATOM      4  C   UNL     1       1.668   8.108  19.812  0.00  0.00    +0.000 A 
ATOM      5  C   UNL     1       1.938   6.940  20.545  0.00  0.00    +0.000 A 
ATOM      6  C   UNL     1       2.652   5.878  19.975  0.00  0.00    +0.000 A 
ENDROOT
BRANCH   4   7
ATOM      7  C   UNL     1       0.843   9.175  20.416  0.00  0.00    +0.000 A 
ATOM      8  N   UNL     1       0.523   9.226  21.698  0.00  0.00    +0.000 NA
ATOM      9  C   UNL     1      -0.349  10.280  21.920  0.00  0.00    +0.000 A 
ATOM     10  C   UNL     1      -0.979  10.642  23.124  0.00  0.00    +0.000 A 
ATOM     11  C   UNL     1      -1.851  11.732  23.105  0.00  0.00    +0.000 A 
ATOM     12  C   UNL     1      -2.048  12.414  21.912  0.00  0.00    +0.000 A 
ATOM     13  N   UNL     1      -1.459  12.120  20.734  0.00  0.00    +0.000 NA
ATOM     14  C   UNL     1      -0.634  11.054  20.802  0.00  0.00    +0.000 A 
ATOM     15  S   UNL     1       0.212  10.465  19.453  0.00  0.00    +0.000 S 
ENDBRANCH   4   7
BRANCH   1  16
ATOM     16  N   UNL     1       3.836   4.888  18.080  0.00  0.00    +0.000 N 
ATOM     17  H   UNL     1       3.538   4.647  17.133  0.00  0.00    +0.000 HD
BRANCH  16  18
ATOM     18  S   UNL     1       5.525   5.081  18.048  0.00  0.00    +0.000 S 
ATOM     19  O   UNL     1       6.124   3.990  18.786  0.00  0.00    +0.000 OA
ATOM     20  O   UNL     1       5.796   6.458  18.408  0.00  0.00    +0.000 OA
BRANCH  18  24
ATOM     21  C   UNL     1       6.121   4.071  14.029  0.00  0.00    +0.000 A 
ATOM     22  C   UNL     1       7.260   4.769  14.376  0.00  0.00    +0.000 A 
ATOM     23  C   UNL     1       7.213   5.238  15.718  0.00  0.00    +0.000 A 
ATOM     24  C   UNL     1       6.057   4.856  16.367  0.00  0.00    +0.000 A 
ATOM     25  S   UNL     1       5.039   3.936  15.350  0.00  0.00    +0.000 S 
BRANCH  21  27
ATOM     26  C   UNL     1       7.005   3.368  11.811  0.00  0.00    +0.000 C 
ATOM     27  C   UNL     1       5.775   3.477  12.699  0.00  0.00    +0.000 C 
ENDBRANCH  21  27
ENDBRANCH  18  24
ENDBRANCH  16  18
ENDBRANCH   1  16
TORSDOF 5
ENDMDL
