MODEL 1
REMARK VINA RESULT:      -6.7      0.000      0.000
REMARK  Name = 
REMARK  5 active torsions:
REMARK  status: ('A' for Active; 'I' for Inactive)
REMARK    1  A    between atoms: C_1  and  C_2
REMARK    2  A    between atoms: C_7  and  C_8
REMARK    3  A    between atoms: N_9  and  C_10
REMARK    4  A    between atoms: C_10  and  C_11
REMARK    5  A    between atoms: C_11  and  O_12
REMARK                            x       y       z     vdW  Elec       q    Type
REMARK                         _______ _______ _______ _____ _____    ______ ____
ROOT
ATOM      1  C   UNL     1       8.098   5.343  13.290  0.00  0.00    +0.000 C 
ATOM      2  C   UNL     1       7.067   5.071  14.345  0.00  0.00    +0.000 A 
ATOM      3  N   UNL     1       7.261   5.656  15.552  0.00  0.00    +0.000 NA
ATOM      4  C   UNL     1       6.373   5.301  16.527  0.00  0.00    +0.000 A 
ATOM      5  C   UNL     1       5.291   4.453  16.323  0.00  0.00    +0.000 A 
ATOM      6  N   UNL     1       5.110   3.885  15.112  0.00  0.00    +0.000 NA
ATOM      7  C   UNL     1       5.992   4.200  14.124  0.00  0.00    +0.000 A 
ATOM      8  C   UNL     1       5.782   3.518  12.805  0.00  0.00    +0.000 C 
ATOM      9  N   UNL     1       4.557   3.848  17.396  0.00  0.00    +0.000 N 
ATOM     10  S   UNL     1       4.502   4.894  18.751  0.00  0.00    +0.000 S 
ATOM     11  O   UNL     1       3.537   5.920  18.408  0.00  0.00    +0.000 OA
ATOM     12  O   UNL     1       4.267   4.054  19.906  0.00  0.00    +0.000 OA
ATOM     13  N   UNL     1       5.929   5.628  18.926  0.00  0.00    +0.000 NA
ATOM     14  C   UNL     1       6.685   5.815  17.891  0.00  0.00    +0.000 C 
ATOM     15  N   UNL     1       7.844   6.544  18.055  0.00  0.00    +0.000 N 
ATOM     16  H   UNL     1       7.846   7.163  18.859  0.00  0.00    +0.000 HD
ATOM     17  H   UNL     1       8.225   6.950  17.202  0.00  0.00    +0.000 HD
ENDROOT
BRANCH   9  18
ATOM     18  C   UNL     1       3.185   3.296  17.103  0.00  0.00    +0.000 C 
BRANCH  18  19
ATOM     19  C   UNL     1       2.831   2.008  17.851  0.00  0.00    +0.000 C 
BRANCH  19  20
ATOM     20  O   UNL     1       3.991   1.334  18.322  0.00  0.00    +0.000 OA
ATOM     21  H   UNL     1       3.938   0.430  17.960  0.00  0.00    +0.000 HD
ENDBRANCH  19  20
ENDBRANCH  18  19
ENDBRANCH   9  18
TORSDOF 3
ENDMDL
MODEL 2
REMARK VINA RESULT:      -6.4      2.803      3.762
REMARK  Name = 
REMARK  5 active torsions:
REMARK  status: ('A' for Active; 'I' for Inactive)
REMARK    1  A    between atoms: C_1  and  C_2
REMARK    2  A    between atoms: C_7  and  C_8
REMARK    3  A    between atoms: N_9  and  C_10
REMARK    4  A    between atoms: C_10  and  C_11
REMARK    5  A    between atoms: C_11  and  O_12
REMARK                            x       y       z     vdW  Elec       q    Type
REMARK                         _______ _______ _______ _____ _____    ______ ____
ROOT
ATOM      1  C   UNL     1       5.032   7.017  16.083  0.00  0.00    +0.000 C 
ATOM      2  C   UNL     1       4.553   5.923  16.991  0.00  0.00    +0.000 A 
ATOM      3  N   UNL     1       3.699   6.282  17.979  0.00  0.00    +0.000 NA
ATOM      4  C   UNL     1       3.369   5.292  18.861  0.00  0.00    +0.000 A 
ATOM      5  C   UNL     1       3.804   3.977  18.751  0.00  0.00    +0.000 A 
ATOM      6  N   UNL     1       4.649   3.636  17.756  0.00  0.00    +0.000 NA
ATOM      7  C   UNL     1       5.016   4.607  16.873  0.00  0.00    +0.000 A 
ATOM      8  C   UNL     1       5.989   4.199  15.806  0.00  0.00    +0.000 C 
ATOM      9  N   UNL     1       3.713   3.030  19.824  0.00  0.00    +0.000 N 
ATOM     10  S   UNL     1       2.319   3.330  20.773  0.00  0.00    +0.000 S 
ATOM     11  O   UNL     1       1.204   2.841  19.986  0.00  0.00    +0.000 OA
ATOM     12  O   UNL     1       2.579   2.751  22.074  0.00  0.00    +0.000 OA
ATOM     13  N   UNL     1       2.113   4.922  20.944  0.00  0.00    +0.000 NA
ATOM     14  C   UNL     1       2.564   5.728  20.037  0.00  0.00    +0.000 C 
ATOM     15  N   UNL     1       2.274   7.071  20.157  0.00  0.00    +0.000 N 
ATOM     16  H   UNL     1       1.460   7.280  20.726  0.00  0.00    +0.000 HD
ATOM     17  H   UNL     1       2.341   7.608  19.294  0.00  0.00    +0.000 HD
ENDROOT
BRANCH   9  18
ATOM     18  C   UNL     1       3.819   1.563  19.495  0.00  0.00    +0.000 C 
BRANCH  18  19
ATOM     19  C   UNL     1       4.989   0.832  20.160  0.00  0.00    +0.000 C 
BRANCH  19  20
ATOM     20  O   UNL     1       5.396   1.469  21.364  0.00  0.00    +0.000 OA
ATOM     21  H   UNL     1       4.604   1.926  21.703  0.00  0.00    +0.000 HD
ENDBRANCH  19  20
ENDBRANCH  18  19
ENDBRANCH   9  18
TORSDOF 3
ENDMDL
MODEL 3
REMARK VINA RESULT:      -6.4      3.098      5.337
REMARK  Name = 
REMARK  5 active torsions:
REMARK  status: ('A' for Active; 'I' for Inactive)
REMARK    1  A    between atoms: C_1  and  C_2
REMARK    2  A    between atoms: C_7  and  C_8
REMARK    3  A    between atoms: N_9  and  C_10
REMARK    4  A    between atoms: C_10  and  C_11
REMARK    5  A    between atoms: C_11  and  O_12
REMARK                            x       y       z     vdW  Elec       q    Type
REMARK                         _______ _______ _______ _____ _____    ______ ____
ROOT
ATOM      1  C   UNL     1       2.268   3.297  21.381  0.00  0.00    +0.000 C 
ATOM      2  C   UNL     1       3.145   3.836  20.291  0.00  0.00    +0.000 A 
ATOM      3  N   UNL     1       2.878   5.092  19.860  0.00  0.00    +0.000 NA
ATOM      4  C   UNL     1       3.615   5.517  18.791  0.00  0.00    +0.000 A 
ATOM      5  C   UNL     1       4.625   4.769  18.196  0.00  0.00    +0.000 A 
ATOM      6  N   UNL     1       4.882   3.522  18.644  0.00  0.00    +0.000 NA
ATOM      7  C   UNL     1       4.147   3.061  19.695  0.00  0.00    +0.000 A 
ATOM      8  C   UNL     1       4.433   1.656  20.137  0.00  0.00    +0.000 C 
ATOM      9  N   UNL     1       5.175   5.080  16.909  0.00  0.00    +0.000 N 
ATOM     10  S   UNL     1       5.182   6.773  16.652  0.00  0.00    +0.000 S 
ATOM     11  O   UNL     1       6.274   7.281  17.458  0.00  0.00    +0.000 OA
ATOM     12  O   UNL     1       5.207   6.967  15.217  0.00  0.00    +0.000 OA
ATOM     13  N   UNL     1       3.824   7.416  17.239  0.00  0.00    +0.000 NA
ATOM     14  C   UNL     1       3.207   6.830  18.216  0.00  0.00    +0.000 C 
ATOM     15  N   UNL     1       2.114   7.463  18.768  0.00  0.00    +0.000 N 
ATOM     16  H   UNL     1       2.084   8.466  18.619  0.00  0.00    +0.000 HD
ATOM     17  H   UNL     1       1.870   7.163  19.711  0.00  0.00    +0.000 HD
ENDROOT
BRANCH   9  18
ATOM     18  C   UNL     1       6.509   4.486  16.539  0.00  0.00    +0.000 C 
BRANCH  18  19
ATOM     19  C   UNL     1       6.740   4.294  15.037  0.00  0.00    +0.000 C 
BRANCH  19  20
ATOM     20  O   UNL     1       7.605   5.289  14.504  0.00  0.00    +0.000 OA
ATOM     21  H   UNL     1       8.486   4.873  14.450  0.00  0.00    +0.000 HD
ENDBRANCH  19  20
ENDBRANCH  18  19
ENDBRANCH   9  18
TORSDOF 3
ENDMDL
MODEL 4
REMARK VINA RESULT:      -6.4      2.566      3.415
REMARK  Name = 
REMARK  5 active torsions:
REMARK  status: ('A' for Active; 'I' for Inactive)
REMARK    1  A    between atoms: C_1  and  C_2
REMARK    2  A    between atoms: C_7  and  C_8
REMARK    3  A    between atoms: N_9  and  C_10
REMARK    4  A    between atoms: C_10  and  C_11
REMARK    5  A    between atoms: C_11  and  O_12
REMARK                            x       y       z     vdW  Elec       q    Type
REMARK                         _______ _______ _______ _____ _____    ______ ____
ROOT
ATOM      1  C   UNL     1       7.020   7.430  17.227  0.00  0.00    +0.000 C 
ATOM      2  C   UNL     1       5.963   6.388  17.435  0.00  0.00    +0.000 A 
ATOM      3  N   UNL     1       4.748   6.825  17.845  0.00  0.00    +0.000 NA
ATOM      4  C   UNL     1       3.838   5.849  18.137  0.00  0.00    +0.000 A 
ATOM      5  C   UNL     1       4.078   4.490  17.977  0.00  0.00    +0.000 A 
ATOM      6  N   UNL     1       5.292   4.072  17.560  0.00  0.00    +0.000 NA
ATOM      7  C   UNL     1       6.229   5.021  17.282  0.00  0.00    +0.000 A 
ATOM      8  C   UNL     1       7.578   4.517  16.862  0.00  0.00    +0.000 C 
ATOM      9  N   UNL     1       3.253   3.475  18.564  0.00  0.00    +0.000 N 
ATOM     10  S   UNL     1       1.621   3.992  18.632  0.00  0.00    +0.000 S 
ATOM     11  O   UNL     1       1.125   3.885  17.275  0.00  0.00    +0.000 OA
ATOM     12  O   UNL     1       0.992   3.218  19.682  0.00  0.00    +0.000 OA
ATOM     13  N   UNL     1       1.565   5.554  19.034  0.00  0.00    +0.000 NA
ATOM     14  C   UNL     1       2.563   6.327  18.743  0.00  0.00    +0.000 C 
ATOM     15  N   UNL     1       2.437   7.676  18.999  0.00  0.00    +0.000 N 
ATOM     16  H   UNL     1       1.480   8.009  19.059  0.00  0.00    +0.000 HD
ATOM     17  H   UNL     1       3.066   8.278  18.470  0.00  0.00    +0.000 HD
ENDROOT
BRANCH   9  18
ATOM     18  C   UNL     1       3.337   2.075  18.010  0.00  0.00    +0.000 C 
BRANCH  18  19
ATOM     19  C   UNL     1       4.020   1.056  18.927  0.00  0.00    +0.000 C 
BRANCH  19  20
ATOM     20  O   UNL     1       4.987   1.667  19.771  0.00  0.00    +0.000 OA
ATOM     21  H   UNL     1       5.847   1.528  19.333  0.00  0.00    +0.000 HD
ENDBRANCH  19  20
ENDBRANCH  18  19
ENDBRANCH   9  18
TORSDOF 3
ENDMDL
MODEL 5
REMARK VINA RESULT:      -6.3      3.501      5.103
REMARK  Name = 
REMARK  5 active torsions:
REMARK  status: ('A' for Active; 'I' for Inactive)
REMARK    1  A    between atoms: C_1  and  C_2
REMARK    2  A    between atoms: C_7  and  C_8
REMARK    3  A    between atoms: N_9  and  C_10
REMARK    4  A    between atoms: C_10  and  C_11
REMARK    5  A    between atoms: C_11  and  O_12
REMARK                            x       y       z     vdW  Elec       q    Type
REMARK                         _______ _______ _______ _____ _____    ______ ____
ROOT
ATOM      1  C   UNL     1       2.316   9.378  18.039  0.00  0.00    +0.000 C 
ATOM      2  C   UNL     1       2.611   7.983  18.504  0.00  0.00    +0.000 A 
ATOM      3  N   UNL     1       3.428   7.239  17.719  0.00  0.00    +0.000 NA
ATOM      4  C   UNL     1       3.589   5.938  18.102  0.00  0.00    +0.000 A 
ATOM      5  C   UNL     1       3.025   5.390  19.248  0.00  0.00    +0.000 A 
ATOM      6  N   UNL     1       2.219   6.147  20.022  0.00  0.00    +0.000 NA
ATOM      7  C   UNL     1       2.020   7.444  19.653  0.00  0.00    +0.000 A 
ATOM      8  C   UNL     1       1.086   8.241  20.514  0.00  0.00    +0.000 C 
ATOM      9  N   UNL     1       2.940   3.977  19.480  0.00  0.00    +0.000 N 
ATOM     10  S   UNL     1       4.289   3.174  18.794  0.00  0.00    +0.000 S 
ATOM     11  O   UNL     1       5.397   3.452  19.687  0.00  0.00    +0.000 OA
ATOM     12  O   UNL     1       3.879   1.803  18.575  0.00  0.00    +0.000 OA
ATOM     13  N   UNL     1       4.650   3.842  17.371  0.00  0.00    +0.000 NA
ATOM     14  C   UNL     1       4.352   5.083  17.150  0.00  0.00    +0.000 C 
ATOM     15  N   UNL     1       4.774   5.653  15.968  0.00  0.00    +0.000 N 
ATOM     16  H   UNL     1       5.564   5.189  15.531  0.00  0.00    +0.000 HD
ATOM     17  H   UNL     1       4.825   6.671  15.971  0.00  0.00    +0.000 HD
ENDROOT
BRANCH   9  18
ATOM     18  C   UNL     1       2.702   3.496  20.888  0.00  0.00    +0.000 C 
BRANCH  18  19
ATOM     19  C   UNL     1       1.356   2.802  21.117  0.00  0.00    +0.000 C 
BRANCH  19  20
ATOM     20  O   UNL     1       0.342   3.318  20.264  0.00  0.00    +0.000 OA
ATOM     21  H   UNL     1      -0.208   3.894  20.826  0.00  0.00    +0.000 HD
ENDBRANCH  19  20
ENDBRANCH  18  19
ENDBRANCH   9  18
TORSDOF 3
ENDMDL
MODEL 6
REMARK VINA RESULT:      -6.2      3.568      5.645
REMARK  Name = 
REMARK  5 active torsions:
REMARK  status: ('A' for Active; 'I' for Inactive)
REMARK    1  A    between atoms: C_1  and  C_2
REMARK    2  A    between atoms: C_7  and  C_8
REMARK    3  A    between atoms: N_9  and  C_10
REMARK    4  A    between atoms: C_10  and  C_11
REMARK    5  A    between atoms: C_11  and  O_12
REMARK                            x       y       z     vdW  Elec       q    Type
REMARK                         _______ _______ _______ _____ _____    ______ ____
ROOT
ATOM      1  C   UNL     1       1.449   8.111  20.895  0.00  0.00    +0.000 C 
ATOM      2  C   UNL     1       1.908   6.923  20.104  0.00  0.00    +0.000 A 
ATOM      3  N   UNL     1       1.826   5.716  20.714  0.00  0.00    +0.000 NA
ATOM      4  C   UNL     1       2.356   4.667  20.017  0.00  0.00    +0.000 A 
ATOM      5  C   UNL     1       2.893   4.774  18.740  0.00  0.00    +0.000 A 
ATOM      6  N   UNL     1       2.959   5.984  18.145  0.00  0.00    +0.000 NA
ATOM      7  C   UNL     1       2.460   7.054  18.824  0.00  0.00    +0.000 A 
ATOM      8  C   UNL     1       2.589   8.387  18.147  0.00  0.00    +0.000 C 
ATOM      9  N   UNL     1       3.712   3.758  18.147  0.00  0.00    +0.000 N 
ATOM     10  S   UNL     1       3.219   2.205  18.675  0.00  0.00    +0.000 S 
ATOM     11  O   UNL     1       1.998   1.920  17.947  0.00  0.00    +0.000 OA
ATOM     12  O   UNL     1       4.364   1.335  18.510  0.00  0.00    +0.000 OA
ATOM     13  N   UNL     1       2.832   2.263  20.240  0.00  0.00    +0.000 NA
ATOM     14  C   UNL     1       2.414   3.375  20.757  0.00  0.00    +0.000 C 
ATOM     15  N   UNL     1       1.986   3.363  22.067  0.00  0.00    +0.000 N 
ATOM     16  H   UNL     1       1.700   2.452  22.413  0.00  0.00    +0.000 HD
ATOM     17  H   UNL     1       1.371   4.131  22.330  0.00  0.00    +0.000 HD
ENDROOT
BRANCH   9  18
ATOM     18  C   UNL     1       3.898   3.770  16.652  0.00  0.00    +0.000 C 
BRANCH  18  19
ATOM     19  C   UNL     1       5.325   4.062  16.178  0.00  0.00    +0.000 C 
BRANCH  19  20
ATOM     20  O   UNL     1       6.278   3.863  17.214  0.00  0.00    +0.000 OA
ATOM     21  H   UNL     1       6.297   2.902  17.375  0.00  0.00    +0.000 HD
ENDBRANCH  19  20
ENDBRANCH  18  19
ENDBRANCH   9  18
TORSDOF 3
ENDMDL
MODEL 7
REMARK VINA RESULT:      -6.2      2.672      3.554
REMARK  Name = 
REMARK  5 active torsions:
REMARK  status: ('A' for Active; 'I' for Inactive)
REMARK    1  A    between atoms: C_1  and  C_2
REMARK    2  A    between atoms: C_7  and  C_8
REMARK    3  A    between atoms: N_9  and  C_10
REMARK    4  A    between atoms: C_10  and  C_11
REMARK    5  A    between atoms: C_11  and  O_12
REMARK                            x       y       z     vdW  Elec       q    Type
REMARK                         _______ _______ _______ _____ _____    ______ ____
ROOT
ATOM      1  C   UNL     1       5.170   6.839  15.731  0.00  0.00    +0.000 C 
ATOM      2  C   UNL     1       4.607   5.919  16.773  0.00  0.00    +0.000 A 
ATOM      3  N   UNL     1       3.705   6.451  17.633  0.00  0.00    +0.000 NA
ATOM      4  C   UNL     1       3.295   5.626  18.641  0.00  0.00    +0.000 A 
ATOM      5  C   UNL     1       3.699   4.303  18.776  0.00  0.00    +0.000 A 
ATOM      6  N   UNL     1       4.592   3.787  17.906  0.00  0.00    +0.000 NA
ATOM      7  C   UNL     1       5.039   4.593  16.902  0.00  0.00    +0.000 A 
ATOM      8  C   UNL     1       6.061   3.998  15.980  0.00  0.00    +0.000 C 
ATOM      9  N   UNL     1       3.517   3.548  19.982  0.00  0.00    +0.000 N 
ATOM     10  S   UNL     1       2.077   4.025  20.778  0.00  0.00    +0.000 S 
ATOM     11  O   UNL     1       0.999   3.433  20.011  0.00  0.00    +0.000 OA
ATOM     12  O   UNL     1       2.242   3.664  22.170  0.00  0.00    +0.000 OA
ATOM     13  N   UNL     1       1.906   5.626  20.673  0.00  0.00    +0.000 NA
ATOM     14  C   UNL     1       2.434   6.264  19.676  0.00  0.00    +0.000 C 
ATOM     15  N   UNL     1       2.175   7.613  19.557  0.00  0.00    +0.000 N 
ATOM     16  H   UNL     1       1.334   7.928  20.031  0.00  0.00    +0.000 HD
ATOM     17  H   UNL     1       2.309   7.999  18.624  0.00  0.00    +0.000 HD
ENDROOT
BRANCH   9  18
ATOM     18  C   UNL     1       3.601   2.045  19.904  0.00  0.00    +0.000 C 
BRANCH  18  19
ATOM     19  C   UNL     1       3.198   1.442  18.556  0.00  0.00    +0.000 C 
BRANCH  19  20
ATOM     20  O   UNL     1       4.278   0.747  17.943  0.00  0.00    +0.000 OA
ATOM     21  H   UNL     1       3.913   0.358  17.127  0.00  0.00    +0.000 HD
ENDBRANCH  19  20
ENDBRANCH  18  19
ENDBRANCH   9  18
TORSDOF 3
ENDMDL
MODEL 8
REMARK VINA RESULT:      -6.1      3.103      3.714
REMARK  Name = 
REMARK  5 active torsions:
REMARK  status: ('A' for Active; 'I' for Inactive)
REMARK    1  A    between atoms: C_1  and  C_2
REMARK    2  A    between atoms: C_7  and  C_8
REMARK    3  A    between atoms: N_9  and  C_10
REMARK    4  A    between atoms: C_10  and  C_11
REMARK    5  A    between atoms: C_11  and  O_12
REMARK                            x       y       z     vdW  Elec       q    Type
REMARK                         _______ _______ _______ _____ _____    ______ ____
ROOT
ATOM      1  C   UNL     1       7.584   7.459  17.380  0.00  0.00    +0.000 C 
ATOM      2  C   UNL     1       6.504   6.478  17.724  0.00  0.00    +0.000 A 
ATOM      3  N   UNL     1       5.226   6.908  17.595  0.00  0.00    +0.000 NA
ATOM      4  C   UNL     1       4.265   6.037  18.024  0.00  0.00    +0.000 A 
ATOM      5  C   UNL     1       4.531   4.761  18.505  0.00  0.00    +0.000 A 
ATOM      6  N   UNL     1       5.810   4.346  18.620  0.00  0.00    +0.000 NA
ATOM      7  C   UNL     1       6.794   5.201  18.223  0.00  0.00    +0.000 A 
ATOM      8  C   UNL     1       8.203   4.721  18.404  0.00  0.00    +0.000 C 
ATOM      9  N   UNL     1       3.570   3.981  19.229  0.00  0.00    +0.000 N 
ATOM     10  S   UNL     1       1.986   4.303  18.663  0.00  0.00    +0.000 S 
ATOM     11  O   UNL     1       1.883   3.611  17.393  0.00  0.00    +0.000 OA
ATOM     12  O   UNL     1       1.088   3.948  19.741  0.00  0.00    +0.000 OA
ATOM     13  N   UNL     1       1.832   5.879  18.355  0.00  0.00    +0.000 NA
ATOM     14  C   UNL     1       2.876   6.575  18.034  0.00  0.00    +0.000 C 
ATOM     15  N   UNL     1       2.692   7.892  17.669  0.00  0.00    +0.000 N 
ATOM     16  H   UNL     1       1.757   8.116  17.342  0.00  0.00    +0.000 HD
ATOM     17  H   UNL     1       3.446   8.298  17.117  0.00  0.00    +0.000 HD
ENDROOT
BRANCH   9  18
ATOM     18  C   UNL     1       3.795   2.495  19.344  0.00  0.00    +0.000 C 
BRANCH  18  19
ATOM     19  C   UNL     1       3.958   1.972  20.774  0.00  0.00    +0.000 C 
BRANCH  19  20
ATOM     20  O   UNL     1       3.004   2.546  21.659  0.00  0.00    +0.000 OA
ATOM     21  H   UNL     1       2.141   2.455  21.214  0.00  0.00    +0.000 HD
ENDBRANCH  19  20
ENDBRANCH  18  19
ENDBRANCH   9  18
TORSDOF 3
ENDMDL
MODEL 9
REMARK VINA RESULT:      -6.0      3.187      5.714
REMARK  Name = 
REMARK  5 active torsions:
REMARK  status: ('A' for Active; 'I' for Inactive)
REMARK    1  A    between atoms: C_1  and  C_2
REMARK    2  A    between atoms: C_7  and  C_8
REMARK    3  A    between atoms: N_9  and  C_10
REMARK    4  A    between atoms: C_10  and  C_11
REMARK    5  A    between atoms: C_11  and  O_12
REMARK                            x       y       z     vdW  Elec       q    Type
REMARK                         _______ _______ _______ _____ _____    ______ ____
ROOT
ATOM      1  C   UNL     1       0.966   4.512  20.373  0.00  0.00    +0.000 C 
ATOM      2  C   UNL     1       2.120   4.884  19.491  0.00  0.00    +0.000 A 
ATOM      3  N   UNL     1       2.674   3.887  18.758  0.00  0.00    +0.000 NA
ATOM      4  C   UNL     1       3.793   4.227  18.052  0.00  0.00    +0.000 A 
ATOM      5  C   UNL     1       4.324   5.510  18.008  0.00  0.00    +0.000 A 
ATOM      6  N   UNL     1       3.755   6.492  18.738  0.00  0.00    +0.000 NA
ATOM      7  C   UNL     1       2.651   6.180  19.472  0.00  0.00    +0.000 A 
ATOM      8  C   UNL     1       2.072   7.287  20.303  0.00  0.00    +0.000 C 
ATOM      9  N   UNL     1       5.646   5.794  17.529  0.00  0.00    +0.000 N 
ATOM     10  S   UNL     1       6.075   4.711  16.273  0.00  0.00    +0.000 S 
ATOM     11  O   UNL     1       5.343   5.164  15.107  0.00  0.00    +0.000 OA
ATOM     12  O   UNL     1       7.522   4.681  16.238  0.00  0.00    +0.000 OA
ATOM     13  N   UNL     1       5.533   3.232  16.625  0.00  0.00    +0.000 NA
ATOM     14  C   UNL     1       4.491   3.094  17.382  0.00  0.00    +0.000 C 
ATOM     15  N   UNL     1       3.989   1.824  17.571  0.00  0.00    +0.000 N 
ATOM     16  H   UNL     1       4.239   1.156  16.849  0.00  0.00    +0.000 HD
ATOM     17  H   UNL     1       3.016   1.783  17.872  0.00  0.00    +0.000 HD
ENDROOT
BRANCH   9  18
ATOM     18  C   UNL     1       5.976   7.211  17.136  0.00  0.00    +0.000 C 
BRANCH  18  19
ATOM     19  C   UNL     1       7.376   7.685  17.536  0.00  0.00    +0.000 C 
BRANCH  19  20
ATOM     20  O   UNL     1       7.998   6.790  18.448  0.00  0.00    +0.000 OA
ATOM     21  H   UNL     1       8.826   7.225  18.723  0.00  0.00    +0.000 HD
ENDBRANCH  19  20
ENDBRANCH  18  19
ENDBRANCH   9  18
TORSDOF 3
ENDMDL
