MODEL 1
REMARK VINA RESULT:      -7.9      0.000      0.000
REMARK  Name = 
REMARK  7 active torsions:
REMARK  status: ('A' for Active; 'I' for Inactive)
REMARK    1  A    between atoms: C_1  and  C_2
REMARK    2  A    between atoms: C_2  and  C_3
REMARK    3  A    between atoms: C_3  and  O_4
REMARK    4  A    between atoms: O_4  and  C_5
REMARK    5  A    between atoms: C_5  and  C_6
REMARK    6  A    between atoms: C_6  and  N_7
REMARK    7  A    between atoms: C_15  and  C_17
REMARK                            x       y       z     vdW  Elec       q    Type
REMARK                         _______ _______ _______ _____ _____    ______ ____
ROOT
ATOM      1  N   UNL     1       5.659   4.667  15.827  0.00  0.00    +0.000 NA
ATOM      2  C   UNL     1       5.940   6.085  15.531  0.00  0.00    +0.000 C 
ATOM      3  C   UNL     1       6.125   6.947  16.793  0.00  0.00    +0.000 C 
ATOM      4  C   UNL     1       7.318   6.447  17.619  0.00  0.00    +0.000 C 
ATOM      5  C   UNL     1       7.442   4.933  17.554  0.00  0.00    +0.000 C 
ATOM      6  C   UNL     1       6.110   4.283  17.177  0.00  0.00    +0.000 C 
ATOM      7  C   UNL     1       5.007   4.586  18.226  0.00  0.00    +0.000 C 
ATOM      8  N   UNL     1       4.185   5.783  18.018  0.00  0.00    +0.000 N 
ATOM      9  C   UNL     1       2.815   5.873  18.326  0.00  0.00    +0.000 C 
ATOM     10  O   UNL     1       2.158   6.897  18.118  0.00  0.00    +0.000 OA
ATOM     11  C   UNL     1       4.837   7.037  17.629  0.00  0.00    +0.000 C 
ENDROOT
BRANCH   9  12
ATOM     12  C   UNL     1       2.061   4.725  18.915  0.00  0.00    +0.000 A 
ATOM     13  C   UNL     1       1.976   4.639  20.313  0.00  0.00    +0.000 A 
ATOM     14  C   UNL     1       1.320   3.564  20.919  0.00  0.00    +0.000 A 
ATOM     15  C   UNL     1       0.739   2.571  20.134  0.00  0.00    +0.000 A 
ATOM     16  C   UNL     1       0.844   2.631  18.745  0.00  0.00    +0.000 A 
ATOM     17  C   UNL     1       1.531   3.686  18.140  0.00  0.00    +0.000 A 
ENDBRANCH   9  12
BRANCH   1  18
ATOM     18  C   UNL     1       6.126   3.795  14.735  0.00  0.00    +0.000 C 
BRANCH  18  19
ATOM     19  C   UNL     1       6.858   4.543  13.610  0.00  0.00    +0.000 C 
BRANCH  19  20
ATOM     20  O   UNL     1       6.795   3.804  12.386  0.00  0.00    +0.000 OA
BRANCH  20  21
ATOM     21  C   UNL     1       5.499   3.219  12.242  0.00  0.00    +0.000 C 
BRANCH  21  23
ATOM     22  C   UNL     1       7.049   1.604  11.123  0.00  0.00    +0.000 C 
ATOM     23  C   UNL     1       5.598   1.971  11.376  0.00  0.00    +0.000 C 
ENDBRANCH  21  23
ENDBRANCH  20  21
ENDBRANCH  19  20
ENDBRANCH  18  19
ENDBRANCH   1  18
TORSDOF 6
ENDMDL
MODEL 2
REMARK VINA RESULT:      -7.9      0.773      1.410
REMARK  Name = 
REMARK  7 active torsions:
REMARK  status: ('A' for Active; 'I' for Inactive)
REMARK    1  A    between atoms: C_1  and  C_2
REMARK    2  A    between atoms: C_2  and  C_3
REMARK    3  A    between atoms: C_3  and  O_4
REMARK    4  A    between atoms: O_4  and  C_5
REMARK    5  A    between atoms: C_5  and  C_6
REMARK    6  A    between atoms: C_6  and  N_7
REMARK    7  A    between atoms: C_15  and  C_17
REMARK                            x       y       z     vdW  Elec       q    Type
REMARK                         _______ _______ _______ _____ _____    ______ ____
ROOT
ATOM      1  N   UNL     1       5.520   4.605  16.028  0.00  0.00    +0.000 NA
ATOM      2  C   UNL     1       5.668   6.002  15.577  0.00  0.00    +0.000 C 
ATOM      3  C   UNL     1       5.945   6.988  16.725  0.00  0.00    +0.000 C 
ATOM      4  C   UNL     1       7.259   6.636  17.435  0.00  0.00    +0.000 C 
ATOM      5  C   UNL     1       7.476   5.132  17.487  0.00  0.00    +0.000 C 
ATOM      6  C   UNL     1       6.155   4.376  17.339  0.00  0.00    +0.000 C 
ATOM      7  C   UNL     1       5.168   4.715  18.488  0.00  0.00    +0.000 C 
ATOM      8  N   UNL     1       4.248   5.841  18.281  0.00  0.00    +0.000 N 
ATOM      9  C   UNL     1       2.923   5.884  18.750  0.00  0.00    +0.000 C 
ATOM     10  O   UNL     1       2.179   6.845  18.538  0.00  0.00    +0.000 OA
ATOM     11  C   UNL     1       4.764   7.085  17.705  0.00  0.00    +0.000 C 
ENDROOT
BRANCH   9  12
ATOM     12  C   UNL     1       2.323   4.756  19.527  0.00  0.00    +0.000 A 
ATOM     13  C   UNL     1       1.453   3.883  18.858  0.00  0.00    +0.000 A 
ATOM     14  C   UNL     1       0.830   2.838  19.545  0.00  0.00    +0.000 A 
ATOM     15  C   UNL     1       1.076   2.653  20.903  0.00  0.00    +0.000 A 
ATOM     16  C   UNL     1       1.916   3.533  21.584  0.00  0.00    +0.000 A 
ATOM     17  C   UNL     1       2.511   4.600  20.906  0.00  0.00    +0.000 A 
ENDBRANCH   9  12
BRANCH   1  18
ATOM     18  C   UNL     1       5.910   3.660  14.967  0.00  0.00    +0.000 C 
BRANCH  18  19
ATOM     19  C   UNL     1       6.827   4.271  13.896  0.00  0.00    +0.000 C 
BRANCH  19  20
ATOM     20  O   UNL     1       6.464   3.804  12.592  0.00  0.00    +0.000 OA
BRANCH  20  21
ATOM     21  C   UNL     1       5.048   3.619  12.524  0.00  0.00    +0.000 C 
BRANCH  21  23
ATOM     22  C   UNL     1       3.410   3.267  10.664  0.00  0.00    +0.000 C 
ATOM     23  C   UNL     1       4.704   2.786  11.298  0.00  0.00    +0.000 C 
ENDBRANCH  21  23
ENDBRANCH  20  21
ENDBRANCH  19  20
ENDBRANCH  18  19
ENDBRANCH   1  18
TORSDOF 6
ENDMDL
MODEL 3
REMARK VINA RESULT:      -7.7      0.536      1.189
REMARK  Name = 
REMARK  7 active torsions:
REMARK  status: ('A' for Active; 'I' for Inactive)
REMARK    1  A    between atoms: C_1  and  C_2
REMARK    2  A    between atoms: C_2  and  C_3
REMARK    3  A    between atoms: C_3  and  O_4
REMARK    4  A    between atoms: O_4  and  C_5
REMARK    5  A    between atoms: C_5  and  C_6
REMARK    6  A    between atoms: C_6  and  N_7
REMARK    7  A    between atoms: C_15  and  C_17
REMARK                            x       y       z     vdW  Elec       q    Type
REMARK                         _______ _______ _______ _____ _____    ______ ____
ROOT
ATOM      1  N   UNL     1       5.773   4.598  15.900  0.00  0.00    +0.000 NA
ATOM      2  C   UNL     1       5.995   6.015  15.553  0.00  0.00    +0.000 C 
ATOM      3  C   UNL     1       6.148   6.927  16.784  0.00  0.00    +0.000 C 
ATOM      4  C   UNL     1       7.361   6.506  17.623  0.00  0.00    +0.000 C 
ATOM      5  C   UNL     1       7.546   4.997  17.611  0.00  0.00    +0.000 C 
ATOM      6  C   UNL     1       6.241   4.281  17.262  0.00  0.00    +0.000 C 
ATOM      7  C   UNL     1       5.128   4.576  18.303  0.00  0.00    +0.000 C 
ATOM      8  N   UNL     1       4.258   5.732  18.055  0.00  0.00    +0.000 N 
ATOM      9  C   UNL     1       2.887   5.778  18.365  0.00  0.00    +0.000 C 
ATOM     10  O   UNL     1       2.189   6.766  18.123  0.00  0.00    +0.000 OA
ATOM     11  C   UNL     1       4.859   6.995  17.620  0.00  0.00    +0.000 C 
ENDROOT
BRANCH   9  12
ATOM     12  C   UNL     1       2.181   4.622  18.996  0.00  0.00    +0.000 A 
ATOM     13  C   UNL     1       1.587   3.671  18.154  0.00  0.00    +0.000 A 
ATOM     14  C   UNL     1       0.877   2.593  18.689  0.00  0.00    +0.000 A 
ATOM     15  C   UNL     1       0.760   2.454  20.070  0.00  0.00    +0.000 A 
ATOM     16  C   UNL     1       1.320   3.409  20.916  0.00  0.00    +0.000 A 
ATOM     17  C   UNL     1       1.999   4.507  20.380  0.00  0.00    +0.000 A 
ENDBRANCH   9  12
BRANCH   1  18
ATOM     18  C   UNL     1       6.272   3.706  14.839  0.00  0.00    +0.000 C 
BRANCH  18  19
ATOM     19  C   UNL     1       5.491   3.812  13.520  0.00  0.00    +0.000 C 
BRANCH  19  20
ATOM     20  O   UNL     1       6.299   3.385  12.417  0.00  0.00    +0.000 OA
BRANCH  20  21
ATOM     21  C   UNL     1       5.619   2.357  11.693  0.00  0.00    +0.000 C 
BRANCH  21  23
ATOM     22  C   UNL     1       6.158  -0.050  11.271  0.00  0.00    +0.000 C 
ATOM     23  C   UNL     1       6.637   1.382  11.119  0.00  0.00    +0.000 C 
ENDBRANCH  21  23
ENDBRANCH  20  21
ENDBRANCH  19  20
ENDBRANCH  18  19
ENDBRANCH   1  18
TORSDOF 6
ENDMDL
MODEL 4
REMARK VINA RESULT:      -7.5      2.880      5.265
REMARK  Name = 
REMARK  7 active torsions:
REMARK  status: ('A' for Active; 'I' for Inactive)
REMARK    1  A    between atoms: C_1  and  C_2
REMARK    2  A    between atoms: C_2  and  C_3
REMARK    3  A    between atoms: C_3  and  O_4
REMARK    4  A    between atoms: O_4  and  C_5
REMARK    5  A    between atoms: C_5  and  C_6
REMARK    6  A    between atoms: C_6  and  N_7
REMARK    7  A    between atoms: C_15  and  C_17
REMARK                            x       y       z     vdW  Elec       q    Type
REMARK                         _______ _______ _______ _____ _____    ______ ____
ROOT
ATOM      1  N   UNL     1       6.518   5.405  17.953  0.00  0.00    +0.000 NA
ATOM      2  C   UNL     1       7.095   4.722  16.779  0.00  0.00    +0.000 C 
ATOM      3  C   UNL     1       6.059   4.407  15.685  0.00  0.00    +0.000 C 
ATOM      4  C   UNL     1       5.428   5.699  15.150  0.00  0.00    +0.000 C 
ATOM      5  C   UNL     1       5.267   6.735  16.251  0.00  0.00    +0.000 C 
ATOM      6  C   UNL     1       5.246   6.079  17.632  0.00  0.00    +0.000 C 
ATOM      7  C   UNL     1       4.056   5.094  17.781  0.00  0.00    +0.000 C 
ATOM      8  N   UNL     1       4.284   3.694  17.404  0.00  0.00    +0.000 N 
ATOM      9  C   UNL     1       3.717   2.589  18.064  0.00  0.00    +0.000 C 
ATOM     10  O   UNL     1       3.950   1.426  17.723  0.00  0.00    +0.000 OA
ATOM     11  C   UNL     1       5.001   3.398  16.161  0.00  0.00    +0.000 C 
ENDROOT
BRANCH   9  12
ATOM     12  C   UNL     1       2.802   2.752  19.235  0.00  0.00    +0.000 A 
ATOM     13  C   UNL     1       3.339   2.581  20.520  0.00  0.00    +0.000 A 
ATOM     14  C   UNL     1       2.522   2.679  21.650  0.00  0.00    +0.000 A 
ATOM     15  C   UNL     1       1.164   2.955  21.504  0.00  0.00    +0.000 A 
ATOM     16  C   UNL     1       0.615   3.096  20.231  0.00  0.00    +0.000 A 
ATOM     17  C   UNL     1       1.424   2.962  19.100  0.00  0.00    +0.000 A 
ENDBRANCH   9  12
BRANCH   1  18
ATOM     18  C   UNL     1       7.523   6.245  18.626  0.00  0.00    +0.000 C 
BRANCH  18  19
ATOM     19  C   UNL     1       7.847   7.547  17.877  0.00  0.00    +0.000 C 
BRANCH  19  20
ATOM     20  O   UNL     1       8.683   8.395  18.673  0.00  0.00    +0.000 OA
BRANCH  20  21
ATOM     21  C   UNL     1       8.500   9.757  18.279  0.00  0.00    +0.000 C 
BRANCH  21  23
ATOM     22  C   UNL     1      10.388  11.395  18.144  0.00  0.00    +0.000 C 
ATOM     23  C   UNL     1       9.448  10.646  19.071  0.00  0.00    +0.000 C 
ENDBRANCH  21  23
ENDBRANCH  20  21
ENDBRANCH  19  20
ENDBRANCH  18  19
ENDBRANCH   1  18
TORSDOF 6
ENDMDL
MODEL 5
REMARK VINA RESULT:      -7.5      2.113      7.079
REMARK  Name = 
REMARK  7 active torsions:
REMARK  status: ('A' for Active; 'I' for Inactive)
REMARK    1  A    between atoms: C_1  and  C_2
REMARK    2  A    between atoms: C_2  and  C_3
REMARK    3  A    between atoms: C_3  and  O_4
REMARK    4  A    between atoms: O_4  and  C_5
REMARK    5  A    between atoms: C_5  and  C_6
REMARK    6  A    between atoms: C_6  and  N_7
REMARK    7  A    between atoms: C_15  and  C_17
REMARK                            x       y       z     vdW  Elec       q    Type
REMARK                         _______ _______ _______ _____ _____    ______ ____
ROOT
ATOM      1  N   UNL     1       3.612   3.053  17.660  0.00  0.00    +0.000 NA
ATOM      2  C   UNL     1       4.170   3.217  19.015  0.00  0.00    +0.000 C 
ATOM      3  C   UNL     1       4.765   4.615  19.264  0.00  0.00    +0.000 C 
ATOM      4  C   UNL     1       3.686   5.696  19.121  0.00  0.00    +0.000 C 
ATOM      5  C   UNL     1       2.685   5.340  18.033  0.00  0.00    +0.000 C 
ATOM      6  C   UNL     1       3.281   4.347  17.035  0.00  0.00    +0.000 C 
ATOM      7  C   UNL     1       4.522   4.935  16.312  0.00  0.00    +0.000 C 
ATOM      8  N   UNL     1       5.836   4.708  16.927  0.00  0.00    +0.000 N 
ATOM      9  C   UNL     1       7.024   4.483  16.209  0.00  0.00    +0.000 C 
ATOM     10  O   UNL     1       8.105   4.279  16.769  0.00  0.00    +0.000 OA
ATOM     11  C   UNL     1       5.987   4.893  18.373  0.00  0.00    +0.000 C 
ENDROOT
BRANCH   9  12
ATOM     12  C   UNL     1       7.052   4.461  14.715  0.00  0.00    +0.000 A 
ATOM     13  C   UNL     1       7.863   5.397  14.056  0.00  0.00    +0.000 A 
ATOM     14  C   UNL     1       7.895   5.452  12.660  0.00  0.00    +0.000 A 
ATOM     15  C   UNL     1       7.122   4.567  11.912  0.00  0.00    +0.000 A 
ATOM     16  C   UNL     1       6.289   3.653  12.555  0.00  0.00    +0.000 A 
ATOM     17  C   UNL     1       6.229   3.623  13.951  0.00  0.00    +0.000 A 
ENDBRANCH   9  12
BRANCH   1  18
ATOM     18  C   UNL     1       2.529   2.054  17.649  0.00  0.00    +0.000 C 
BRANCH  18  19
ATOM     19  C   UNL     1       1.870   1.836  19.020  0.00  0.00    +0.000 C 
BRANCH  19  20
ATOM     20  O   UNL     1       0.611   2.515  19.091  0.00  0.00    +0.000 OA
BRANCH  20  21
ATOM     21  C   UNL     1       0.621   3.433  20.187  0.00  0.00    +0.000 C 
BRANCH  21  23
ATOM     22  C   UNL     1       2.321   3.764  21.993  0.00  0.00    +0.000 C 
ATOM     23  C   UNL     1       1.327   2.798  21.376  0.00  0.00    +0.000 C 
ENDBRANCH  21  23
ENDBRANCH  20  21
ENDBRANCH  19  20
ENDBRANCH  18  19
ENDBRANCH   1  18
TORSDOF 6
ENDMDL
MODEL 6
REMARK VINA RESULT:      -7.5      2.891      5.348
REMARK  Name = 
REMARK  7 active torsions:
REMARK  status: ('A' for Active; 'I' for Inactive)
REMARK    1  A    between atoms: C_1  and  C_2
REMARK    2  A    between atoms: C_2  and  C_3
REMARK    3  A    between atoms: C_3  and  O_4
REMARK    4  A    between atoms: O_4  and  C_5
REMARK    5  A    between atoms: C_5  and  C_6
REMARK    6  A    between atoms: C_6  and  N_7
REMARK    7  A    between atoms: C_15  and  C_17
REMARK                            x       y       z     vdW  Elec       q    Type
REMARK                         _______ _______ _______ _____ _____    ______ ____
ROOT
ATOM      1  N   UNL     1       6.575   5.314  17.896  0.00  0.00    +0.000 NA
ATOM      2  C   UNL     1       7.120   4.648  16.697  0.00  0.00    +0.000 C 
ATOM      3  C   UNL     1       6.054   4.352  15.626  0.00  0.00    +0.000 C 
ATOM      4  C   UNL     1       5.412   5.653  15.128  0.00  0.00    +0.000 C 
ATOM      5  C   UNL     1       5.283   6.672  16.248  0.00  0.00    +0.000 C 
ATOM      6  C   UNL     1       5.297   5.995  17.619  0.00  0.00    +0.000 C 
ATOM      7  C   UNL     1       4.109   5.010  17.785  0.00  0.00    +0.000 C 
ATOM      8  N   UNL     1       4.323   3.615  17.381  0.00  0.00    +0.000 N 
ATOM      9  C   UNL     1       3.772   2.502  18.039  0.00  0.00    +0.000 C 
ATOM     10  O   UNL     1       3.993   1.343  17.674  0.00  0.00    +0.000 OA
ATOM     11  C   UNL     1       5.007   3.337  16.115  0.00  0.00    +0.000 C 
ENDROOT
BRANCH   9  12
ATOM     12  C   UNL     1       2.889   2.648  19.236  0.00  0.00    +0.000 A 
ATOM     13  C   UNL     1       1.534   2.941  19.026  0.00  0.00    +0.000 A 
ATOM     14  C   UNL     1       0.671   3.131  20.109  0.00  0.00    +0.000 A 
ATOM     15  C   UNL     1       1.156   3.025  21.410  0.00  0.00    +0.000 A 
ATOM     16  C   UNL     1       2.507   2.765  21.632  0.00  0.00    +0.000 A 
ATOM     17  C   UNL     1       3.377   2.610  20.549  0.00  0.00    +0.000 A 
ENDBRANCH   9  12
BRANCH   1  18
ATOM     18  C   UNL     1       7.600   6.142  18.555  0.00  0.00    +0.000 C 
BRANCH  18  19
ATOM     19  C   UNL     1       7.792   7.524  17.910  0.00  0.00    +0.000 C 
BRANCH  19  20
ATOM     20  O   UNL     1       8.645   8.345  18.715  0.00  0.00    +0.000 OA
BRANCH  20  21
ATOM     21  C   UNL     1       8.587   9.696  18.253  0.00  0.00    +0.000 C 
BRANCH  21  23
ATOM     22  C   UNL     1      10.387  11.431  18.375  0.00  0.00    +0.000 C 
ATOM     23  C   UNL     1       9.414  10.583  19.174  0.00  0.00    +0.000 C 
ENDBRANCH  21  23
ENDBRANCH  20  21
ENDBRANCH  19  20
ENDBRANCH  18  19
ENDBRANCH   1  18
TORSDOF 6
ENDMDL
MODEL 7
REMARK VINA RESULT:      -6.8      0.889      1.708
REMARK  Name = 
REMARK  7 active torsions:
REMARK  status: ('A' for Active; 'I' for Inactive)
REMARK    1  A    between atoms: C_1  and  C_2
REMARK    2  A    between atoms: C_2  and  C_3
REMARK    3  A    between atoms: C_3  and  O_4
REMARK    4  A    between atoms: O_4  and  C_5
REMARK    5  A    between atoms: C_5  and  C_6
REMARK    6  A    between atoms: C_6  and  N_7
REMARK    7  A    between atoms: C_15  and  C_17
REMARK                            x       y       z     vdW  Elec       q    Type
REMARK                         _______ _______ _______ _____ _____    ______ ____
ROOT
ATOM      1  N   UNL     1       5.598   4.591  15.754  0.00  0.00    +0.000 NA
ATOM      2  C   UNL     1       5.877   6.006  15.442  0.00  0.00    +0.000 C 
ATOM      3  C   UNL     1       6.133   6.867  16.692  0.00  0.00    +0.000 C 
ATOM      4  C   UNL     1       7.360   6.357  17.459  0.00  0.00    +0.000 C 
ATOM      5  C   UNL     1       7.467   4.842  17.390  0.00  0.00    +0.000 C 
ATOM      6  C   UNL     1       6.112   4.204  17.081  0.00  0.00    +0.000 C 
ATOM      7  C   UNL     1       5.065   4.519  18.182  0.00  0.00    +0.000 C 
ATOM      8  N   UNL     1       4.245   5.724  18.013  0.00  0.00    +0.000 N 
ATOM      9  C   UNL     1       2.894   5.828  18.389  0.00  0.00    +0.000 C 
ATOM     10  O   UNL     1       2.237   6.858  18.212  0.00  0.00    +0.000 OA
ATOM     11  C   UNL     1       4.889   6.971  17.590  0.00  0.00    +0.000 C 
ENDROOT
BRANCH   9  12
ATOM     12  C   UNL     1       2.158   4.688  19.016  0.00  0.00    +0.000 A 
ATOM     13  C   UNL     1       1.590   3.724  18.171  0.00  0.00    +0.000 A 
ATOM     14  C   UNL     1       0.855   2.660  18.700  0.00  0.00    +0.000 A 
ATOM     15  C   UNL     1       0.687   2.548  20.079  0.00  0.00    +0.000 A 
ATOM     16  C   UNL     1       1.221   3.517  20.926  0.00  0.00    +0.000 A 
ATOM     17  C   UNL     1       1.926   4.601  20.395  0.00  0.00    +0.000 A 
ENDBRANCH   9  12
BRANCH   1  18
ATOM     18  C   UNL     1       6.002   3.712  14.642  0.00  0.00    +0.000 C 
BRANCH  18  19
ATOM     19  C   UNL     1       5.019   3.713  13.461  0.00  0.00    +0.000 C 
BRANCH  19  20
ATOM     20  O   UNL     1       5.708   3.476  12.228  0.00  0.00    +0.000 OA
BRANCH  20  21
ATOM     21  C   UNL     1       7.108   3.701  12.409  0.00  0.00    +0.000 C 
BRANCH  21  23
ATOM     22  C   UNL     1       8.404   5.820  12.716  0.00  0.00    +0.000 C 
ATOM     23  C   UNL     1       7.492   5.036  11.789  0.00  0.00    +0.000 C 
ENDBRANCH  21  23
ENDBRANCH  20  21
ENDBRANCH  19  20
ENDBRANCH  18  19
ENDBRANCH   1  18
TORSDOF 6
ENDMDL
MODEL 8
REMARK VINA RESULT:      -6.7      3.294      5.972
REMARK  Name = 
REMARK  7 active torsions:
REMARK  status: ('A' for Active; 'I' for Inactive)
REMARK    1  A    between atoms: C_1  and  C_2
REMARK    2  A    between atoms: C_2  and  C_3
REMARK    3  A    between atoms: C_3  and  O_4
REMARK    4  A    between atoms: O_4  and  C_5
REMARK    5  A    between atoms: C_5  and  C_6
REMARK    6  A    between atoms: C_6  and  N_7
REMARK    7  A    between atoms: C_15  and  C_17
REMARK                            x       y       z     vdW  Elec       q    Type
REMARK                         _______ _______ _______ _____ _____    ______ ____
ROOT
ATOM      1  N   UNL     1       6.638   6.502  18.104  0.00  0.00    +0.000 NA
ATOM      2  C   UNL     1       6.764   5.066  18.417  0.00  0.00    +0.000 C 
ATOM      3  C   UNL     1       5.660   4.203  17.780  0.00  0.00    +0.000 C 
ATOM      4  C   UNL     1       5.710   4.305  16.250  0.00  0.00    +0.000 C 
ATOM      5  C   UNL     1       6.116   5.698  15.799  0.00  0.00    +0.000 C 
ATOM      6  C   UNL     1       5.838   6.736  16.887  0.00  0.00    +0.000 C 
ATOM      7  C   UNL     1       4.328   6.812  17.235  0.00  0.00    +0.000 C 
ATOM      8  N   UNL     1       3.834   5.938  18.305  0.00  0.00    +0.000 N 
ATOM      9  C   UNL     1       2.832   6.293  19.226  0.00  0.00    +0.000 C 
ATOM     10  O   UNL     1       2.459   5.530  20.122  0.00  0.00    +0.000 OA
ATOM     11  C   UNL     1       4.266   4.538  18.338  0.00  0.00    +0.000 C 
ENDROOT
BRANCH   9  12
ATOM     12  C   UNL     1       2.160   7.627  19.187  0.00  0.00    +0.000 A 
ATOM     13  C   UNL     1       1.625   8.132  20.381  0.00  0.00    +0.000 A 
ATOM     14  C   UNL     1       0.948   9.355  20.396  0.00  0.00    +0.000 A 
ATOM     15  C   UNL     1       0.807  10.086  19.218  0.00  0.00    +0.000 A 
ATOM     16  C   UNL     1       1.309   9.579  18.020  0.00  0.00    +0.000 A 
ATOM     17  C   UNL     1       1.953   8.340  17.999  0.00  0.00    +0.000 A 
ENDBRANCH   9  12
BRANCH   1  18
ATOM     18  C   UNL     1       7.951   7.169  18.131  0.00  0.00    +0.000 C 
BRANCH  18  19
ATOM     19  C   UNL     1       7.899   8.661  17.767  0.00  0.00    +0.000 C 
BRANCH  19  20
ATOM     20  O   UNL     1       8.791   9.417  18.594  0.00  0.00    +0.000 OA
BRANCH  20  21
ATOM     21  C   UNL     1       8.764  10.791  18.200  0.00  0.00    +0.000 C 
BRANCH  21  23
ATOM     22  C   UNL     1      10.942  11.440  19.250  0.00  0.00    +0.000 C 
ATOM     23  C   UNL     1      10.185  11.273  17.944  0.00  0.00    +0.000 C 
ENDBRANCH  21  23
ENDBRANCH  20  21
ENDBRANCH  19  20
ENDBRANCH  18  19
ENDBRANCH   1  18
TORSDOF 6
ENDMDL
MODEL 9
REMARK VINA RESULT:      -6.7      2.074      6.935
REMARK  Name = 
REMARK  7 active torsions:
REMARK  status: ('A' for Active; 'I' for Inactive)
REMARK    1  A    between atoms: C_1  and  C_2
REMARK    2  A    between atoms: C_2  and  C_3
REMARK    3  A    between atoms: C_3  and  O_4
REMARK    4  A    between atoms: O_4  and  C_5
REMARK    5  A    between atoms: C_5  and  C_6
REMARK    6  A    between atoms: C_6  and  N_7
REMARK    7  A    between atoms: C_15  and  C_17
REMARK                            x       y       z     vdW  Elec       q    Type
REMARK                         _______ _______ _______ _____ _____    ______ ____
ROOT
ATOM      1  N   UNL     1       4.432   3.516  18.216  0.00  0.00    +0.000 NA
ATOM      2  C   UNL     1       4.844   4.500  19.234  0.00  0.00    +0.000 C 
ATOM      3  C   UNL     1       4.672   5.960  18.777  0.00  0.00    +0.000 C 
ATOM      4  C   UNL     1       3.199   6.262  18.473  0.00  0.00    +0.000 C 
ATOM      5  C   UNL     1       2.499   5.056  17.868  0.00  0.00    +0.000 C 
ATOM      6  C   UNL     1       3.502   4.095  17.229  0.00  0.00    +0.000 C 
ATOM      7  C   UNL     1       4.287   4.770  16.073  0.00  0.00    +0.000 C 
ATOM      8  N   UNL     1       5.544   5.447  16.412  0.00  0.00    +0.000 N 
ATOM      9  C   UNL     1       6.684   5.469  15.588  0.00  0.00    +0.000 C 
ATOM     10  O   UNL     1       7.728   6.038  15.922  0.00  0.00    +0.000 OA
ATOM     11  C   UNL     1       5.592   6.310  17.595  0.00  0.00    +0.000 C 
ENDROOT
BRANCH   9  12
ATOM     12  C   UNL     1       6.711   4.791  14.257  0.00  0.00    +0.000 A 
ATOM     13  C   UNL     1       7.637   5.241  13.305  0.00  0.00    +0.000 A 
ATOM     14  C   UNL     1       7.678   4.673  12.029  0.00  0.00    +0.000 A 
ATOM     15  C   UNL     1       6.797   3.646  11.697  0.00  0.00    +0.000 A 
ATOM     16  C   UNL     1       5.852   3.212  12.624  0.00  0.00    +0.000 A 
ATOM     17  C   UNL     1       5.787   3.805  13.888  0.00  0.00    +0.000 A 
ENDBRANCH   9  12
BRANCH   1  18
ATOM     18  C   UNL     1       3.984   2.260  18.842  0.00  0.00    +0.000 C 
BRANCH  18  19
ATOM     19  C   UNL     1       4.335   2.148  20.334  0.00  0.00    +0.000 C 
BRANCH  19  20
ATOM     20  O   UNL     1       3.175   2.364  21.144  0.00  0.00    +0.000 OA
BRANCH  20  21
ATOM     21  C   UNL     1       2.001   2.293  20.333  0.00  0.00    +0.000 C 
BRANCH  21  23
ATOM     22  C   UNL     1       1.858   4.590  21.316  0.00  0.00    +0.000 C 
ATOM     23  C   UNL     1       1.081   3.459  20.666  0.00  0.00    +0.000 C 
ENDBRANCH  21  23
ENDBRANCH  20  21
ENDBRANCH  19  20
ENDBRANCH  18  19
ENDBRANCH   1  18
TORSDOF 6
ENDMDL
