MODEL 1
REMARK VINA RESULT:      -7.7      0.000      0.000
REMARK  Name = 
REMARK  10 active torsions:
REMARK  status: ('A' for Active; 'I' for Inactive)
REMARK    1  A    between atoms: C_1  and  N_2
REMARK    2  A    between atoms: N_2  and  C_3
REMARK    3  A    between atoms: N_2  and  C_16
REMARK    4  A    between atoms: C_3  and  C_4
REMARK    5  A    between atoms: C_4  and  N_5
REMARK    6  A    between atoms: N_5  and  C_6
REMARK    7  A    between atoms: C_11  and  C_12
REMARK    8  A    between atoms: C_16  and  C_17
REMARK    9  A    between atoms: C_20  and  O_21
REMARK   10  A    between atoms: O_21  and  C_22
REMARK                            x       y       z     vdW  Elec       q    Type
REMARK                         _______ _______ _______ _____ _____    ______ ____
ROOT
ATOM      1  C   UNL     1       1.766   4.514  19.216  0.00  0.00    +0.000 C 
ATOM      2  N   UNL     1       2.409   5.829  19.374  0.00  0.00    +0.000 NA
ENDROOT
BRANCH   2   3
ATOM      3  C   UNL     1       1.657   6.604  20.385  0.00  0.00    +0.000 C 
BRANCH   3   4
ATOM      4  C   UNL     1       1.940   8.122  20.436  0.00  0.00    +0.000 C 
BRANCH   4   5
ATOM      5  N   UNL     1       0.746   8.966  20.347  0.00  0.00    +0.000 N 
ATOM      6  C   UNL     1      -0.235   8.881  21.423  0.00  0.00    +0.000 C 
ATOM      7  C   UNL     1       0.466   9.531  19.101  0.00  0.00    +0.000 C 
ATOM      8  O   UNL     1       1.083   9.320  18.060  0.00  0.00    +0.000 OA
ATOM      9  N   UNL     1      -0.715  10.302  19.035  0.00  0.00    +0.000 N 
ATOM     10  C   UNL     1      -1.695  10.206  18.062  0.00  0.00    +0.000 A 
ATOM     11  C   UNL     1      -2.574  11.237  18.280  0.00  0.00    +0.000 A 
ATOM     12  C   UNL     1      -2.061  11.920  19.392  0.00  0.00    +0.000 A 
ATOM     13  N   UNL     1      -0.979  11.324  19.904  0.00  0.00    +0.000 NA
BRANCH  11  14
ATOM     14  C   UNL     1      -3.748  11.535  17.527  0.00  0.00    +0.000 C 
ATOM     15  N   UNL     1      -4.689  11.776  16.902  0.00  0.00    +0.000 NA
ENDBRANCH  11  14
ENDBRANCH   4   5
ENDBRANCH   3   4
ENDBRANCH   2   3
BRANCH   2  16
ATOM     16  C   UNL     1       3.830   5.689  19.740  0.00  0.00    +0.000 C 
BRANCH  16  17
ATOM     17  C   UNL     1       4.746   5.594  18.540  0.00  0.00    +0.000 A 
ATOM     18  C   UNL     1       5.922   4.830  18.589  0.00  0.00    +0.000 A 
ATOM     19  C   UNL     1       6.808   4.831  17.508  0.00  0.00    +0.000 A 
ATOM     20  C   UNL     1       6.527   5.592  16.373  0.00  0.00    +0.000 A 
ATOM     21  C   UNL     1       5.366   6.369  16.332  0.00  0.00    +0.000 A 
ATOM     22  C   UNL     1       4.460   6.337  17.389  0.00  0.00    +0.000 A 
BRANCH  20  23
ATOM     23  O   UNL     1       7.475   5.564  15.371  0.00  0.00    +0.000 OA
BRANCH  23  24
ATOM     24  C   UNL     1       7.176   4.952  14.174  0.00  0.00    +0.000 A 
ATOM     25  C   UNL     1       6.149   4.006  14.193  0.00  0.00    +0.000 A 
ATOM     26  C   UNL     1       5.794   3.334  13.024  0.00  0.00    +0.000 A 
ATOM     27  C   UNL     1       6.473   3.603  11.834  0.00  0.00    +0.000 A 
ATOM     28  C   UNL     1       7.479   4.566  11.806  0.00  0.00    +0.000 A 
ATOM     29  C   UNL     1       7.807   5.264  12.967  0.00  0.00    +0.000 A 
ENDBRANCH  23  24
ENDBRANCH  20  23
ENDBRANCH  16  17
ENDBRANCH   2  16
TORSDOF 8
ENDMDL
MODEL 2
REMARK VINA RESULT:      -7.5      0.456      1.346
REMARK  Name = 
REMARK  10 active torsions:
REMARK  status: ('A' for Active; 'I' for Inactive)
REMARK    1  A    between atoms: C_1  and  N_2
REMARK    2  A    between atoms: N_2  and  C_3
REMARK    3  A    between atoms: N_2  and  C_16
REMARK    4  A    between atoms: C_3  and  C_4
REMARK    5  A    between atoms: C_4  and  N_5
REMARK    6  A    between atoms: N_5  and  C_6
REMARK    7  A    between atoms: C_11  and  C_12
REMARK    8  A    between atoms: C_16  and  C_17
REMARK    9  A    between atoms: C_20  and  O_21
REMARK   10  A    between atoms: O_21  and  C_22
REMARK                            x       y       z     vdW  Elec       q    Type
REMARK                         _______ _______ _______ _____ _____    ______ ____
ROOT
ATOM      1  C   UNL     1       1.333   4.581  19.835  0.00  0.00    +0.000 C 
ATOM      2  N   UNL     1       2.343   5.627  19.605  0.00  0.00    +0.000 NA
ENDROOT
BRANCH   2   3
ATOM      3  C   UNL     1       1.983   6.816  20.408  0.00  0.00    +0.000 C 
BRANCH   3   4
ATOM      4  C   UNL     1       2.179   8.189  19.726  0.00  0.00    +0.000 C 
BRANCH   4   5
ATOM      5  N   UNL     1       0.985   9.037  19.714  0.00  0.00    +0.000 N 
ATOM      6  C   UNL     1       0.118   9.016  20.887  0.00  0.00    +0.000 C 
ATOM      7  C   UNL     1       0.581   9.537  18.474  0.00  0.00    +0.000 C 
ATOM      8  O   UNL     1       1.088   9.267  17.389  0.00  0.00    +0.000 OA
ATOM      9  N   UNL     1      -0.599  10.314  18.487  0.00  0.00    +0.000 N 
ATOM     10  C   UNL     1      -1.673  10.174  17.626  0.00  0.00    +0.000 A 
ATOM     11  C   UNL     1      -2.523  11.222  17.876  0.00  0.00    +0.000 A 
ATOM     12  C   UNL     1      -1.898  11.958  18.893  0.00  0.00    +0.000 A 
ATOM     13  N   UNL     1      -0.771  11.382  19.323  0.00  0.00    +0.000 NA
BRANCH  11  14
ATOM     14  C   UNL     1      -3.767  11.489  17.232  0.00  0.00    +0.000 C 
ATOM     15  N   UNL     1      -4.775  11.688  16.704  0.00  0.00    +0.000 NA
ENDBRANCH  11  14
ENDBRANCH   4   5
ENDBRANCH   3   4
ENDBRANCH   2   3
BRANCH   2  16
ATOM     16  C   UNL     1       3.698   5.142  19.924  0.00  0.00    +0.000 C 
BRANCH  16  17
ATOM     17  C   UNL     1       4.686   5.354  18.798  0.00  0.00    +0.000 A 
ATOM     18  C   UNL     1       4.346   6.122  17.674  0.00  0.00    +0.000 A 
ATOM     19  C   UNL     1       5.232   6.229  16.599  0.00  0.00    +0.000 A 
ATOM     20  C   UNL     1       6.462   5.570  16.638  0.00  0.00    +0.000 A 
ATOM     21  C   UNL     1       6.793   4.788  17.748  0.00  0.00    +0.000 A 
ATOM     22  C   UNL     1       5.930   4.716  18.840  0.00  0.00    +0.000 A 
BRANCH  20  23
ATOM     23  O   UNL     1       7.256   5.698  15.518  0.00  0.00    +0.000 OA
BRANCH  23  24
ATOM     24  C   UNL     1       6.943   4.986  14.381  0.00  0.00    +0.000 A 
ATOM     25  C   UNL     1       7.740   5.217  13.258  0.00  0.00    +0.000 A 
ATOM     26  C   UNL     1       7.480   4.544  12.065  0.00  0.00    +0.000 A 
ATOM     27  C   UNL     1       6.417   3.642  11.992  0.00  0.00    +0.000 A 
ATOM     28  C   UNL     1       5.638   3.389  13.119  0.00  0.00    +0.000 A 
ATOM     29  C   UNL     1       5.922   4.034  14.321  0.00  0.00    +0.000 A 
ENDBRANCH  23  24
ENDBRANCH  20  23
ENDBRANCH  16  17
ENDBRANCH   2  16
TORSDOF 8
ENDMDL
MODEL 3
REMARK VINA RESULT:      -7.2      3.344      9.012
REMARK  Name = 
REMARK  10 active torsions:
REMARK  status: ('A' for Active; 'I' for Inactive)
REMARK    1  A    between atoms: C_1  and  N_2
REMARK    2  A    between atoms: N_2  and  C_3
REMARK    3  A    between atoms: N_2  and  C_16
REMARK    4  A    between atoms: C_3  and  C_4
REMARK    5  A    between atoms: C_4  and  N_5
REMARK    6  A    between atoms: N_5  and  C_6
REMARK    7  A    between atoms: C_11  and  C_12
REMARK    8  A    between atoms: C_16  and  C_17
REMARK    9  A    between atoms: C_20  and  O_21
REMARK   10  A    between atoms: O_21  and  C_22
REMARK                            x       y       z     vdW  Elec       q    Type
REMARK                         _______ _______ _______ _____ _____    ______ ____
ROOT
ATOM      1  C   UNL     1       1.115   3.975  19.515  0.00  0.00    +0.000 C 
ATOM      2  N   UNL     1       2.203   4.214  20.478  0.00  0.00    +0.000 NA
ENDROOT
BRANCH   2   3
ATOM      3  C   UNL     1       2.935   2.946  20.688  0.00  0.00    +0.000 C 
BRANCH   3   4
ATOM      4  C   UNL     1       4.380   2.889  20.145  0.00  0.00    +0.000 C 
BRANCH   4   5
ATOM      5  N   UNL     1       4.521   3.305  18.748  0.00  0.00    +0.000 N 
ATOM      6  C   UNL     1       3.807   2.543  17.730  0.00  0.00    +0.000 C 
ATOM      7  C   UNL     1       5.575   4.173  18.454  0.00  0.00    +0.000 C 
ATOM      8  O   UNL     1       6.437   4.552  19.241  0.00  0.00    +0.000 OA
ATOM      9  N   UNL     1       5.713   4.521  17.091  0.00  0.00    +0.000 N 
ATOM     10  C   UNL     1       6.888   4.496  16.361  0.00  0.00    +0.000 A 
ATOM     11  C   UNL     1       6.611   5.060  15.142  0.00  0.00    +0.000 A 
ATOM     12  C   UNL     1       5.254   5.411  15.206  0.00  0.00    +0.000 A 
ATOM     13  N   UNL     1       4.680   5.026  16.350  0.00  0.00    +0.000 NA
BRANCH  11  14
ATOM     14  C   UNL     1       7.518   5.244  14.056  0.00  0.00    +0.000 C 
ATOM     15  N   UNL     1       8.257   5.409  13.185  0.00  0.00    +0.000 NA
ENDBRANCH  11  14
ENDBRANCH   4   5
ENDBRANCH   3   4
ENDBRANCH   2   3
BRANCH   2  16
ATOM     16  C   UNL     1       3.097   5.291  20.018  0.00  0.00    +0.000 C 
BRANCH  16  17
ATOM     17  C   UNL     1       2.392   6.620  19.852  0.00  0.00    +0.000 A 
ATOM     18  C   UNL     1       2.514   7.357  18.665  0.00  0.00    +0.000 A 
ATOM     19  C   UNL     1       1.939   8.626  18.562  0.00  0.00    +0.000 A 
ATOM     20  C   UNL     1       1.239   9.167  19.642  0.00  0.00    +0.000 A 
ATOM     21  C   UNL     1       1.135   8.442  20.832  0.00  0.00    +0.000 A 
ATOM     22  C   UNL     1       1.670   7.158  20.922  0.00  0.00    +0.000 A 
BRANCH  20  23
ATOM     23  O   UNL     1       0.738  10.440  19.466  0.00  0.00    +0.000 OA
BRANCH  23  24
ATOM     24  C   UNL     1      -0.502  10.606  18.891  0.00  0.00    +0.000 A 
ATOM     25  C   UNL     1      -1.308  11.617  19.420  0.00  0.00    +0.000 A 
ATOM     26  C   UNL     1      -2.582  11.841  18.900  0.00  0.00    +0.000 A 
ATOM     27  C   UNL     1      -3.055  11.049  17.852  0.00  0.00    +0.000 A 
ATOM     28  C   UNL     1      -2.242  10.059  17.303  0.00  0.00    +0.000 A 
ATOM     29  C   UNL     1      -0.955   9.861  17.799  0.00  0.00    +0.000 A 
ENDBRANCH  23  24
ENDBRANCH  20  23
ENDBRANCH  16  17
ENDBRANCH   2  16
TORSDOF 8
ENDMDL
MODEL 4
REMARK VINA RESULT:      -7.2      6.453      8.951
REMARK  Name = 
REMARK  10 active torsions:
REMARK  status: ('A' for Active; 'I' for Inactive)
REMARK    1  A    between atoms: C_1  and  N_2
REMARK    2  A    between atoms: N_2  and  C_3
REMARK    3  A    between atoms: N_2  and  C_16
REMARK    4  A    between atoms: C_3  and  C_4
REMARK    5  A    between atoms: C_4  and  N_5
REMARK    6  A    between atoms: N_5  and  C_6
REMARK    7  A    between atoms: C_11  and  C_12
REMARK    8  A    between atoms: C_16  and  C_17
REMARK    9  A    between atoms: C_20  and  O_21
REMARK   10  A    between atoms: O_21  and  C_22
REMARK                            x       y       z     vdW  Elec       q    Type
REMARK                         _______ _______ _______ _____ _____    ______ ____
ROOT
ATOM      1  C   UNL     1       8.199   6.357  19.102  0.00  0.00    +0.000 C 
ATOM      2  N   UNL     1       7.631   7.472  18.327  0.00  0.00    +0.000 NA
ENDROOT
BRANCH   2   3
ATOM      3  C   UNL     1       8.632   8.560  18.264  0.00  0.00    +0.000 C 
BRANCH   3   4
ATOM      4  C   UNL     1       8.115   9.942  17.805  0.00  0.00    +0.000 C 
BRANCH   4   5
ATOM      5  N   UNL     1       8.985  11.065  18.163  0.00  0.00    +0.000 N 
ATOM      6  C   UNL     1       9.914  10.885  19.272  0.00  0.00    +0.000 C 
ATOM      7  C   UNL     1       8.637  12.318  17.653  0.00  0.00    +0.000 C 
ATOM      8  O   UNL     1       7.629  12.575  17.001  0.00  0.00    +0.000 OA
ATOM      9  N   UNL     1       9.468  13.388  18.052  0.00  0.00    +0.000 N 
ATOM     10  C   UNL     1       9.040  14.611  18.539  0.00  0.00    +0.000 A 
ATOM     11  C   UNL     1      10.152  15.408  18.647  0.00  0.00    +0.000 A 
ATOM     12  C   UNL     1      11.214  14.607  18.200  0.00  0.00    +0.000 A 
ATOM     13  N   UNL     1      10.827  13.362  17.907  0.00  0.00    +0.000 NA
BRANCH  11  14
ATOM     14  C   UNL     1      10.199  16.755  19.111  0.00  0.00    +0.000 C 
ATOM     15  N   UNL     1      10.253  17.842  19.497  0.00  0.00    +0.000 NA
ENDBRANCH  11  14
ENDBRANCH   4   5
ENDBRANCH   3   4
ENDBRANCH   2   3
BRANCH   2  16
ATOM     16  C   UNL     1       7.215   7.033  16.984  0.00  0.00    +0.000 C 
BRANCH  16  17
ATOM     17  C   UNL     1       6.051   6.067  17.007  0.00  0.00    +0.000 A 
ATOM     18  C   UNL     1       4.824   6.430  17.582  0.00  0.00    +0.000 A 
ATOM     19  C   UNL     1       3.790   5.495  17.683  0.00  0.00    +0.000 A 
ATOM     20  C   UNL     1       3.974   4.193  17.213  0.00  0.00    +0.000 A 
ATOM     21  C   UNL     1       5.204   3.826  16.660  0.00  0.00    +0.000 A 
ATOM     22  C   UNL     1       6.221   4.768  16.517  0.00  0.00    +0.000 A 
BRANCH  20  23
ATOM     23  O   UNL     1       2.916   3.327  17.390  0.00  0.00    +0.000 OA
BRANCH  23  24
ATOM     24  C   UNL     1       2.375   3.168  18.646  0.00  0.00    +0.000 A 
ATOM     25  C   UNL     1       3.238   2.720  19.648  0.00  0.00    +0.000 A 
ATOM     26  C   UNL     1       2.763   2.523  20.945  0.00  0.00    +0.000 A 
ATOM     27  C   UNL     1       1.421   2.768  21.239  0.00  0.00    +0.000 A 
ATOM     28  C   UNL     1       0.564   3.242  20.248  0.00  0.00    +0.000 A 
ATOM     29  C   UNL     1       1.048   3.474  18.962  0.00  0.00    +0.000 A 
ENDBRANCH  23  24
ENDBRANCH  20  23
ENDBRANCH  16  17
ENDBRANCH   2  16
TORSDOF 8
ENDMDL
MODEL 5
REMARK VINA RESULT:      -7.2      3.181      5.622
REMARK  Name = 
REMARK  10 active torsions:
REMARK  status: ('A' for Active; 'I' for Inactive)
REMARK    1  A    between atoms: C_1  and  N_2
REMARK    2  A    between atoms: N_2  and  C_3
REMARK    3  A    between atoms: N_2  and  C_16
REMARK    4  A    between atoms: C_3  and  C_4
REMARK    5  A    between atoms: C_4  and  N_5
REMARK    6  A    between atoms: N_5  and  C_6
REMARK    7  A    between atoms: C_11  and  C_12
REMARK    8  A    between atoms: C_16  and  C_17
REMARK    9  A    between atoms: C_20  and  O_21
REMARK   10  A    between atoms: O_21  and  C_22
REMARK                            x       y       z     vdW  Elec       q    Type
REMARK                         _______ _______ _______ _____ _____    ______ ____
ROOT
ATOM      1  C   UNL     1      -1.293  10.866  22.918  0.00  0.00    +0.000 C 
ATOM      2  N   UNL     1      -0.852  11.127  21.538  0.00  0.00    +0.000 NA
ENDROOT
BRANCH   2   3
ATOM      3  C   UNL     1      -1.291  12.486  21.151  0.00  0.00    +0.000 C 
BRANCH   3   4
ATOM      4  C   UNL     1      -2.515  12.571  20.212  0.00  0.00    +0.000 C 
BRANCH   4   5
ATOM      5  N   UNL     1      -2.303  11.990  18.885  0.00  0.00    +0.000 N 
ATOM      6  C   UNL     1      -1.131  12.416  18.129  0.00  0.00    +0.000 C 
ATOM      7  C   UNL     1      -3.393  11.338  18.302  0.00  0.00    +0.000 C 
ATOM      8  O   UNL     1      -4.529  11.278  18.766  0.00  0.00    +0.000 OA
ATOM      9  N   UNL     1      -3.172  10.827  17.004  0.00  0.00    +0.000 N 
ATOM     10  C   UNL     1      -4.005  10.997  15.912  0.00  0.00    +0.000 A 
ATOM     11  C   UNL     1      -3.506  10.209  14.905  0.00  0.00    +0.000 A 
ATOM     12  C   UNL     1      -2.378   9.585  15.459  0.00  0.00    +0.000 A 
ATOM     13  N   UNL     1      -2.122  10.004  16.703  0.00  0.00    +0.000 NA
BRANCH  11  14
ATOM     14  C   UNL     1      -4.033  10.066  13.587  0.00  0.00    +0.000 C 
ATOM     15  N   UNL     1      -4.477   9.956  12.527  0.00  0.00    +0.000 NA
ENDBRANCH  11  14
ENDBRANCH   4   5
ENDBRANCH   3   4
ENDBRANCH   2   3
BRANCH   2  16
ATOM     16  C   UNL     1       0.606  10.964  21.402  0.00  0.00    +0.000 C 
BRANCH  16  17
ATOM     17  C   UNL     1       0.996   9.767  20.563  0.00  0.00    +0.000 A 
ATOM     18  C   UNL     1       1.216   8.514  21.152  0.00  0.00    +0.000 A 
ATOM     19  C   UNL     1       1.670   7.442  20.379  0.00  0.00    +0.000 A 
ATOM     20  C   UNL     1       1.907   7.613  19.015  0.00  0.00    +0.000 A 
ATOM     21  C   UNL     1       1.708   8.868  18.431  0.00  0.00    +0.000 A 
ATOM     22  C   UNL     1       1.213   9.926  19.190  0.00  0.00    +0.000 A 
BRANCH  20  23
ATOM     23  O   UNL     1       2.391   6.514  18.338  0.00  0.00    +0.000 OA
BRANCH  23  24
ATOM     24  C   UNL     1       3.741   6.242  18.367  0.00  0.00    +0.000 A 
ATOM     25  C   UNL     1       4.515   6.800  17.348  0.00  0.00    +0.000 A 
ATOM     26  C   UNL     1       5.888   6.562  17.301  0.00  0.00    +0.000 A 
ATOM     27  C   UNL     1       6.489   5.758  18.272  0.00  0.00    +0.000 A 
ATOM     28  C   UNL     1       5.724   5.223  19.306  0.00  0.00    +0.000 A 
ATOM     29  C   UNL     1       4.358   5.492  19.373  0.00  0.00    +0.000 A 
ENDBRANCH  23  24
ENDBRANCH  20  23
ENDBRANCH  16  17
ENDBRANCH   2  16
TORSDOF 8
ENDMDL
MODEL 6
REMARK VINA RESULT:      -7.0      4.329      9.056
REMARK  Name = 
REMARK  10 active torsions:
REMARK  status: ('A' for Active; 'I' for Inactive)
REMARK    1  A    between atoms: C_1  and  N_2
REMARK    2  A    between atoms: N_2  and  C_3
REMARK    3  A    between atoms: N_2  and  C_16
REMARK    4  A    between atoms: C_3  and  C_4
REMARK    5  A    between atoms: C_4  and  N_5
REMARK    6  A    between atoms: N_5  and  C_6
REMARK    7  A    between atoms: C_11  and  C_12
REMARK    8  A    between atoms: C_16  and  C_17
REMARK    9  A    between atoms: C_20  and  O_21
REMARK   10  A    between atoms: O_21  and  C_22
REMARK                            x       y       z     vdW  Elec       q    Type
REMARK                         _______ _______ _______ _____ _____    ______ ____
ROOT
ATOM      1  C   UNL     1       0.699   1.809  18.894  0.00  0.00    +0.000 C 
ATOM      2  N   UNL     1       1.797   2.787  18.976  0.00  0.00    +0.000 NA
ENDROOT
BRANCH   2   3
ATOM      3  C   UNL     1       3.067   2.099  18.656  0.00  0.00    +0.000 C 
BRANCH   3   4
ATOM      4  C   UNL     1       3.969   2.779  17.602  0.00  0.00    +0.000 C 
BRANCH   4   5
ATOM      5  N   UNL     1       4.921   3.747  18.152  0.00  0.00    +0.000 N 
ATOM      6  C   UNL     1       4.802   4.100  19.562  0.00  0.00    +0.000 C 
ATOM      7  C   UNL     1       5.646   4.509  17.232  0.00  0.00    +0.000 C 
ATOM      8  O   UNL     1       5.500   4.496  16.013  0.00  0.00    +0.000 OA
ATOM      9  N   UNL     1       6.522   5.465  17.792  0.00  0.00    +0.000 N 
ATOM     10  C   UNL     1       6.625   6.792  17.414  0.00  0.00    +0.000 A 
ATOM     11  C   UNL     1       7.698   7.316  18.090  0.00  0.00    +0.000 A 
ATOM     12  C   UNL     1       8.203   6.250  18.849  0.00  0.00    +0.000 A 
ATOM     13  N   UNL     1       7.459   5.145  18.736  0.00  0.00    +0.000 NA
BRANCH  11  14
ATOM     14  C   UNL     1       8.183   8.655  18.021  0.00  0.00    +0.000 C 
ATOM     15  N   UNL     1       8.589   9.735  17.952  0.00  0.00    +0.000 NA
ENDBRANCH  11  14
ENDBRANCH   4   5
ENDBRANCH   3   4
ENDBRANCH   2   3
BRANCH   2  16
ATOM     16  C   UNL     1       1.559   3.936  18.086  0.00  0.00    +0.000 C 
BRANCH  16  17
ATOM     17  C   UNL     1       1.615   5.267  18.803  0.00  0.00    +0.000 A 
ATOM     18  C   UNL     1       2.008   6.433  18.129  0.00  0.00    +0.000 A 
ATOM     19  C   UNL     1       2.150   7.636  18.826  0.00  0.00    +0.000 A 
ATOM     20  C   UNL     1       1.902   7.683  20.199  0.00  0.00    +0.000 A 
ATOM     21  C   UNL     1       1.531   6.516  20.874  0.00  0.00    +0.000 A 
ATOM     22  C   UNL     1       1.346   5.326  20.174  0.00  0.00    +0.000 A 
BRANCH  20  23
ATOM     23  O   UNL     1       2.105   8.900  20.813  0.00  0.00    +0.000 OA
BRANCH  23  24
ATOM     24  C   UNL     1       1.030   9.579  21.341  0.00  0.00    +0.000 A 
ATOM     25  C   UNL     1       0.662   9.251  22.648  0.00  0.00    +0.000 A 
ATOM     26  C   UNL     1      -0.424   9.886  23.251  0.00  0.00    +0.000 A 
ATOM     27  C   UNL     1      -1.148  10.847  22.543  0.00  0.00    +0.000 A 
ATOM     28  C   UNL     1      -0.766  11.197  21.250  0.00  0.00    +0.000 A 
ATOM     29  C   UNL     1       0.342  10.589  20.662  0.00  0.00    +0.000 A 
ENDBRANCH  23  24
ENDBRANCH  20  23
ENDBRANCH  16  17
ENDBRANCH   2  16
TORSDOF 8
ENDMDL
MODEL 7
REMARK VINA RESULT:      -6.9      1.649      2.556
REMARK  Name = 
REMARK  10 active torsions:
REMARK  status: ('A' for Active; 'I' for Inactive)
REMARK    1  A    between atoms: C_1  and  N_2
REMARK    2  A    between atoms: N_2  and  C_3
REMARK    3  A    between atoms: N_2  and  C_16
REMARK    4  A    between atoms: C_3  and  C_4
REMARK    5  A    between atoms: C_4  and  N_5
REMARK    6  A    between atoms: N_5  and  C_6
REMARK    7  A    between atoms: C_11  and  C_12
REMARK    8  A    between atoms: C_16  and  C_17
REMARK    9  A    between atoms: C_20  and  O_21
REMARK   10  A    between atoms: O_21  and  C_22
REMARK                            x       y       z     vdW  Elec       q    Type
REMARK                         _______ _______ _______ _____ _____    ______ ____
ROOT
ATOM      1  C   UNL     1       1.518   5.510  20.305  0.00  0.00    +0.000 C 
ATOM      2  N   UNL     1       2.538   5.944  19.336  0.00  0.00    +0.000 NA
ENDROOT
BRANCH   2   3
ATOM      3  C   UNL     1       2.502   7.420  19.243  0.00  0.00    +0.000 C 
BRANCH   3   4
ATOM      4  C   UNL     1       1.546   8.147  20.215  0.00  0.00    +0.000 C 
BRANCH   4   5
ATOM      5  N   UNL     1       0.907   9.342  19.659  0.00  0.00    +0.000 N 
ATOM      6  C   UNL     1       0.868   9.486  18.208  0.00  0.00    +0.000 C 
ATOM      7  C   UNL     1       0.686  10.404  20.538  0.00  0.00    +0.000 C 
ATOM      8  O   UNL     1       1.049  10.456  21.710  0.00  0.00    +0.000 OA
ATOM      9  N   UNL     1       0.110  11.559  19.963  0.00  0.00    +0.000 N 
ATOM     10  C   UNL     1       0.555  12.859  20.134  0.00  0.00    +0.000 A 
ATOM     11  C   UNL     1      -0.375  13.677  19.544  0.00  0.00    +0.000 A 
ATOM     12  C   UNL     1      -1.357  12.808  19.045  0.00  0.00    +0.000 A 
ATOM     13  N   UNL     1      -1.041  11.522  19.227  0.00  0.00    +0.000 NA
BRANCH  11  14
ATOM     14  C   UNL     1      -0.337  15.101  19.465  0.00  0.00    +0.000 C 
ATOM     15  N   UNL     1      -0.298  16.254  19.419  0.00  0.00    +0.000 NA
ENDBRANCH  11  14
ENDBRANCH   4   5
ENDBRANCH   3   4
ENDBRANCH   2   3
BRANCH   2  16
ATOM     16  C   UNL     1       3.876   5.453  19.711  0.00  0.00    +0.000 C 
BRANCH  16  17
ATOM     17  C   UNL     1       4.878   5.534  18.580  0.00  0.00    +0.000 A 
ATOM     18  C   UNL     1       4.735   6.483  17.556  0.00  0.00    +0.000 A 
ATOM     19  C   UNL     1       5.612   6.482  16.468  0.00  0.00    +0.000 A 
ATOM     20  C   UNL     1       6.635   5.536  16.394  0.00  0.00    +0.000 A 
ATOM     21  C   UNL     1       6.765   4.578  17.403  0.00  0.00    +0.000 A 
ATOM     22  C   UNL     1       5.920   4.604  18.511  0.00  0.00    +0.000 A 
BRANCH  20  23
ATOM     23  O   UNL     1       7.428   5.583  15.267  0.00  0.00    +0.000 OA
BRANCH  23  24
ATOM     24  C   UNL     1       7.048   4.885  14.142  0.00  0.00    +0.000 A 
ATOM     25  C   UNL     1       7.753   5.157  12.968  0.00  0.00    +0.000 A 
ATOM     26  C   UNL     1       7.421   4.500  11.783  0.00  0.00    +0.000 A 
ATOM     27  C   UNL     1       6.378   3.573  11.771  0.00  0.00    +0.000 A 
ATOM     28  C   UNL     1       5.691   3.279  12.947  0.00  0.00    +0.000 A 
ATOM     29  C   UNL     1       6.048   3.908  14.138  0.00  0.00    +0.000 A 
ENDBRANCH  23  24
ENDBRANCH  20  23
ENDBRANCH  16  17
ENDBRANCH   2  16
TORSDOF 8
ENDMDL
MODEL 8
REMARK VINA RESULT:      -6.9      6.651      9.181
REMARK  Name = 
REMARK  10 active torsions:
REMARK  status: ('A' for Active; 'I' for Inactive)
REMARK    1  A    between atoms: C_1  and  N_2
REMARK    2  A    between atoms: N_2  and  C_3
REMARK    3  A    between atoms: N_2  and  C_16
REMARK    4  A    between atoms: C_3  and  C_4
REMARK    5  A    between atoms: C_4  and  N_5
REMARK    6  A    between atoms: N_5  and  C_6
REMARK    7  A    between atoms: C_11  and  C_12
REMARK    8  A    between atoms: C_16  and  C_17
REMARK    9  A    between atoms: C_20  and  O_21
REMARK   10  A    between atoms: O_21  and  C_22
REMARK                            x       y       z     vdW  Elec       q    Type
REMARK                         _______ _______ _______ _____ _____    ______ ____
ROOT
ATOM      1  C   UNL     1       8.350   7.146  18.899  0.00  0.00    +0.000 C 
ATOM      2  N   UNL     1       7.527   8.077  18.109  0.00  0.00    +0.000 NA
ENDROOT
BRANCH   2   3
ATOM      3  C   UNL     1       8.244   9.367  18.003  0.00  0.00    +0.000 C 
BRANCH   3   4
ATOM      4  C   UNL     1       9.325   9.641  19.073  0.00  0.00    +0.000 C 
BRANCH   4   5
ATOM      5  N   UNL     1       9.574  11.061  19.334  0.00  0.00    +0.000 N 
ATOM      6  C   UNL     1       8.742  11.731  20.327  0.00  0.00    +0.000 C 
ATOM      7  C   UNL     1      10.344  11.749  18.393  0.00  0.00    +0.000 C 
ATOM      8  O   UNL     1      10.762  11.292  17.332  0.00  0.00    +0.000 OA
ATOM      9  N   UNL     1      10.529  13.125  18.649  0.00  0.00    +0.000 N 
ATOM     10  C   UNL     1      10.358  14.151  17.736  0.00  0.00    +0.000 A 
ATOM     11  C   UNL     1      10.796  15.301  18.344  0.00  0.00    +0.000 A 
ATOM     12  C   UNL     1      11.225  14.897  19.617  0.00  0.00    +0.000 A 
ATOM     13  N   UNL     1      11.003  13.598  19.842  0.00  0.00    +0.000 NA
BRANCH  11  14
ATOM     14  C   UNL     1      10.806  16.614  17.787  0.00  0.00    +0.000 C 
ATOM     15  N   UNL     1      10.830  17.681  17.346  0.00  0.00    +0.000 NA
ENDBRANCH  11  14
ENDBRANCH   4   5
ENDBRANCH   3   4
ENDBRANCH   2   3
BRANCH   2  16
ATOM     16  C   UNL     1       7.210   7.518  16.783  0.00  0.00    +0.000 C 
BRANCH  16  17
ATOM     17  C   UNL     1       6.114   6.476  16.823  0.00  0.00    +0.000 A 
ATOM     18  C   UNL     1       4.847   6.780  17.343  0.00  0.00    +0.000 A 
ATOM     19  C   UNL     1       3.877   5.782  17.463  0.00  0.00    +0.000 A 
ATOM     20  C   UNL     1       4.164   4.475  17.066  0.00  0.00    +0.000 A 
ATOM     21  C   UNL     1       5.433   4.167  16.567  0.00  0.00    +0.000 A 
ATOM     22  C   UNL     1       6.387   5.169  16.405  0.00  0.00    +0.000 A 
BRANCH  20  23
ATOM     23  O   UNL     1       3.162   3.547  17.257  0.00  0.00    +0.000 OA
BRANCH  23  24
ATOM     24  C   UNL     1       2.684   3.319  18.528  0.00  0.00    +0.000 A 
ATOM     25  C   UNL     1       1.309   3.469  18.717  0.00  0.00    +0.000 A 
ATOM     26  C   UNL     1       0.749   3.267  19.978  0.00  0.00    +0.000 A 
ATOM     27  C   UNL     1       1.566   2.920  21.055  0.00  0.00    +0.000 A 
ATOM     28  C   UNL     1       2.935   2.742  20.864  0.00  0.00    +0.000 A 
ATOM     29  C   UNL     1       3.488   2.907  19.596  0.00  0.00    +0.000 A 
ENDBRANCH  23  24
ENDBRANCH  20  23
ENDBRANCH  16  17
ENDBRANCH   2  16
TORSDOF 8
ENDMDL
MODEL 9
REMARK VINA RESULT:      -6.9      5.399      8.080
REMARK  Name = 
REMARK  10 active torsions:
REMARK  status: ('A' for Active; 'I' for Inactive)
REMARK    1  A    between atoms: C_1  and  N_2
REMARK    2  A    between atoms: N_2  and  C_3
REMARK    3  A    between atoms: N_2  and  C_16
REMARK    4  A    between atoms: C_3  and  C_4
REMARK    5  A    between atoms: C_4  and  N_5
REMARK    6  A    between atoms: N_5  and  C_6
REMARK    7  A    between atoms: C_11  and  C_12
REMARK    8  A    between atoms: C_16  and  C_17
REMARK    9  A    between atoms: C_20  and  O_21
REMARK   10  A    between atoms: O_21  and  C_22
REMARK                            x       y       z     vdW  Elec       q    Type
REMARK                         _______ _______ _______ _____ _____    ______ ____
ROOT
ATOM      1  C   UNL     1       2.493  12.440  18.078  0.00  0.00    +0.000 C 
ATOM      2  N   UNL     1       1.377  12.348  19.034  0.00  0.00    +0.000 NA
ENDROOT
BRANCH   2   3
ATOM      3  C   UNL     1       0.692  13.658  19.088  0.00  0.00    +0.000 C 
BRANCH   3   4
ATOM      4  C   UNL     1       1.203  14.656  20.152  0.00  0.00    +0.000 C 
BRANCH   4   5
ATOM      5  N   UNL     1       2.338  15.475  19.720  0.00  0.00    +0.000 N 
ATOM      6  C   UNL     1       2.146  16.369  18.584  0.00  0.00    +0.000 C 
ATOM      7  C   UNL     1       3.598  15.105  20.197  0.00  0.00    +0.000 C 
ATOM      8  O   UNL     1       3.848  14.113  20.877  0.00  0.00    +0.000 OA
ATOM      9  N   UNL     1       4.678  15.886  19.728  0.00  0.00    +0.000 N 
ATOM     10  C   UNL     1       5.868  15.400  19.213  0.00  0.00    +0.000 A 
ATOM     11  C   UNL     1       6.694  16.481  19.034  0.00  0.00    +0.000 A 
ATOM     12  C   UNL     1       5.945  17.585  19.469  0.00  0.00    +0.000 A 
ATOM     13  N   UNL     1       4.700  17.250  19.823  0.00  0.00    +0.000 NA
BRANCH  11  14
ATOM     14  C   UNL     1       8.024  16.468  18.519  0.00  0.00    +0.000 C 
ATOM     15  N   UNL     1       9.094  16.449  18.086  0.00  0.00    +0.000 NA
ENDBRANCH  11  14
ENDBRANCH   4   5
ENDBRANCH   3   4
ENDBRANCH   2   3
BRANCH   2  16
ATOM     16  C   UNL     1       0.449  11.262  18.670  0.00  0.00    +0.000 C 
BRANCH  16  17
ATOM     17  C   UNL     1       1.007   9.884  18.949  0.00  0.00    +0.000 A 
ATOM     18  C   UNL     1       0.964   9.336  20.240  0.00  0.00    +0.000 A 
ATOM     19  C   UNL     1       1.570   8.105  20.503  0.00  0.00    +0.000 A 
ATOM     20  C   UNL     1       2.222   7.413  19.481  0.00  0.00    +0.000 A 
ATOM     21  C   UNL     1       2.284   7.968  18.200  0.00  0.00    +0.000 A 
ATOM     22  C   UNL     1       1.643   9.174  17.925  0.00  0.00    +0.000 A 
BRANCH  20  23
ATOM     23  O   UNL     1       2.826   6.226  19.839  0.00  0.00    +0.000 OA
BRANCH  23  24
ATOM     24  C   UNL     1       2.200   5.034  19.548  0.00  0.00    +0.000 A 
ATOM     25  C   UNL     1       1.580   4.376  20.612  0.00  0.00    +0.000 A 
ATOM     26  C   UNL     1       0.934   3.158  20.402  0.00  0.00    +0.000 A 
ATOM     27  C   UNL     1       0.914   2.593  19.125  0.00  0.00    +0.000 A 
ATOM     28  C   UNL     1       1.507   3.261  18.056  0.00  0.00    +0.000 A 
ATOM     29  C   UNL     1       2.119   4.496  18.261  0.00  0.00    +0.000 A 
ENDBRANCH  23  24
ENDBRANCH  20  23
ENDBRANCH  16  17
ENDBRANCH   2  16
TORSDOF 8
ENDMDL
