MODEL 1
REMARK VINA RESULT:      -7.4      0.000      0.000
REMARK  Name = 
REMARK  9 active torsions:
REMARK  status: ('A' for Active; 'I' for Inactive)
REMARK    1  A    between atoms: C_1  and  O_2
REMARK    2  A    between atoms: O_2  and  C_3
REMARK    3  A    between atoms: C_9  and  C_10
REMARK    4  A    between atoms: N_12  and  C_13
REMARK    5  A    between atoms: N_12  and  C_14
REMARK    6  A    between atoms: C_14  and  C_15
REMARK    7  A    between atoms: C_19  and  C_20
REMARK    8  A    between atoms: N_23  and  C_24
REMARK    9  A    between atoms: C_24  and  C_25
REMARK                            x       y       z     vdW  Elec       q    Type
REMARK                         _______ _______ _______ _____ _____    ______ ____
ROOT
ATOM      1  C   UNL     1       3.185   3.090  18.567  0.00  0.00    +0.000 A 
ATOM      2  C   UNL     1       2.483   3.153  19.709  0.00  0.00    +0.000 A 
ATOM      3  C   UNL     1       2.232   4.423  20.374  0.00  0.00    +0.000 A 
ATOM      4  O   UNL     1       1.523   4.420  21.375  0.00  0.00    +0.000 OA
ATOM      5  N   UNL     1       2.801   5.540  19.777  0.00  0.00    +0.000 N 
ATOM      6  C   UNL     1       3.601   5.486  18.611  0.00  0.00    +0.000 A 
ATOM      7  C   UNL     1       3.823   4.306  17.952  0.00  0.00    +0.000 A 
ATOM      8  C   UNL     1       4.082   6.847  18.195  0.00  0.00    +0.000 C 
ATOM      9  C   UNL     1       3.009   7.680  17.515  0.00  0.00    +0.000 C 
ATOM     10  N   UNL     1       2.268   8.530  18.450  0.00  0.00    +0.000 NA
ATOM     11  C   UNL     1       1.550   7.728  19.472  0.00  0.00    +0.000 C 
ATOM     12  C   UNL     1       2.427   6.839  20.387  0.00  0.00    +0.000 C 
ENDROOT
BRANCH   7  13
ATOM     13  C   UNL     1       4.414   4.110  16.511  0.00  0.00    +0.000 C 
ATOM     14  O   UNL     1       3.638   3.611  15.676  0.00  0.00    +0.000 OA
ATOM     15  N   UNL     1       5.666   4.519  16.021  0.00  0.00    +0.000 N 
ATOM     16  C   UNL     1       5.841   4.370  14.567  0.00  0.00    +0.000 C 
BRANCH  15  17
ATOM     17  C   UNL     1       6.936   4.486  16.755  0.00  0.00    +0.000 C 
BRANCH  17  18
ATOM     18  C   UNL     1       7.408   5.797  17.361  0.00  0.00    +0.000 A 
ATOM     19  N   UNL     1       7.471   6.834  16.514  0.00  0.00    +0.000 NA
ATOM     20  O   UNL     1       7.947   7.909  17.243  0.00  0.00    +0.000 OA
ATOM     21  N   UNL     1       8.184   7.544  18.551  0.00  0.00    +0.000 NA
ATOM     22  C   UNL     1       7.862   6.251  18.635  0.00  0.00    +0.000 A 
ATOM     23  C   UNL     1       8.055   5.606  19.957  0.00  0.00    +0.000 C 
ENDBRANCH  17  18
ENDBRANCH  15  17
ENDBRANCH   7  13
BRANCH   1  25
ATOM     24  C   UNL     1       4.063   0.866  18.603  0.00  0.00    +0.000 C 
ATOM     25  O   UNL     1       3.337   1.882  17.897  0.00  0.00    +0.000 OA
ENDBRANCH   1  25
BRANCH  10  26
ATOM     26  C   UNL     1       1.298   9.371  17.708  0.00  0.00    +0.000 C 
BRANCH  26  27
ATOM     27  C   UNL     1       0.497  10.340  18.561  0.00  0.00    +0.000 A 
ATOM     28  C   UNL     1      -0.905  10.367  18.480  0.00  0.00    +0.000 A 
ATOM     29  C   UNL     1      -1.652  11.206  19.316  0.00  0.00    +0.000 A 
ATOM     30  C   UNL     1      -0.994  12.009  20.238  0.00  0.00    +0.000 A 
ATOM     31  F   UNL     1      -1.715  12.773  21.074  0.00  0.00    +0.000 F 
ATOM     32  C   UNL     1       0.392  12.016  20.325  0.00  0.00    +0.000 A 
ATOM     33  C   UNL     1       1.136  11.187  19.480  0.00  0.00    +0.000 A 
ENDBRANCH  26  27
ENDBRANCH  10  26
TORSDOF 6
ENDMDL
MODEL 2
REMARK VINA RESULT:      -7.3      0.989      1.327
REMARK  Name = 
REMARK  9 active torsions:
REMARK  status: ('A' for Active; 'I' for Inactive)
REMARK    1  A    between atoms: C_1  and  O_2
REMARK    2  A    between atoms: O_2  and  C_3
REMARK    3  A    between atoms: C_9  and  C_10
REMARK    4  A    between atoms: N_12  and  C_13
REMARK    5  A    between atoms: N_12  and  C_14
REMARK    6  A    between atoms: C_14  and  C_15
REMARK    7  A    between atoms: C_19  and  C_20
REMARK    8  A    between atoms: N_23  and  C_24
REMARK    9  A    between atoms: C_24  and  C_25
REMARK                            x       y       z     vdW  Elec       q    Type
REMARK                         _______ _______ _______ _____ _____    ______ ____
ROOT
ATOM      1  C   UNL     1       3.326   3.073  18.650  0.00  0.00    +0.000 A 
ATOM      2  C   UNL     1       2.692   3.141  19.831  0.00  0.00    +0.000 A 
ATOM      3  C   UNL     1       2.456   4.416  20.491  0.00  0.00    +0.000 A 
ATOM      4  O   UNL     1       1.809   4.416  21.533  0.00  0.00    +0.000 OA
ATOM      5  N   UNL     1       2.967   5.535  19.845  0.00  0.00    +0.000 N 
ATOM      6  C   UNL     1       3.698   5.477  18.634  0.00  0.00    +0.000 A 
ATOM      7  C   UNL     1       3.903   4.291  17.981  0.00  0.00    +0.000 A 
ATOM      8  C   UNL     1       4.126   6.840  18.171  0.00  0.00    +0.000 C 
ATOM      9  C   UNL     1       2.999   7.643  17.544  0.00  0.00    +0.000 C 
ATOM     10  N   UNL     1       2.298   8.493  18.510  0.00  0.00    +0.000 NA
ATOM     11  C   UNL     1       1.658   7.694  19.584  0.00  0.00    +0.000 C 
ATOM     12  C   UNL     1       2.604   6.836  20.458  0.00  0.00    +0.000 C 
ENDROOT
BRANCH   7  13
ATOM     13  C   UNL     1       4.410   4.083  16.510  0.00  0.00    +0.000 C 
ATOM     14  O   UNL     1       3.593   3.567  15.727  0.00  0.00    +0.000 OA
ATOM     15  N   UNL     1       5.628   4.499  15.942  0.00  0.00    +0.000 N 
ATOM     16  C   UNL     1       5.719   4.335  14.483  0.00  0.00    +0.000 C 
BRANCH  15  17
ATOM     17  C   UNL     1       6.938   4.487  16.602  0.00  0.00    +0.000 C 
BRANCH  17  18
ATOM     18  C   UNL     1       7.384   5.783  17.257  0.00  0.00    +0.000 A 
ATOM     19  N   UNL     1       7.454   6.847  16.445  0.00  0.00    +0.000 NA
ATOM     20  O   UNL     1       7.903   7.903  17.217  0.00  0.00    +0.000 OA
ATOM     21  N   UNL     1       8.117   7.500  18.518  0.00  0.00    +0.000 NA
ATOM     22  C   UNL     1       7.806   6.202  18.555  0.00  0.00    +0.000 A 
ATOM     23  C   UNL     1       7.978   5.518  19.860  0.00  0.00    +0.000 C 
ENDBRANCH  17  18
ENDBRANCH  15  17
ENDBRANCH   7  13
BRANCH   1  25
ATOM     24  C   UNL     1       4.101   0.813  18.735  0.00  0.00    +0.000 C 
ATOM     25  O   UNL     1       3.462   1.858  17.990  0.00  0.00    +0.000 OA
ENDBRANCH   1  25
BRANCH  10  26
ATOM     26  C   UNL     1       1.269   9.304  17.815  0.00  0.00    +0.000 C 
BRANCH  26  27
ATOM     27  C   UNL     1       1.186  10.756  18.253  0.00  0.00    +0.000 A 
ATOM     28  C   UNL     1       2.291  11.610  18.098  0.00  0.00    +0.000 A 
ATOM     29  C   UNL     1       2.196  12.966  18.432  0.00  0.00    +0.000 A 
ATOM     30  C   UNL     1       0.994  13.466  18.914  0.00  0.00    +0.000 A 
ATOM     31  F   UNL     1       0.891  14.778  19.184  0.00  0.00    +0.000 F 
ATOM     32  C   UNL     1      -0.106  12.640  19.096  0.00  0.00    +0.000 A 
ATOM     33  C   UNL     1      -0.006  11.283  18.773  0.00  0.00    +0.000 A 
ENDBRANCH  26  27
ENDBRANCH  10  26
TORSDOF 6
ENDMDL
MODEL 3
REMARK VINA RESULT:      -7.1      6.631     10.681
REMARK  Name = 
REMARK  9 active torsions:
REMARK  status: ('A' for Active; 'I' for Inactive)
REMARK    1  A    between atoms: C_1  and  O_2
REMARK    2  A    between atoms: O_2  and  C_3
REMARK    3  A    between atoms: C_9  and  C_10
REMARK    4  A    between atoms: N_12  and  C_13
REMARK    5  A    between atoms: N_12  and  C_14
REMARK    6  A    between atoms: C_14  and  C_15
REMARK    7  A    between atoms: C_19  and  C_20
REMARK    8  A    between atoms: N_23  and  C_24
REMARK    9  A    between atoms: C_24  and  C_25
REMARK                            x       y       z     vdW  Elec       q    Type
REMARK                         _______ _______ _______ _____ _____    ______ ____
ROOT
ATOM      1  C   UNL     1      -2.931  13.661  23.406  0.00  0.00    +0.000 A 
ATOM      2  C   UNL     1      -3.780  13.014  24.219  0.00  0.00    +0.000 A 
ATOM      3  C   UNL     1      -5.145  12.721  23.809  0.00  0.00    +0.000 A 
ATOM      4  O   UNL     1      -5.849  12.064  24.570  0.00  0.00    +0.000 OA
ATOM      5  N   UNL     1      -5.514  13.193  22.555  0.00  0.00    +0.000 N 
ATOM      6  C   UNL     1      -4.655  13.937  21.712  0.00  0.00    +0.000 A 
ATOM      7  C   UNL     1      -3.358  14.195  22.065  0.00  0.00    +0.000 A 
ATOM      8  C   UNL     1      -5.324  14.314  20.421  0.00  0.00    +0.000 C 
ATOM      9  C   UNL     1      -5.422  13.162  19.436  0.00  0.00    +0.000 C 
ATOM     10  N   UNL     1      -6.679  12.419  19.551  0.00  0.00    +0.000 NA
ATOM     11  C   UNL     1      -6.832  11.800  20.892  0.00  0.00    +0.000 C 
ATOM     12  C   UNL     1      -6.861  12.772  22.096  0.00  0.00    +0.000 C 
ENDROOT
BRANCH   7  13
ATOM     13  C   UNL     1      -2.202  14.725  21.144  0.00  0.00    +0.000 C 
ATOM     14  O   UNL     1      -2.025  15.956  21.159  0.00  0.00    +0.000 OA
ATOM     15  N   UNL     1      -1.279  13.979  20.390  0.00  0.00    +0.000 N 
ATOM     16  C   UNL     1      -0.187  14.766  19.794  0.00  0.00    +0.000 C 
BRANCH  15  17
ATOM     17  C   UNL     1      -1.564  12.745  19.650  0.00  0.00    +0.000 C 
BRANCH  17  18
ATOM     18  C   UNL     1      -0.940  11.468  20.188  0.00  0.00    +0.000 A 
ATOM     19  N   UNL     1      -1.065  11.276  21.509  0.00  0.00    +0.000 NA
ATOM     20  O   UNL     1      -0.412  10.092  21.798  0.00  0.00    +0.000 OA
ATOM     21  N   UNL     1       0.126   9.540  20.656  0.00  0.00    +0.000 NA
ATOM     22  C   UNL     1      -0.187  10.376  19.663  0.00  0.00    +0.000 A 
ATOM     23  C   UNL     1       0.308  10.012  18.312  0.00  0.00    +0.000 C 
ENDBRANCH  17  18
ENDBRANCH  15  17
ENDBRANCH   7  13
BRANCH   1  25
ATOM     24  C   UNL     1      -1.354  14.976  24.631  0.00  0.00    +0.000 C 
ATOM     25  O   UNL     1      -1.605  13.853  23.776  0.00  0.00    +0.000 OA
ENDBRANCH   1  25
BRANCH  10  26
ATOM     26  C   UNL     1      -6.739  11.365  18.510  0.00  0.00    +0.000 C 
BRANCH  26  27
ATOM     27  C   UNL     1      -5.412  11.031  17.850  0.00  0.00    +0.000 A 
ATOM     28  C   UNL     1      -4.585  10.028  18.385  0.00  0.00    +0.000 A 
ATOM     29  C   UNL     1      -3.396   9.666  17.740  0.00  0.00    +0.000 A 
ATOM     30  C   UNL     1      -3.041  10.302  16.558  0.00  0.00    +0.000 A 
ATOM     31  F   UNL     1      -1.927   9.917  15.915  0.00  0.00    +0.000 F 
ATOM     32  C   UNL     1      -3.830  11.310  16.021  0.00  0.00    +0.000 A 
ATOM     33  C   UNL     1      -5.010  11.679  16.672  0.00  0.00    +0.000 A 
ENDBRANCH  26  27
ENDBRANCH  10  26
TORSDOF 6
ENDMDL
MODEL 4
REMARK VINA RESULT:      -7.0      1.026      1.152
REMARK  Name = 
REMARK  9 active torsions:
REMARK  status: ('A' for Active; 'I' for Inactive)
REMARK    1  A    between atoms: C_1  and  O_2
REMARK    2  A    between atoms: O_2  and  C_3
REMARK    3  A    between atoms: C_9  and  C_10
REMARK    4  A    between atoms: N_12  and  C_13
REMARK    5  A    between atoms: N_12  and  C_14
REMARK    6  A    between atoms: C_14  and  C_15
REMARK    7  A    between atoms: C_19  and  C_20
REMARK    8  A    between atoms: N_23  and  C_24
REMARK    9  A    between atoms: C_24  and  C_25
REMARK                            x       y       z     vdW  Elec       q    Type
REMARK                         _______ _______ _______ _____ _____    ______ ____
ROOT
ATOM      1  C   UNL     1       3.605   3.242  18.506  0.00  0.00    +0.000 A 
ATOM      2  C   UNL     1       2.967   3.256  19.686  0.00  0.00    +0.000 A 
ATOM      3  C   UNL     1       2.647   4.506  20.358  0.00  0.00    +0.000 A 
ATOM      4  O   UNL     1       2.000   4.453  21.399  0.00  0.00    +0.000 OA
ATOM      5  N   UNL     1       3.085   5.662  19.725  0.00  0.00    +0.000 N 
ATOM      6  C   UNL     1       3.819   5.665  18.515  0.00  0.00    +0.000 A 
ATOM      7  C   UNL     1       4.102   4.502  17.850  0.00  0.00    +0.000 A 
ATOM      8  C   UNL     1       4.157   7.058  18.066  0.00  0.00    +0.000 C 
ATOM      9  C   UNL     1       2.980   7.791  17.446  0.00  0.00    +0.000 C 
ATOM     10  N   UNL     1       2.224   8.583  18.419  0.00  0.00    +0.000 NA
ATOM     11  C   UNL     1       1.636   7.733  19.483  0.00  0.00    +0.000 C 
ATOM     12  C   UNL     1       2.636   6.930  20.350  0.00  0.00    +0.000 C 
ENDROOT
BRANCH   7  13
ATOM     13  C   UNL     1       4.624   4.343  16.378  0.00  0.00    +0.000 C 
ATOM     14  O   UNL     1       3.771   3.999  15.539  0.00  0.00    +0.000 OA
ATOM     15  N   UNL     1       5.901   4.640  15.871  0.00  0.00    +0.000 N 
ATOM     16  C   UNL     1       6.015   4.577  14.405  0.00  0.00    +0.000 C 
BRANCH  15  17
ATOM     17  C   UNL     1       7.179   4.408  16.554  0.00  0.00    +0.000 C 
BRANCH  17  18
ATOM     18  C   UNL     1       7.429   5.210  17.820  0.00  0.00    +0.000 A 
ATOM     19  N   UNL     1       7.411   4.507  18.962  0.00  0.00    +0.000 NA
ATOM     20  O   UNL     1       7.625   5.414  19.985  0.00  0.00    +0.000 OA
ATOM     21  N   UNL     1       7.776   6.689  19.484  0.00  0.00    +0.000 NA
ATOM     22  C   UNL     1       7.654   6.578  18.158  0.00  0.00    +0.000 A 
ATOM     23  C   UNL     1       7.755   7.836  17.378  0.00  0.00    +0.000 C 
ENDBRANCH  17  18
ENDBRANCH  15  17
ENDBRANCH   7  13
BRANCH   1  25
ATOM     24  C   UNL     1       3.982   0.886  18.662  0.00  0.00    +0.000 C 
ATOM     25  O   UNL     1       3.822   2.045  17.833  0.00  0.00    +0.000 OA
ENDBRANCH   1  25
BRANCH  10  26
ATOM     26  C   UNL     1       1.145   9.333  17.730  0.00  0.00    +0.000 C 
BRANCH  26  27
ATOM     27  C   UNL     1       0.516  10.452  18.542  0.00  0.00    +0.000 A 
ATOM     28  C   UNL     1      -0.870  10.472  18.770  0.00  0.00    +0.000 A 
ATOM     29  C   UNL     1      -1.445  11.461  19.578  0.00  0.00    +0.000 A 
ATOM     30  C   UNL     1      -0.631  12.422  20.162  0.00  0.00    +0.000 A 
ATOM     31  F   UNL     1      -1.179  13.337  20.979  0.00  0.00    +0.000 F 
ATOM     32  C   UNL     1       0.739  12.436  19.936  0.00  0.00    +0.000 A 
ATOM     33  C   UNL     1       1.309  11.456  19.119  0.00  0.00    +0.000 A 
ENDBRANCH  26  27
ENDBRANCH  10  26
TORSDOF 6
ENDMDL
MODEL 5
REMARK VINA RESULT:      -7.0      4.785      9.227
REMARK  Name = 
REMARK  9 active torsions:
REMARK  status: ('A' for Active; 'I' for Inactive)
REMARK    1  A    between atoms: C_1  and  O_2
REMARK    2  A    between atoms: O_2  and  C_3
REMARK    3  A    between atoms: C_9  and  C_10
REMARK    4  A    between atoms: N_12  and  C_13
REMARK    5  A    between atoms: N_12  and  C_14
REMARK    6  A    between atoms: C_14  and  C_15
REMARK    7  A    between atoms: C_19  and  C_20
REMARK    8  A    between atoms: N_23  and  C_24
REMARK    9  A    between atoms: C_24  and  C_25
REMARK                            x       y       z     vdW  Elec       q    Type
REMARK                         _______ _______ _______ _____ _____    ______ ____
ROOT
ATOM      1  C   UNL     1      -0.783  12.351  22.051  0.00  0.00    +0.000 A 
ATOM      2  C   UNL     1      -0.634  11.422  23.008  0.00  0.00    +0.000 A 
ATOM      3  C   UNL     1      -0.347  10.034  22.676  0.00  0.00    +0.000 A 
ATOM      4  O   UNL     1      -0.152   9.249  23.598  0.00  0.00    +0.000 OA
ATOM      5  N   UNL     1      -0.288   9.736  21.321  0.00  0.00    +0.000 N 
ATOM      6  C   UNL     1      -0.510  10.688  20.297  0.00  0.00    +0.000 A 
ATOM      7  C   UNL     1      -0.749  12.005  20.587  0.00  0.00    +0.000 A 
ATOM      8  C   UNL     1      -0.383  10.081  18.929  0.00  0.00    +0.000 C 
ATOM      9  C   UNL     1       1.057   9.848  18.507  0.00  0.00    +0.000 C 
ATOM     10  N   UNL     1       1.541   8.507  18.846  0.00  0.00    +0.000 NA
ATOM     11  C   UNL     1       1.519   8.268  20.310  0.00  0.00    +0.000 C 
ATOM     12  C   UNL     1       0.135   8.351  20.999  0.00  0.00    +0.000 C 
ENDROOT
BRANCH   7  13
ATOM     13  C   UNL     1      -0.713  13.224  19.599  0.00  0.00    +0.000 C 
ATOM     14  O   UNL     1      -1.703  13.342  18.854  0.00  0.00    +0.000 OA
ATOM     15  N   UNL     1       0.241  14.255  19.522  0.00  0.00    +0.000 N 
ATOM     16  C   UNL     1      -0.118  15.365  18.626  0.00  0.00    +0.000 C 
BRANCH  15  17
ATOM     17  C   UNL     1       1.690  14.106  19.697  0.00  0.00    +0.000 C 
BRANCH  17  18
ATOM     18  C   UNL     1       2.274  14.613  21.005  0.00  0.00    +0.000 A 
ATOM     19  N   UNL     1       3.270  13.876  21.518  0.00  0.00    +0.000 NA
ATOM     20  O   UNL     1       3.635  14.481  22.707  0.00  0.00    +0.000 OA
ATOM     21  N   UNL     1       2.865  15.600  22.942  0.00  0.00    +0.000 NA
ATOM     22  C   UNL     1       2.024  15.690  21.909  0.00  0.00    +0.000 A 
ATOM     23  C   UNL     1       1.057  16.815  21.938  0.00  0.00    +0.000 C 
ENDBRANCH  17  18
ENDBRANCH  15  17
ENDBRANCH   7  13
BRANCH   1  25
ATOM     24  C   UNL     1      -2.256  14.028  22.908  0.00  0.00    +0.000 C 
ATOM     25  O   UNL     1      -0.964  13.688  22.385  0.00  0.00    +0.000 OA
ENDBRANCH   1  25
BRANCH  10  26
ATOM     26  C   UNL     1       2.921   8.324  18.334  0.00  0.00    +0.000 C 
BRANCH  26  27
ATOM     27  C   UNL     1       3.263   6.911  17.891  0.00  0.00    +0.000 A 
ATOM     28  C   UNL     1       4.517   6.629  17.323  0.00  0.00    +0.000 A 
ATOM     29  C   UNL     1       4.865   5.317  16.981  0.00  0.00    +0.000 A 
ATOM     30  C   UNL     1       3.961   4.289  17.215  0.00  0.00    +0.000 A 
ATOM     31  F   UNL     1       4.318   3.025  16.934  0.00  0.00    +0.000 F 
ATOM     32  C   UNL     1       2.708   4.544  17.756  0.00  0.00    +0.000 A 
ATOM     33  C   UNL     1       2.358   5.857  18.085  0.00  0.00    +0.000 A 
ENDBRANCH  26  27
ENDBRANCH  10  26
TORSDOF 6
ENDMDL
MODEL 6
REMARK VINA RESULT:      -6.9      7.430     10.988
REMARK  Name = 
REMARK  9 active torsions:
REMARK  status: ('A' for Active; 'I' for Inactive)
REMARK    1  A    between atoms: C_1  and  O_2
REMARK    2  A    between atoms: O_2  and  C_3
REMARK    3  A    between atoms: C_9  and  C_10
REMARK    4  A    between atoms: N_12  and  C_13
REMARK    5  A    between atoms: N_12  and  C_14
REMARK    6  A    between atoms: C_14  and  C_15
REMARK    7  A    between atoms: C_19  and  C_20
REMARK    8  A    between atoms: N_23  and  C_24
REMARK    9  A    between atoms: C_24  and  C_25
REMARK                            x       y       z     vdW  Elec       q    Type
REMARK                         _______ _______ _______ _____ _____    ______ ____
ROOT
ATOM      1  C   UNL     1      -4.224  13.484  23.629  0.00  0.00    +0.000 A 
ATOM      2  C   UNL     1      -5.240  12.822  24.206  0.00  0.00    +0.000 A 
ATOM      3  C   UNL     1      -6.478  12.562  23.487  0.00  0.00    +0.000 A 
ATOM      4  O   UNL     1      -7.339  11.890  24.045  0.00  0.00    +0.000 OA
ATOM      5  N   UNL     1      -6.550  13.079  22.200  0.00  0.00    +0.000 N 
ATOM      6  C   UNL     1      -5.517  13.838  21.600  0.00  0.00    +0.000 A 
ATOM      7  C   UNL     1      -4.332  14.067  22.246  0.00  0.00    +0.000 A 
ATOM      8  C   UNL     1      -5.873  14.267  20.205  0.00  0.00    +0.000 C 
ATOM      9  C   UNL     1      -5.752  13.149  19.184  0.00  0.00    +0.000 C 
ATOM     10  N   UNL     1      -7.006  12.420  18.985  0.00  0.00    +0.000 NA
ATOM     11  C   UNL     1      -7.464  11.760  20.233  0.00  0.00    +0.000 C 
ATOM     12  C   UNL     1      -7.759  12.692  21.433  0.00  0.00    +0.000 C 
ENDROOT
BRANCH   7  13
ATOM     13  C   UNL     1      -2.994  14.611  21.631  0.00  0.00    +0.000 C 
ATOM     14  O   UNL     1      -2.844  15.845  21.677  0.00  0.00    +0.000 OA
ATOM     15  N   UNL     1      -1.904  13.876  21.132  0.00  0.00    +0.000 N 
ATOM     16  C   UNL     1      -0.711  14.677  20.814  0.00  0.00    +0.000 C 
BRANCH  15  17
ATOM     17  C   UNL     1      -1.981  12.633  20.357  0.00  0.00    +0.000 C 
BRANCH  17  18
ATOM     18  C   UNL     1      -0.889  11.606  20.604  0.00  0.00    +0.000 A 
ATOM     19  N   UNL     1      -0.094  11.345  19.557  0.00  0.00    +0.000 NA
ATOM     20  O   UNL     1       0.800  10.376  19.974  0.00  0.00    +0.000 OA
ATOM     21  N   UNL     1       0.565  10.027  21.287  0.00  0.00    +0.000 NA
ATOM     22  C   UNL     1      -0.471  10.771  21.683  0.00  0.00    +0.000 A 
ATOM     23  C   UNL     1      -0.941  10.561  23.075  0.00  0.00    +0.000 C 
ENDBRANCH  17  18
ENDBRANCH  15  17
ENDBRANCH   7  13
BRANCH   1  25
ATOM     24  C   UNL     1      -2.937  14.775  25.177  0.00  0.00    +0.000 C 
ATOM     25  O   UNL     1      -3.016  13.645  24.297  0.00  0.00    +0.000 OA
ENDBRANCH   1  25
BRANCH  10  26
ATOM     26  C   UNL     1      -6.835  11.401  17.920  0.00  0.00    +0.000 C 
BRANCH  26  27
ATOM     27  C   UNL     1      -5.396  11.024  17.612  0.00  0.00    +0.000 A 
ATOM     28  C   UNL     1      -4.692  11.679  16.588  0.00  0.00    +0.000 A 
ATOM     29  C   UNL     1      -3.345  11.387  16.349  0.00  0.00    +0.000 A 
ATOM     30  C   UNL     1      -2.701  10.445  17.141  0.00  0.00    +0.000 A 
ATOM     31  F   UNL     1      -1.394  10.205  16.943  0.00  0.00    +0.000 F 
ATOM     32  C   UNL     1      -3.379   9.769  18.146  0.00  0.00    +0.000 A 
ATOM     33  C   UNL     1      -4.728  10.053  18.375  0.00  0.00    +0.000 A 
ENDBRANCH  26  27
ENDBRANCH  10  26
TORSDOF 6
ENDMDL
MODEL 7
REMARK VINA RESULT:      -6.8      4.892      8.897
REMARK  Name = 
REMARK  9 active torsions:
REMARK  status: ('A' for Active; 'I' for Inactive)
REMARK    1  A    between atoms: C_1  and  O_2
REMARK    2  A    between atoms: O_2  and  C_3
REMARK    3  A    between atoms: C_9  and  C_10
REMARK    4  A    between atoms: N_12  and  C_13
REMARK    5  A    between atoms: N_12  and  C_14
REMARK    6  A    between atoms: C_14  and  C_15
REMARK    7  A    between atoms: C_19  and  C_20
REMARK    8  A    between atoms: N_23  and  C_24
REMARK    9  A    between atoms: C_24  and  C_25
REMARK                            x       y       z     vdW  Elec       q    Type
REMARK                         _______ _______ _______ _____ _____    ______ ____
ROOT
ATOM      1  C   UNL     1      -0.460  12.482  21.873  0.00  0.00    +0.000 A 
ATOM      2  C   UNL     1      -0.643  11.574  22.844  0.00  0.00    +0.000 A 
ATOM      3  C   UNL     1      -0.572  10.147  22.568  0.00  0.00    +0.000 A 
ATOM      4  O   UNL     1      -0.678   9.370  23.512  0.00  0.00    +0.000 OA
ATOM      5  N   UNL     1      -0.352   9.798  21.241  0.00  0.00    +0.000 N 
ATOM      6  C   UNL     1      -0.225  10.739  20.193  0.00  0.00    +0.000 A 
ATOM      7  C   UNL     1      -0.257  12.086  20.435  0.00  0.00    +0.000 A 
ATOM      8  C   UNL     1       0.005  10.074  18.866  0.00  0.00    +0.000 C 
ATOM      9  C   UNL     1       1.425   9.566  18.687  0.00  0.00    +0.000 C 
ATOM     10  N   UNL     1       1.589   8.171  19.104  0.00  0.00    +0.000 NA
ATOM     11  C   UNL     1       1.287   7.989  20.546  0.00  0.00    +0.000 C 
ATOM     12  C   UNL     1      -0.149   8.349  20.998  0.00  0.00    +0.000 C 
ENDROOT
BRANCH   7  13
ATOM     13  C   UNL     1       0.165  13.245  19.464  0.00  0.00    +0.000 C 
ATOM     14  O   UNL     1      -0.698  13.595  18.638  0.00  0.00    +0.000 OA
ATOM     15  N   UNL     1       1.349  14.004  19.476  0.00  0.00    +0.000 N 
ATOM     16  C   UNL     1       1.354  15.157  18.561  0.00  0.00    +0.000 C 
BRANCH  15  17
ATOM     17  C   UNL     1       2.695  13.502  19.772  0.00  0.00    +0.000 C 
BRANCH  17  18
ATOM     18  C   UNL     1       3.446  14.189  20.900  0.00  0.00    +0.000 A 
ATOM     19  N   UNL     1       2.799  14.249  22.073  0.00  0.00    +0.000 NA
ATOM     20  O   UNL     1       3.628  14.931  22.945  0.00  0.00    +0.000 OA
ATOM     21  N   UNL     1       4.797  15.303  22.317  0.00  0.00    +0.000 NA
ATOM     22  C   UNL     1       4.697  14.858  21.062  0.00  0.00    +0.000 A 
ATOM     23  C   UNL     1       5.836  15.158  20.160  0.00  0.00    +0.000 C 
ENDBRANCH  17  18
ENDBRANCH  15  17
ENDBRANCH   7  13
BRANCH   1  25
ATOM     24  C   UNL     1      -1.715  14.434  22.449  0.00  0.00    +0.000 C 
ATOM     25  O   UNL     1      -0.440  13.840  22.170  0.00  0.00    +0.000 OA
ENDBRANCH   1  25
BRANCH  10  26
ATOM     26  C   UNL     1       2.974   7.720  18.827  0.00  0.00    +0.000 C 
BRANCH  26  27
ATOM     27  C   UNL     1       3.138   6.223  18.625  0.00  0.00    +0.000 A 
ATOM     28  C   UNL     1       4.254   5.553  19.155  0.00  0.00    +0.000 A 
ATOM     29  C   UNL     1       4.373   4.164  19.035  0.00  0.00    +0.000 A 
ATOM     30  C   UNL     1       3.372   3.447  18.393  0.00  0.00    +0.000 A 
ATOM     31  F   UNL     1       3.464   2.108  18.326  0.00  0.00    +0.000 F 
ATOM     32  C   UNL     1       2.270   4.087  17.843  0.00  0.00    +0.000 A 
ATOM     33  C   UNL     1       2.159   5.476  17.952  0.00  0.00    +0.000 A 
ENDBRANCH  26  27
ENDBRANCH  10  26
TORSDOF 6
ENDMDL
MODEL 8
REMARK VINA RESULT:      -6.8      7.427     11.077
REMARK  Name = 
REMARK  9 active torsions:
REMARK  status: ('A' for Active; 'I' for Inactive)
REMARK    1  A    between atoms: C_1  and  O_2
REMARK    2  A    between atoms: O_2  and  C_3
REMARK    3  A    between atoms: C_9  and  C_10
REMARK    4  A    between atoms: N_12  and  C_13
REMARK    5  A    between atoms: N_12  and  C_14
REMARK    6  A    between atoms: C_14  and  C_15
REMARK    7  A    between atoms: C_19  and  C_20
REMARK    8  A    between atoms: N_23  and  C_24
REMARK    9  A    between atoms: C_24  and  C_25
REMARK                            x       y       z     vdW  Elec       q    Type
REMARK                         _______ _______ _______ _____ _____    ______ ____
ROOT
ATOM      1  C   UNL     1      -2.902  12.551  22.872  0.00  0.00    +0.000 A 
ATOM      2  C   UNL     1      -2.005  11.727  23.435  0.00  0.00    +0.000 A 
ATOM      3  C   UNL     1      -0.958  11.097  22.646  0.00  0.00    +0.000 A 
ATOM      4  O   UNL     1      -0.126  10.411  23.232  0.00  0.00    +0.000 OA
ATOM      5  N   UNL     1      -0.982  11.366  21.283  0.00  0.00    +0.000 N 
ATOM      6  C   UNL     1      -1.961  12.177  20.661  0.00  0.00    +0.000 A 
ATOM      7  C   UNL     1      -2.935  12.806  21.389  0.00  0.00    +0.000 A 
ATOM      8  C   UNL     1      -1.737  12.291  19.180  0.00  0.00    +0.000 C 
ATOM      9  C   UNL     1      -0.607  13.237  18.814  0.00  0.00    +0.000 C 
ATOM     10  N   UNL     1       0.684  12.558  18.679  0.00  0.00    +0.000 NA
ATOM     11  C   UNL     1       1.106  11.920  19.950  0.00  0.00    +0.000 C 
ATOM     12  C   UNL     1       0.166  10.827  20.514  0.00  0.00    +0.000 C 
ENDROOT
BRANCH   7  13
ATOM     13  C   UNL     1      -3.891  13.958  20.917  0.00  0.00    +0.000 C 
ATOM     14  O   UNL     1      -3.361  15.076  20.787  0.00  0.00    +0.000 OA
ATOM     15  N   UNL     1      -5.239  13.866  20.526  0.00  0.00    +0.000 N 
ATOM     16  C   UNL     1      -5.798  15.094  19.940  0.00  0.00    +0.000 C 
BRANCH  15  17
ATOM     17  C   UNL     1      -6.259  13.006  21.136  0.00  0.00    +0.000 C 
BRANCH  17  18
ATOM     18  C   UNL     1      -6.562  11.698  20.424  0.00  0.00    +0.000 A 
ATOM     19  N   UNL     1      -7.303  10.821  21.117  0.00  0.00    +0.000 NA
ATOM     20  O   UNL     1      -7.436   9.701  20.318  0.00  0.00    +0.000 OA
ATOM     21  N   UNL     1      -6.775   9.873  19.121  0.00  0.00    +0.000 NA
ATOM     22  C   UNL     1      -6.231  11.092  19.175  0.00  0.00    +0.000 A 
ATOM     23  C   UNL     1      -5.434  11.513  17.997  0.00  0.00    +0.000 C 
ENDBRANCH  17  18
ENDBRANCH  15  17
ENDBRANCH   7  13
BRANCH   1  25
ATOM     24  C   UNL     1      -4.477  12.427  24.667  0.00  0.00    +0.000 C 
ATOM     25  O   UNL     1      -3.839  13.217  23.654  0.00  0.00    +0.000 OA
ENDBRANCH   1  25
BRANCH  10  26
ATOM     26  C   UNL     1       1.720  13.526  18.243  0.00  0.00    +0.000 C 
BRANCH  26  27
ATOM     27  C   UNL     1       1.832  14.781  19.093  0.00  0.00    +0.000 A 
ATOM     28  C   UNL     1       1.094  15.930  18.764  0.00  0.00    +0.000 A 
ATOM     29  C   UNL     1       1.137  17.063  19.585  0.00  0.00    +0.000 A 
ATOM     30  C   UNL     1       1.912  17.041  20.737  0.00  0.00    +0.000 A 
ATOM     31  F   UNL     1       1.910  18.110  21.550  0.00  0.00    +0.000 F 
ATOM     32  C   UNL     1       2.667  15.925  21.073  0.00  0.00    +0.000 A 
ATOM     33  C   UNL     1       2.632  14.799  20.245  0.00  0.00    +0.000 A 
ENDBRANCH  26  27
ENDBRANCH  10  26
TORSDOF 6
ENDMDL
MODEL 9
REMARK VINA RESULT:      -6.8      5.218      9.163
REMARK  Name = 
REMARK  9 active torsions:
REMARK  status: ('A' for Active; 'I' for Inactive)
REMARK    1  A    between atoms: C_1  and  O_2
REMARK    2  A    between atoms: O_2  and  C_3
REMARK    3  A    between atoms: C_9  and  C_10
REMARK    4  A    between atoms: N_12  and  C_13
REMARK    5  A    between atoms: N_12  and  C_14
REMARK    6  A    between atoms: C_14  and  C_15
REMARK    7  A    between atoms: C_19  and  C_20
REMARK    8  A    between atoms: N_23  and  C_24
REMARK    9  A    between atoms: C_24  and  C_25
REMARK                            x       y       z     vdW  Elec       q    Type
REMARK                         _______ _______ _______ _____ _____    ______ ____
ROOT
ATOM      1  C   UNL     1      -0.322  13.861  21.793  0.00  0.00    +0.000 A 
ATOM      2  C   UNL     1      -0.712  13.011  22.756  0.00  0.00    +0.000 A 
ATOM      3  C   UNL     1      -0.883  11.591  22.488  0.00  0.00    +0.000 A 
ATOM      4  O   UNL     1      -1.172  10.857  23.427  0.00  0.00    +0.000 OA
ATOM      5  N   UNL     1      -0.663  11.193  21.175  0.00  0.00    +0.000 N 
ATOM      6  C   UNL     1      -0.318  12.084  20.131  0.00  0.00    +0.000 A 
ATOM      7  C   UNL     1      -0.121  13.418  20.369  0.00  0.00    +0.000 A 
ATOM      8  C   UNL     1      -0.145  11.373  18.820  0.00  0.00    +0.000 C 
ATOM      9  C   UNL     1       1.169  10.618  18.715  0.00  0.00    +0.000 C 
ATOM     10  N   UNL     1       1.060   9.221  19.144  0.00  0.00    +0.000 NA
ATOM     11  C   UNL     1       0.660   9.113  20.569  0.00  0.00    +0.000 C 
ATOM     12  C   UNL     1      -0.709   9.728  20.946  0.00  0.00    +0.000 C 
ENDROOT
BRANCH   7  13
ATOM     13  C   UNL     1       0.548  14.472  19.416  0.00  0.00    +0.000 C 
ATOM     14  O   UNL     1      -0.222  15.050  18.629  0.00  0.00    +0.000 OA
ATOM     15  N   UNL     1       1.882  14.917  19.411  0.00  0.00    +0.000 N 
ATOM     16  C   UNL     1       2.148  16.064  18.529  0.00  0.00    +0.000 C 
BRANCH  15  17
ATOM     17  C   UNL     1       3.071  14.091  19.650  0.00  0.00    +0.000 C 
BRANCH  17  18
ATOM     18  C   UNL     1       3.857  14.378  20.918  0.00  0.00    +0.000 A 
ATOM     19  N   UNL     1       3.176  14.240  22.064  0.00  0.00    +0.000 NA
ATOM     20  O   UNL     1       4.049  14.573  23.083  0.00  0.00    +0.000 OA
ATOM     21  N   UNL     1       5.281  14.924  22.575  0.00  0.00    +0.000 NA
ATOM     22  C   UNL     1       5.176  14.812  21.249  0.00  0.00    +0.000 A 
ATOM     23  C   UNL     1       6.381  15.164  20.458  0.00  0.00    +0.000 C 
ENDBRANCH  17  18
ENDBRANCH  15  17
ENDBRANCH   7  13
BRANCH   1  25
ATOM     24  C   UNL     1      -1.151  15.905  22.715  0.00  0.00    +0.000 C 
ATOM     25  O   UNL     1      -0.074  15.196  22.086  0.00  0.00    +0.000 OA
ENDBRANCH   1  25
BRANCH  10  26
ATOM     26  C   UNL     1       2.355   8.528  18.939  0.00  0.00    +0.000 C 
BRANCH  26  27
ATOM     27  C   UNL     1       2.297   7.012  19.026  0.00  0.00    +0.000 A 
ATOM     28  C   UNL     1       2.116   6.378  20.267  0.00  0.00    +0.000 A 
ATOM     29  C   UNL     1       1.989   4.986  20.344  0.00  0.00    +0.000 A 
ATOM     30  C   UNL     1       2.036   4.232  19.179  0.00  0.00    +0.000 A 
ATOM     31  F   UNL     1       1.861   2.903  19.250  0.00  0.00    +0.000 F 
ATOM     32  C   UNL     1       2.235   4.833  17.943  0.00  0.00    +0.000 A 
ATOM     33  C   UNL     1       2.374   6.221  17.869  0.00  0.00    +0.000 A 
ENDBRANCH  26  27
ENDBRANCH  10  26
TORSDOF 6
ENDMDL
