MODEL 1
REMARK VINA RESULT:      -9.1      0.000      0.000
REMARK  Name = 
REMARK  11 active torsions:
REMARK  status: ('A' for Active; 'I' for Inactive)
REMARK    1  A    between atoms: C_1  and  N_2
REMARK    2  A    between atoms: N_2  and  C_3
REMARK    3  A    between atoms: C_3  and  C_4
REMARK    4  A    between atoms: C_4  and  C_5
REMARK    5  A    between atoms: C_11  and  C_13
REMARK    6  A    between atoms: C_13  and  C_14
REMARK    7  A    between atoms: C_16  and  C_17
REMARK    8  A    between atoms: C_18  and  C_19
REMARK    9  A    between atoms: C_19  and  O_21
REMARK   10  A    between atoms: C_24  and  O_25
REMARK   11  A    between atoms: O_25  and  C_26
REMARK                            x       y       z     vdW  Elec       q    Type
REMARK                         _______ _______ _______ _____ _____    ______ ____
ROOT
ATOM      1  C   UNL     1      -0.648  10.313  18.893  0.00  0.00    +0.000 A 
ATOM      2  C   UNL     1      -1.001   9.728  17.641  0.00  0.00    +0.000 A 
ATOM      3  C   UNL     1      -2.197  10.061  17.015  0.00  0.00    +0.000 A 
ATOM      4  C   UNL     1      -3.018  10.999  17.606  0.00  0.00    +0.000 A 
ATOM      5  C   UNL     1      -2.749  11.527  18.887  0.00  0.00    +0.000 A 
ATOM      6  C   UNL     1      -3.655  12.423  19.483  0.00  0.00    +0.000 A 
ATOM      7  C   UNL     1      -3.276  13.142  20.620  0.00  0.00    +0.000 A 
ATOM      8  C   UNL     1      -2.213  12.669  21.377  0.00  0.00    +0.000 A 
ATOM      9  C   UNL     1      -1.386  11.664  20.879  0.00  0.00    +0.000 A 
ATOM     10  C   UNL     1      -1.572  11.161  19.564  0.00  0.00    +0.000 A 
ENDROOT
BRANCH   3  11
ATOM     11  C   UNL     1      -2.620   9.545  15.697  0.00  0.00    +0.000 C 
ATOM     12  C   UNL     1      -3.112  10.303  14.714  0.00  0.00    +0.000 C 
BRANCH  12  13
ATOM     13  C   UNL     1      -3.514   9.795  13.390  0.00  0.00    +0.000 C 
ATOM     14  O   UNL     1      -2.687   9.458  12.557  0.00  0.00    +0.000 OA
BRANCH  13  15
ATOM     15  O   UNL     1      -4.840   9.700  13.171  0.00  0.00    +0.000 OA
ATOM     16  H   UNL     1      -5.089   9.056  12.488  0.00  0.00    +0.000 HD
ENDBRANCH  13  15
ENDBRANCH  12  13
ENDBRANCH   3  11
BRANCH   1  17
ATOM     17  C   UNL     1       0.764  10.082  19.391  0.00  0.00    +0.000 C 
BRANCH  17  20
ATOM     18  C   UNL     1       3.201   7.885  17.482  0.00  0.00    +0.000 C 
ATOM     19  N   UNL     1       2.367   8.363  18.575  0.00  0.00    +0.000 N 
ATOM     20  C   UNL     1       1.752   9.606  18.344  0.00  0.00    +0.000 C 
ATOM     21  O   UNL     1       2.005  10.268  17.339  0.00  0.00    +0.000 OA
BRANCH  19  22
ATOM     22  C   UNL     1       1.978   7.431  19.653  0.00  0.00    +0.000 C 
BRANCH  22  23
ATOM     23  C   UNL     1       2.900   6.216  19.842  0.00  0.00    +0.000 C 
BRANCH  23  24
ATOM     24  C   UNL     1       2.217   4.926  19.457  0.00  0.00    +0.000 A 
ATOM     25  C   UNL     1       1.304   4.321  20.331  0.00  0.00    +0.000 A 
ATOM     26  C   UNL     1       0.692   3.114  19.991  0.00  0.00    +0.000 A 
ATOM     27  C   UNL     1       0.991   2.500  18.776  0.00  0.00    +0.000 A 
ATOM     28  C   UNL     1       1.895   3.095  17.898  0.00  0.00    +0.000 A 
ATOM     29  C   UNL     1       2.506   4.304  18.235  0.00  0.00    +0.000 A 
ENDBRANCH  23  24
ENDBRANCH  22  23
ENDBRANCH  19  22
ENDBRANCH  17  20
ENDBRANCH   1  17
BRANCH   6  30
ATOM     30  O   UNL     1      -4.941  12.638  19.026  0.00  0.00    +0.000 OA
BRANCH  30  31
ATOM     31  C   UNL     1      -5.981  11.932  19.623  0.00  0.00    +0.000 A 
ATOM     32  C   UNL     1      -6.700  12.336  20.763  0.00  0.00    +0.000 A 
ATOM     33  C   UNL     1      -7.582  11.457  21.400  0.00  0.00    +0.000 A 
ATOM     34  C   UNL     1      -7.835  10.205  20.853  0.00  0.00    +0.000 A 
ATOM     35  C   UNL     1      -7.209   9.831  19.666  0.00  0.00    +0.000 A 
ATOM     36  C   UNL     1      -6.278  10.689  19.058  0.00  0.00    +0.000 A 
ENDBRANCH  30  31
ENDBRANCH   6  30
TORSDOF 10
ENDMDL
MODEL 2
REMARK VINA RESULT:      -8.5      1.004      1.595
REMARK  Name = 
REMARK  11 active torsions:
REMARK  status: ('A' for Active; 'I' for Inactive)
REMARK    1  A    between atoms: C_1  and  N_2
REMARK    2  A    between atoms: N_2  and  C_3
REMARK    3  A    between atoms: C_3  and  C_4
REMARK    4  A    between atoms: C_4  and  C_5
REMARK    5  A    between atoms: C_11  and  C_13
REMARK    6  A    between atoms: C_13  and  C_14
REMARK    7  A    between atoms: C_16  and  C_17
REMARK    8  A    between atoms: C_18  and  C_19
REMARK    9  A    between atoms: C_19  and  O_21
REMARK   10  A    between atoms: C_24  and  O_25
REMARK   11  A    between atoms: O_25  and  C_26
REMARK                            x       y       z     vdW  Elec       q    Type
REMARK                         _______ _______ _______ _____ _____    ______ ____
ROOT
ATOM      1  C   UNL     1      -0.681  10.541  19.817  0.00  0.00    +0.000 A 
ATOM      2  C   UNL     1      -1.237  10.344  18.519  0.00  0.00    +0.000 A 
ATOM      3  C   UNL     1      -2.374  11.039  18.121  0.00  0.00    +0.000 A 
ATOM      4  C   UNL     1      -2.931  11.954  18.990  0.00  0.00    +0.000 A 
ATOM      5  C   UNL     1      -2.467  12.107  20.313  0.00  0.00    +0.000 A 
ATOM      6  C   UNL     1      -3.116  12.998  21.188  0.00  0.00    +0.000 A 
ATOM      7  C   UNL     1      -2.514  13.345  22.400  0.00  0.00    +0.000 A 
ATOM      8  C   UNL     1      -1.528  12.512  22.911  0.00  0.00    +0.000 A 
ATOM      9  C   UNL     1      -0.973  11.509  22.118  0.00  0.00    +0.000 A 
ATOM     10  C   UNL     1      -1.353  11.372  20.757  0.00  0.00    +0.000 A 
ENDROOT
BRANCH   3  11
ATOM     11  C   UNL     1      -2.987  10.936  16.781  0.00  0.00    +0.000 C 
ATOM     12  C   UNL     1      -2.559  10.115  15.819  0.00  0.00    +0.000 C 
BRANCH  12  13
ATOM     13  C   UNL     1      -3.182   9.993  14.488  0.00  0.00    +0.000 C 
ATOM     14  O   UNL     1      -2.508   9.865  13.478  0.00  0.00    +0.000 OA
BRANCH  13  15
ATOM     15  O   UNL     1      -4.529  10.003  14.462  0.00  0.00    +0.000 OA
ATOM     16  H   UNL     1      -4.929   9.203  14.082  0.00  0.00    +0.000 HD
ENDBRANCH  13  15
ENDBRANCH  12  13
ENDBRANCH   3  11
BRANCH   1  17
ATOM     17  C   UNL     1       0.678   9.931  20.088  0.00  0.00    +0.000 C 
BRANCH  17  20
ATOM     18  C   UNL     1       2.841   8.111  17.554  0.00  0.00    +0.000 C 
ATOM     19  N   UNL     1       2.160   8.395  18.810  0.00  0.00    +0.000 N 
ATOM     20  C   UNL     1       1.518   9.644  18.859  0.00  0.00    +0.000 C 
ATOM     21  O   UNL     1       1.633  10.459  17.945  0.00  0.00    +0.000 OA
BRANCH  19  22
ATOM     22  C   UNL     1       1.920   7.299  19.770  0.00  0.00    +0.000 C 
BRANCH  22  23
ATOM     23  C   UNL     1       2.914   6.128  19.700  0.00  0.00    +0.000 C 
BRANCH  23  24
ATOM     24  C   UNL     1       2.221   4.818  19.417  0.00  0.00    +0.000 A 
ATOM     25  C   UNL     1       1.370   4.247  20.374  0.00  0.00    +0.000 A 
ATOM     26  C   UNL     1       0.749   3.021  20.127  0.00  0.00    +0.000 A 
ATOM     27  C   UNL     1       0.977   2.355  18.925  0.00  0.00    +0.000 A 
ATOM     28  C   UNL     1       1.819   2.916  17.966  0.00  0.00    +0.000 A 
ATOM     29  C   UNL     1       2.438   4.143  18.209  0.00  0.00    +0.000 A 
ENDBRANCH  23  24
ENDBRANCH  22  23
ENDBRANCH  19  22
ENDBRANCH  17  20
ENDBRANCH   1  17
BRANCH   6  30
ATOM     30  O   UNL     1      -4.354  13.559  20.939  0.00  0.00    +0.000 OA
BRANCH  30  31
ATOM     31  C   UNL     1      -5.487  12.889  21.393  0.00  0.00    +0.000 A 
ATOM     32  C   UNL     1      -6.275  12.003  20.635  0.00  0.00    +0.000 A 
ATOM     33  C   UNL     1      -7.505  11.548  21.120  0.00  0.00    +0.000 A 
ATOM     34  C   UNL     1      -7.916  11.886  22.403  0.00  0.00    +0.000 A 
ATOM     35  C   UNL     1      -7.097  12.678  23.205  0.00  0.00    +0.000 A 
ATOM     36  C   UNL     1      -5.889  13.184  22.697  0.00  0.00    +0.000 A 
ENDBRANCH  30  31
ENDBRANCH   6  30
TORSDOF 10
ENDMDL
MODEL 3
REMARK VINA RESULT:      -8.5      1.637      2.530
REMARK  Name = 
REMARK  11 active torsions:
REMARK  status: ('A' for Active; 'I' for Inactive)
REMARK    1  A    between atoms: C_1  and  N_2
REMARK    2  A    between atoms: N_2  and  C_3
REMARK    3  A    between atoms: C_3  and  C_4
REMARK    4  A    between atoms: C_4  and  C_5
REMARK    5  A    between atoms: C_11  and  C_13
REMARK    6  A    between atoms: C_13  and  C_14
REMARK    7  A    between atoms: C_16  and  C_17
REMARK    8  A    between atoms: C_18  and  C_19
REMARK    9  A    between atoms: C_19  and  O_21
REMARK   10  A    between atoms: C_24  and  O_25
REMARK   11  A    between atoms: O_25  and  C_26
REMARK                            x       y       z     vdW  Elec       q    Type
REMARK                         _______ _______ _______ _____ _____    ______ ____
ROOT
ATOM      1  C   UNL     1      -0.587  10.327  18.876  0.00  0.00    +0.000 A 
ATOM      2  C   UNL     1      -1.017   9.743  17.648  0.00  0.00    +0.000 A 
ATOM      3  C   UNL     1      -2.233  10.105  17.078  0.00  0.00    +0.000 A 
ATOM      4  C   UNL     1      -2.997  11.070  17.701  0.00  0.00    +0.000 A 
ATOM      5  C   UNL     1      -2.651  11.600  18.963  0.00  0.00    +0.000 A 
ATOM      6  C   UNL     1      -3.501  12.525  19.595  0.00  0.00    +0.000 A 
ATOM      7  C   UNL     1      -3.047  13.242  20.705  0.00  0.00    +0.000 A 
ATOM      8  C   UNL     1      -1.961  12.744  21.413  0.00  0.00    +0.000 A 
ATOM      9  C   UNL     1      -1.188  11.712  20.885  0.00  0.00    +0.000 A 
ATOM     10  C   UNL     1      -1.452  11.206  19.585  0.00  0.00    +0.000 A 
ENDROOT
BRANCH   3  11
ATOM     11  C   UNL     1      -2.735   9.591  15.788  0.00  0.00    +0.000 C 
ATOM     12  C   UNL     1      -2.848  10.325  14.678  0.00  0.00    +0.000 C 
BRANCH  12  13
ATOM     13  C   UNL     1      -3.327   9.811  13.382  0.00  0.00    +0.000 C 
ATOM     14  O   UNL     1      -4.517   9.642  13.164  0.00  0.00    +0.000 OA
BRANCH  13  15
ATOM     15  O   UNL     1      -2.380   9.569  12.456  0.00  0.00    +0.000 OA
ATOM     16  H   UNL     1      -2.697   9.086  11.675  0.00  0.00    +0.000 HD
ENDBRANCH  13  15
ENDBRANCH  12  13
ENDBRANCH   3  11
BRANCH   1  17
ATOM     17  C   UNL     1       0.840  10.059  19.307  0.00  0.00    +0.000 C 
BRANCH  17  20
ATOM     18  C   UNL     1       1.893   6.743  20.826  0.00  0.00    +0.000 C 
ATOM     19  N   UNL     1       1.619   7.751  19.811  0.00  0.00    +0.000 N 
ATOM     20  C   UNL     1       1.018   8.924  20.297  0.00  0.00    +0.000 C 
ATOM     21  O   UNL     1       0.659   9.021  21.469  0.00  0.00    +0.000 OA
BRANCH  19  22
ATOM     22  C   UNL     1       2.244   7.627  18.478  0.00  0.00    +0.000 C 
BRANCH  22  23
ATOM     23  C   UNL     1       2.736   6.219  18.106  0.00  0.00    +0.000 C 
BRANCH  23  24
ATOM     24  C   UNL     1       4.243   6.148  18.045  0.00  0.00    +0.000 A 
ATOM     25  C   UNL     1       4.948   5.319  18.928  0.00  0.00    +0.000 A 
ATOM     26  C   UNL     1       6.342   5.272  18.894  0.00  0.00    +0.000 A 
ATOM     27  C   UNL     1       7.043   6.057  17.981  0.00  0.00    +0.000 A 
ATOM     28  C   UNL     1       6.351   6.882  17.096  0.00  0.00    +0.000 A 
ATOM     29  C   UNL     1       4.956   6.928  17.126  0.00  0.00    +0.000 A 
ENDBRANCH  23  24
ENDBRANCH  22  23
ENDBRANCH  19  22
ENDBRANCH  17  20
ENDBRANCH   1  17
BRANCH   6  30
ATOM     30  O   UNL     1      -4.801  12.774  19.200  0.00  0.00    +0.000 OA
BRANCH  30  31
ATOM     31  C   UNL     1      -5.836  12.350  20.029  0.00  0.00    +0.000 A 
ATOM     32  C   UNL     1      -6.108  12.840  21.319  0.00  0.00    +0.000 A 
ATOM     33  C   UNL     1      -7.039  12.202  22.145  0.00  0.00    +0.000 A 
ATOM     34  C   UNL     1      -7.784  11.133  21.659  0.00  0.00    +0.000 A 
ATOM     35  C   UNL     1      -7.601  10.704  20.346  0.00  0.00    +0.000 A 
ATOM     36  C   UNL     1      -6.623  11.305  19.537  0.00  0.00    +0.000 A 
ENDBRANCH  30  31
ENDBRANCH   6  30
TORSDOF 10
ENDMDL
MODEL 4
REMARK VINA RESULT:      -8.5      1.698      2.687
REMARK  Name = 
REMARK  11 active torsions:
REMARK  status: ('A' for Active; 'I' for Inactive)
REMARK    1  A    between atoms: C_1  and  N_2
REMARK    2  A    between atoms: N_2  and  C_3
REMARK    3  A    between atoms: C_3  and  C_4
REMARK    4  A    between atoms: C_4  and  C_5
REMARK    5  A    between atoms: C_11  and  C_13
REMARK    6  A    between atoms: C_13  and  C_14
REMARK    7  A    between atoms: C_16  and  C_17
REMARK    8  A    between atoms: C_18  and  C_19
REMARK    9  A    between atoms: C_19  and  O_21
REMARK   10  A    between atoms: C_24  and  O_25
REMARK   11  A    between atoms: O_25  and  C_26
REMARK                            x       y       z     vdW  Elec       q    Type
REMARK                         _______ _______ _______ _____ _____    ______ ____
ROOT
ATOM      1  C   UNL     1      -0.434  10.258  19.194  0.00  0.00    +0.000 A 
ATOM      2  C   UNL     1      -0.960   9.720  17.983  0.00  0.00    +0.000 A 
ATOM      3  C   UNL     1      -2.158  10.192  17.459  0.00  0.00    +0.000 A 
ATOM      4  C   UNL     1      -2.810  11.218  18.110  0.00  0.00    +0.000 A 
ATOM      5  C   UNL     1      -2.370  11.711  19.357  0.00  0.00    +0.000 A 
ATOM      6  C   UNL     1      -3.110  12.706  20.021  0.00  0.00    +0.000 A 
ATOM      7  C   UNL     1      -2.553  13.375  21.114  0.00  0.00    +0.000 A 
ATOM      8  C   UNL     1      -1.491  12.780  21.781  0.00  0.00    +0.000 A 
ATOM      9  C   UNL     1      -0.834  11.685  21.224  0.00  0.00    +0.000 A 
ATOM     10  C   UNL     1      -1.190  11.209  19.935  0.00  0.00    +0.000 A 
ENDROOT
BRANCH   3  11
ATOM     11  C   UNL     1      -2.751   9.729  16.187  0.00  0.00    +0.000 C 
ATOM     12  C   UNL     1      -2.690  10.406  15.038  0.00  0.00    +0.000 C 
BRANCH  12  13
ATOM     13  C   UNL     1      -3.261   9.938  13.762  0.00  0.00    +0.000 C 
ATOM     14  O   UNL     1      -4.466   9.811  13.611  0.00  0.00    +0.000 OA
BRANCH  13  15
ATOM     15  O   UNL     1      -2.379   9.690  12.775  0.00  0.00    +0.000 OA
ATOM     16  H   UNL     1      -1.510   9.382  13.082  0.00  0.00    +0.000 HD
ENDBRANCH  13  15
ENDBRANCH  12  13
ENDBRANCH   3  11
BRANCH   1  17
ATOM     17  C   UNL     1       0.979   9.863  19.571  0.00  0.00    +0.000 C 
BRANCH  17  20
ATOM     18  C   UNL     1       1.906   6.373  20.746  0.00  0.00    +0.000 C 
ATOM     19  N   UNL     1       1.690   7.493  19.841  0.00  0.00    +0.000 N 
ATOM     20  C   UNL     1       1.097   8.621  20.434  0.00  0.00    +0.000 C 
ATOM     21  O   UNL     1       0.699   8.597  21.598  0.00  0.00    +0.000 OA
BRANCH  19  22
ATOM     22  C   UNL     1       2.358   7.502  18.524  0.00  0.00    +0.000 C 
BRANCH  22  23
ATOM     23  C   UNL     1       2.521   6.128  17.855  0.00  0.00    +0.000 C 
BRANCH  23  24
ATOM     24  C   UNL     1       3.941   5.885  17.406  0.00  0.00    +0.000 A 
ATOM     25  C   UNL     1       4.354   4.600  17.029  0.00  0.00    +0.000 A 
ATOM     26  C   UNL     1       5.674   4.366  16.640  0.00  0.00    +0.000 A 
ATOM     27  C   UNL     1       6.592   5.414  16.628  0.00  0.00    +0.000 A 
ATOM     28  C   UNL     1       6.190   6.697  16.997  0.00  0.00    +0.000 A 
ATOM     29  C   UNL     1       4.870   6.933  17.384  0.00  0.00    +0.000 A 
ENDBRANCH  23  24
ENDBRANCH  22  23
ENDBRANCH  19  22
ENDBRANCH  17  20
ENDBRANCH   1  17
BRANCH   6  30
ATOM     30  O   UNL     1      -4.397  13.072  19.674  0.00  0.00    +0.000 OA
BRANCH  30  31
ATOM     31  C   UNL     1      -5.457  12.351  20.217  0.00  0.00    +0.000 A 
ATOM     32  C   UNL     1      -6.115  11.270  19.602  0.00  0.00    +0.000 A 
ATOM     33  C   UNL     1      -7.298  10.754  20.140  0.00  0.00    +0.000 A 
ATOM     34  C   UNL     1      -7.784  11.239  21.349  0.00  0.00    +0.000 A 
ATOM     35  C   UNL     1      -7.085  12.238  22.023  0.00  0.00    +0.000 A 
ATOM     36  C   UNL     1      -5.930  12.798  21.453  0.00  0.00    +0.000 A 
ENDBRANCH  30  31
ENDBRANCH   6  30
TORSDOF 10
ENDMDL
MODEL 5
REMARK VINA RESULT:      -8.3      1.048      1.760
REMARK  Name = 
REMARK  11 active torsions:
REMARK  status: ('A' for Active; 'I' for Inactive)
REMARK    1  A    between atoms: C_1  and  N_2
REMARK    2  A    between atoms: N_2  and  C_3
REMARK    3  A    between atoms: C_3  and  C_4
REMARK    4  A    between atoms: C_4  and  C_5
REMARK    5  A    between atoms: C_11  and  C_13
REMARK    6  A    between atoms: C_13  and  C_14
REMARK    7  A    between atoms: C_16  and  C_17
REMARK    8  A    between atoms: C_18  and  C_19
REMARK    9  A    between atoms: C_19  and  O_21
REMARK   10  A    between atoms: C_24  and  O_25
REMARK   11  A    between atoms: O_25  and  C_26
REMARK                            x       y       z     vdW  Elec       q    Type
REMARK                         _______ _______ _______ _____ _____    ______ ____
ROOT
ATOM      1  C   UNL     1      -0.463  10.156  19.402  0.00  0.00    +0.000 A 
ATOM      2  C   UNL     1      -1.126   9.763  18.202  0.00  0.00    +0.000 A 
ATOM      3  C   UNL     1      -2.269  10.428  17.772  0.00  0.00    +0.000 A 
ATOM      4  C   UNL     1      -2.728  11.502  18.506  0.00  0.00    +0.000 A 
ATOM      5  C   UNL     1      -2.156  11.861  19.745  0.00  0.00    +0.000 A 
ATOM      6  C   UNL     1      -2.706  12.916  20.495  0.00  0.00    +0.000 A 
ATOM      7  C   UNL     1      -2.000  13.441  21.581  0.00  0.00    +0.000 A 
ATOM      8  C   UNL     1      -1.002  12.666  22.156  0.00  0.00    +0.000 A 
ATOM      9  C   UNL     1      -0.542  11.518  21.513  0.00  0.00    +0.000 A 
ATOM     10  C   UNL     1      -1.032  11.165  20.228  0.00  0.00    +0.000 A 
ENDROOT
BRANCH   3  11
ATOM     11  C   UNL     1      -2.990  10.122  16.520  0.00  0.00    +0.000 C 
ATOM     12  C   UNL     1      -2.476  10.281  15.298  0.00  0.00    +0.000 C 
BRANCH  12  13
ATOM     13  C   UNL     1      -3.184   9.957  14.046  0.00  0.00    +0.000 C 
ATOM     14  O   UNL     1      -4.402   9.901  13.998  0.00  0.00    +0.000 OA
BRANCH  13  15
ATOM     15  O   UNL     1      -2.408   9.756  12.963  0.00  0.00    +0.000 OA
ATOM     16  H   UNL     1      -2.869   9.357  12.208  0.00  0.00    +0.000 HD
ENDBRANCH  13  15
ENDBRANCH  12  13
ENDBRANCH   3  11
BRANCH   1  17
ATOM     17  C   UNL     1       0.894   9.544  19.676  0.00  0.00    +0.000 C 
BRANCH  17  20
ATOM     18  C   UNL     1       3.330   8.133  17.128  0.00  0.00    +0.000 C 
ATOM     19  N   UNL     1       2.570   8.254  18.364  0.00  0.00    +0.000 N 
ATOM     20  C   UNL     1       1.812   9.433  18.474  0.00  0.00    +0.000 C 
ATOM     21  O   UNL     1       1.890  10.325  17.630  0.00  0.00    +0.000 OA
BRANCH  19  22
ATOM     22  C   UNL     1       2.392   7.068  19.226  0.00  0.00    +0.000 C 
BRANCH  22  23
ATOM     23  C   UNL     1       2.095   5.753  18.488  0.00  0.00    +0.000 C 
BRANCH  23  24
ATOM     24  C   UNL     1       1.918   4.599  19.445  0.00  0.00    +0.000 A 
ATOM     25  C   UNL     1       1.334   3.402  19.009  0.00  0.00    +0.000 A 
ATOM     26  C   UNL     1       1.143   2.342  19.898  0.00  0.00    +0.000 A 
ATOM     27  C   UNL     1       1.531   2.473  21.230  0.00  0.00    +0.000 A 
ATOM     28  C   UNL     1       2.117   3.658  21.672  0.00  0.00    +0.000 A 
ATOM     29  C   UNL     1       2.311   4.717  20.784  0.00  0.00    +0.000 A 
ENDBRANCH  23  24
ENDBRANCH  22  23
ENDBRANCH  19  22
ENDBRANCH  17  20
ENDBRANCH   1  17
BRANCH   6  30
ATOM     30  O   UNL     1      -3.942  13.480  20.243  0.00  0.00    +0.000 OA
BRANCH  30  31
ATOM     31  C   UNL     1      -5.071  12.865  20.778  0.00  0.00    +0.000 A 
ATOM     32  C   UNL     1      -5.919  11.971  20.099  0.00  0.00    +0.000 A 
ATOM     33  C   UNL     1      -7.137  11.575  20.660  0.00  0.00    +0.000 A 
ATOM     34  C   UNL     1      -7.477  11.982  21.945  0.00  0.00    +0.000 A 
ATOM     35  C   UNL     1      -6.598  12.782  22.671  0.00  0.00    +0.000 A 
ATOM     36  C   UNL     1      -5.402  13.229  22.085  0.00  0.00    +0.000 A 
ENDBRANCH  30  31
ENDBRANCH   6  30
TORSDOF 10
ENDMDL
MODEL 6
REMARK VINA RESULT:      -8.2      1.885      2.909
REMARK  Name = 
REMARK  11 active torsions:
REMARK  status: ('A' for Active; 'I' for Inactive)
REMARK    1  A    between atoms: C_1  and  N_2
REMARK    2  A    between atoms: N_2  and  C_3
REMARK    3  A    between atoms: C_3  and  C_4
REMARK    4  A    between atoms: C_4  and  C_5
REMARK    5  A    between atoms: C_11  and  C_13
REMARK    6  A    between atoms: C_13  and  C_14
REMARK    7  A    between atoms: C_16  and  C_17
REMARK    8  A    between atoms: C_18  and  C_19
REMARK    9  A    between atoms: C_19  and  O_21
REMARK   10  A    between atoms: C_24  and  O_25
REMARK   11  A    between atoms: O_25  and  C_26
REMARK                            x       y       z     vdW  Elec       q    Type
REMARK                         _______ _______ _______ _____ _____    ______ ____
ROOT
ATOM      1  C   UNL     1      -0.130  10.413  19.732  0.00  0.00    +0.000 A 
ATOM      2  C   UNL     1      -0.452  10.173  18.363  0.00  0.00    +0.000 A 
ATOM      3  C   UNL     1      -1.536  10.809  17.768  0.00  0.00    +0.000 A 
ATOM      4  C   UNL     1      -2.270  11.708  18.513  0.00  0.00    +0.000 A 
ATOM      5  C   UNL     1      -2.040  11.900  19.892  0.00  0.00    +0.000 A 
ATOM      6  C   UNL     1      -2.864  12.770  20.629  0.00  0.00    +0.000 A 
ATOM      7  C   UNL     1      -2.489  13.161  21.917  0.00  0.00    +0.000 A 
ATOM      8  C   UNL     1      -1.566  12.381  22.601  0.00  0.00    +0.000 A 
ATOM      9  C   UNL     1      -0.843  11.395  21.932  0.00  0.00    +0.000 A 
ATOM     10  C   UNL     1      -0.984  11.224  20.529  0.00  0.00    +0.000 A 
ENDROOT
BRANCH   3  11
ATOM     11  C   UNL     1      -1.912  10.660  16.347  0.00  0.00    +0.000 C 
ATOM     12  C   UNL     1      -3.060  10.126  15.925  0.00  0.00    +0.000 C 
BRANCH  12  13
ATOM     13  C   UNL     1      -3.449   9.995  14.509  0.00  0.00    +0.000 C 
ATOM     14  O   UNL     1      -2.614   9.931  13.621  0.00  0.00    +0.000 OA
BRANCH  13  15
ATOM     15  O   UNL     1      -4.772   9.922  14.264  0.00  0.00    +0.000 OA
ATOM     16  H   UNL     1      -4.999   9.743  13.336  0.00  0.00    +0.000 HD
ENDBRANCH  13  15
ENDBRANCH  12  13
ENDBRANCH   3  11
BRANCH   1  17
ATOM     17  C   UNL     1       1.191   9.870  20.237  0.00  0.00    +0.000 C 
BRANCH  17  20
ATOM     18  C   UNL     1       1.750   6.141  20.680  0.00  0.00    +0.000 C 
ATOM     19  N   UNL     1       1.699   7.443  20.030  0.00  0.00    +0.000 N 
ATOM     20  C   UNL     1       1.140   8.468  20.812  0.00  0.00    +0.000 C 
ATOM     21  O   UNL     1       0.638   8.233  21.911  0.00  0.00    +0.000 OA
BRANCH  19  22
ATOM     22  C   UNL     1       2.481   7.671  18.798  0.00  0.00    +0.000 C 
BRANCH  22  23
ATOM     23  C   UNL     1       2.937   6.402  18.060  0.00  0.00    +0.000 C 
BRANCH  23  24
ATOM     24  C   UNL     1       4.437   6.231  18.109  0.00  0.00    +0.000 A 
ATOM     25  C   UNL     1       5.247   6.801  17.118  0.00  0.00    +0.000 A 
ATOM     26  C   UNL     1       6.631   6.622  17.144  0.00  0.00    +0.000 A 
ATOM     27  C   UNL     1       7.215   5.866  18.160  0.00  0.00    +0.000 A 
ATOM     28  C   UNL     1       6.418   5.298  19.152  0.00  0.00    +0.000 A 
ATOM     29  C   UNL     1       5.034   5.479  19.129  0.00  0.00    +0.000 A 
ENDBRANCH  23  24
ENDBRANCH  22  23
ENDBRANCH  19  22
ENDBRANCH  17  20
ENDBRANCH   1  17
BRANCH   6  30
ATOM     30  O   UNL     1      -4.066  13.270  20.166  0.00  0.00    +0.000 OA
BRANCH  30  31
ATOM     31  C   UNL     1      -5.211  12.495  20.330  0.00  0.00    +0.000 A 
ATOM     32  C   UNL     1      -5.749  11.612  19.375  0.00  0.00    +0.000 A 
ATOM     33  C   UNL     1      -7.012  11.042  19.561  0.00  0.00    +0.000 A 
ATOM     34  C   UNL     1      -7.710  11.262  20.742  0.00  0.00    +0.000 A 
ATOM     35  C   UNL     1      -7.143  12.050  21.742  0.00  0.00    +0.000 A 
ATOM     36  C   UNL     1      -5.901  12.672  21.532  0.00  0.00    +0.000 A 
ENDBRANCH  30  31
ENDBRANCH   6  30
TORSDOF 10
ENDMDL
MODEL 7
REMARK VINA RESULT:      -8.2      1.303      1.849
REMARK  Name = 
REMARK  11 active torsions:
REMARK  status: ('A' for Active; 'I' for Inactive)
REMARK    1  A    between atoms: C_1  and  N_2
REMARK    2  A    between atoms: N_2  and  C_3
REMARK    3  A    between atoms: C_3  and  C_4
REMARK    4  A    between atoms: C_4  and  C_5
REMARK    5  A    between atoms: C_11  and  C_13
REMARK    6  A    between atoms: C_13  and  C_14
REMARK    7  A    between atoms: C_16  and  C_17
REMARK    8  A    between atoms: C_18  and  C_19
REMARK    9  A    between atoms: C_19  and  O_21
REMARK   10  A    between atoms: C_24  and  O_25
REMARK   11  A    between atoms: O_25  and  C_26
REMARK                            x       y       z     vdW  Elec       q    Type
REMARK                         _______ _______ _______ _____ _____    ______ ____
ROOT
ATOM      1  C   UNL     1      -1.068  10.836  18.814  0.00  0.00    +0.000 A 
ATOM      2  C   UNL     1      -1.405  10.214  17.576  0.00  0.00    +0.000 A 
ATOM      3  C   UNL     1      -2.674  10.366  17.027  0.00  0.00    +0.000 A 
ATOM      4  C   UNL     1      -3.589  11.164  17.682  0.00  0.00    +0.000 A 
ATOM      5  C   UNL     1      -3.325  11.717  18.953  0.00  0.00    +0.000 A 
ATOM      6  C   UNL     1      -4.317  12.461  19.617  0.00  0.00    +0.000 A 
ATOM      7  C   UNL     1      -3.983  13.221  20.741  0.00  0.00    +0.000 A 
ATOM      8  C   UNL     1      -2.816  12.909  21.426  0.00  0.00    +0.000 A 
ATOM      9  C   UNL     1      -1.879  12.044  20.863  0.00  0.00    +0.000 A 
ATOM     10  C   UNL     1      -2.067  11.529  19.553  0.00  0.00    +0.000 A 
ENDROOT
BRANCH   3  11
ATOM     11  C   UNL     1      -3.093   9.802  15.728  0.00  0.00    +0.000 C 
ATOM     12  C   UNL     1      -2.784  10.331  14.542  0.00  0.00    +0.000 C 
BRANCH  12  13
ATOM     13  C   UNL     1      -3.182   9.759  13.243  0.00  0.00    +0.000 C 
ATOM     14  O   UNL     1      -4.352   9.540  12.975  0.00  0.00    +0.000 OA
BRANCH  13  15
ATOM     15  O   UNL     1      -2.183   9.522  12.371  0.00  0.00    +0.000 OA
ATOM     16  H   UNL     1      -1.365   9.192  12.777  0.00  0.00    +0.000 HD
ENDBRANCH  13  15
ENDBRANCH  12  13
ENDBRANCH   3  11
BRANCH   1  17
ATOM     17  C   UNL     1       0.390  10.817  19.224  0.00  0.00    +0.000 C 
BRANCH  17  20
ATOM     18  C   UNL     1       1.343   9.164  22.506  0.00  0.00    +0.000 C 
ATOM     19  N   UNL     1       0.973   9.295  21.104  0.00  0.00    +0.000 N 
ATOM     20  C   UNL     1       0.646  10.602  20.703  0.00  0.00    +0.000 C 
ATOM     21  O   UNL     1       0.576  11.522  21.517  0.00  0.00    +0.000 OA
BRANCH  19  22
ATOM     22  C   UNL     1       1.260   8.187  20.171  0.00  0.00    +0.000 C 
BRANCH  22  23
ATOM     23  C   UNL     1       1.998   6.984  20.779  0.00  0.00    +0.000 C 
BRANCH  23  24
ATOM     24  C   UNL     1       1.812   5.733  19.954  0.00  0.00    +0.000 A 
ATOM     25  C   UNL     1       2.112   5.738  18.585  0.00  0.00    +0.000 A 
ATOM     26  C   UNL     1       1.915   4.592  17.813  0.00  0.00    +0.000 A 
ATOM     27  C   UNL     1       1.411   3.434  18.402  0.00  0.00    +0.000 A 
ATOM     28  C   UNL     1       1.112   3.419  19.764  0.00  0.00    +0.000 A 
ATOM     29  C   UNL     1       1.312   4.562  20.538  0.00  0.00    +0.000 A 
ENDBRANCH  23  24
ENDBRANCH  22  23
ENDBRANCH  19  22
ENDBRANCH  17  20
ENDBRANCH   1  17
BRANCH   6  30
ATOM     30  O   UNL     1      -5.646  12.483  19.240  0.00  0.00    +0.000 OA
BRANCH  30  31
ATOM     31  C   UNL     1      -6.500  11.519  19.772  0.00  0.00    +0.000 A 
ATOM     32  C   UNL     1      -7.255  11.652  20.951  0.00  0.00    +0.000 A 
ATOM     33  C   UNL     1      -7.915  10.551  21.505  0.00  0.00    +0.000 A 
ATOM     34  C   UNL     1      -7.917   9.332  20.838  0.00  0.00    +0.000 A 
ATOM     35  C   UNL     1      -7.260   9.213  19.615  0.00  0.00    +0.000 A 
ATOM     36  C   UNL     1      -6.546  10.302  19.088  0.00  0.00    +0.000 A 
ENDBRANCH  30  31
ENDBRANCH   6  30
TORSDOF 10
ENDMDL
MODEL 8
REMARK VINA RESULT:      -8.2      1.240      1.906
REMARK  Name = 
REMARK  11 active torsions:
REMARK  status: ('A' for Active; 'I' for Inactive)
REMARK    1  A    between atoms: C_1  and  N_2
REMARK    2  A    between atoms: N_2  and  C_3
REMARK    3  A    between atoms: C_3  and  C_4
REMARK    4  A    between atoms: C_4  and  C_5
REMARK    5  A    between atoms: C_11  and  C_13
REMARK    6  A    between atoms: C_13  and  C_14
REMARK    7  A    between atoms: C_16  and  C_17
REMARK    8  A    between atoms: C_18  and  C_19
REMARK    9  A    between atoms: C_19  and  O_21
REMARK   10  A    between atoms: C_24  and  O_25
REMARK   11  A    between atoms: O_25  and  C_26
REMARK                            x       y       z     vdW  Elec       q    Type
REMARK                         _______ _______ _______ _____ _____    ______ ____
ROOT
ATOM      1  C   UNL     1      -0.519  10.405  19.360  0.00  0.00    +0.000 A 
ATOM      2  C   UNL     1      -1.079   9.862  18.166  0.00  0.00    +0.000 A 
ATOM      3  C   UNL     1      -2.267  10.366  17.647  0.00  0.00    +0.000 A 
ATOM      4  C   UNL     1      -2.873  11.427  18.285  0.00  0.00    +0.000 A 
ATOM      5  C   UNL     1      -2.401  11.928  19.518  0.00  0.00    +0.000 A 
ATOM      6  C   UNL     1      -3.097  12.962  20.170  0.00  0.00    +0.000 A 
ATOM      7  C   UNL     1      -2.503  13.632  21.243  0.00  0.00    +0.000 A 
ATOM      8  C   UNL     1      -1.454  13.013  21.909  0.00  0.00    +0.000 A 
ATOM      9  C   UNL     1      -0.843  11.884  21.366  0.00  0.00    +0.000 A 
ATOM     10  C   UNL     1      -1.232  11.396  20.091  0.00  0.00    +0.000 A 
ENDROOT
BRANCH   3  11
ATOM     11  C   UNL     1      -2.892   9.900  16.392  0.00  0.00    +0.000 C 
ATOM     12  C   UNL     1      -2.673  10.447  15.194  0.00  0.00    +0.000 C 
BRANCH  12  13
ATOM     13  C   UNL     1      -3.277   9.972  13.936  0.00  0.00    +0.000 C 
ATOM     14  O   UNL     1      -4.482   9.811  13.829  0.00  0.00    +0.000 OA
BRANCH  13  15
ATOM     15  O   UNL     1      -2.425   9.756  12.916  0.00  0.00    +0.000 OA
ATOM     16  H   UNL     1      -2.598   8.942  12.414  0.00  0.00    +0.000 HD
ENDBRANCH  13  15
ENDBRANCH  12  13
ENDBRANCH   3  11
BRANCH   1  17
ATOM     17  C   UNL     1       0.883   9.967  19.728  0.00  0.00    +0.000 C 
BRANCH  17  20
ATOM     18  C   UNL     1       3.052   7.799  17.490  0.00  0.00    +0.000 C 
ATOM     19  N   UNL     1       2.346   8.247  18.682  0.00  0.00    +0.000 N 
ATOM     20  C   UNL     1       1.748   9.514  18.568  0.00  0.00    +0.000 C 
ATOM     21  O   UNL     1       1.919  10.215  17.571  0.00  0.00    +0.000 OA
BRANCH  19  22
ATOM     22  C   UNL     1       2.038   7.277  19.752  0.00  0.00    +0.000 C 
BRANCH  22  23
ATOM     23  C   UNL     1       2.985   6.069  19.842  0.00  0.00    +0.000 C 
BRANCH  23  24
ATOM     24  C   UNL     1       2.289   4.780  19.481  0.00  0.00    +0.000 A 
ATOM     25  C   UNL     1       2.569   4.141  18.266  0.00  0.00    +0.000 A 
ATOM     26  C   UNL     1       1.906   2.963  17.915  0.00  0.00    +0.000 A 
ATOM     27  C   UNL     1       0.955   2.418  18.776  0.00  0.00    +0.000 A 
ATOM     28  C   UNL     1       0.673   3.044  19.989  0.00  0.00    +0.000 A 
ATOM     29  C   UNL     1       1.336   4.220  20.342  0.00  0.00    +0.000 A 
ENDBRANCH  23  24
ENDBRANCH  22  23
ENDBRANCH  19  22
ENDBRANCH  17  20
ENDBRANCH   1  17
BRANCH   6  30
ATOM     30  O   UNL     1      -4.374  13.366  19.832  0.00  0.00    +0.000 OA
BRANCH  30  31
ATOM     31  C   UNL     1      -5.302  13.551  20.853  0.00  0.00    +0.000 A 
ATOM     32  C   UNL     1      -5.815  12.542  21.688  0.00  0.00    +0.000 A 
ATOM     33  C   UNL     1      -6.893  12.799  22.541  0.00  0.00    +0.000 A 
ATOM     34  C   UNL     1      -7.405  14.087  22.647  0.00  0.00    +0.000 A 
ATOM     35  C   UNL     1      -6.838  15.119  21.904  0.00  0.00    +0.000 A 
ATOM     36  C   UNL     1      -5.794  14.849  21.003  0.00  0.00    +0.000 A 
ENDBRANCH  30  31
ENDBRANCH   6  30
TORSDOF 10
ENDMDL
MODEL 9
REMARK VINA RESULT:      -8.1      1.612      2.170
REMARK  Name = 
REMARK  11 active torsions:
REMARK  status: ('A' for Active; 'I' for Inactive)
REMARK    1  A    between atoms: C_1  and  N_2
REMARK    2  A    between atoms: N_2  and  C_3
REMARK    3  A    between atoms: C_3  and  C_4
REMARK    4  A    between atoms: C_4  and  C_5
REMARK    5  A    between atoms: C_11  and  C_13
REMARK    6  A    between atoms: C_13  and  C_14
REMARK    7  A    between atoms: C_16  and  C_17
REMARK    8  A    between atoms: C_18  and  C_19
REMARK    9  A    between atoms: C_19  and  O_21
REMARK   10  A    between atoms: C_24  and  O_25
REMARK   11  A    between atoms: O_25  and  C_26
REMARK                            x       y       z     vdW  Elec       q    Type
REMARK                         _______ _______ _______ _____ _____    ______ ____
ROOT
ATOM      1  C   UNL     1      -0.412  10.536  19.972  0.00  0.00    +0.000 A 
ATOM      2  C   UNL     1      -0.692  10.325  18.589  0.00  0.00    +0.000 A 
ATOM      3  C   UNL     1      -1.737  10.999  17.967  0.00  0.00    +0.000 A 
ATOM      4  C   UNL     1      -2.474  11.905  18.700  0.00  0.00    +0.000 A 
ATOM      5  C   UNL     1      -2.288  12.071  20.089  0.00  0.00    +0.000 A 
ATOM      6  C   UNL     1      -3.115  12.951  20.810  0.00  0.00    +0.000 A 
ATOM      7  C   UNL     1      -2.775  13.313  22.117  0.00  0.00    +0.000 A 
ATOM      8  C   UNL     1      -1.897  12.499  22.820  0.00  0.00    +0.000 A 
ATOM      9  C   UNL     1      -1.177  11.504  22.161  0.00  0.00    +0.000 A 
ATOM     10  C   UNL     1      -1.272  11.357  20.752  0.00  0.00    +0.000 A 
ENDROOT
BRANCH   3  11
ATOM     11  C   UNL     1      -2.067  10.881  16.532  0.00  0.00    +0.000 C 
ATOM     12  C   UNL     1      -2.988  10.050  16.037  0.00  0.00    +0.000 C 
BRANCH  12  13
ATOM     13  C   UNL     1      -3.335   9.945  14.608  0.00  0.00    +0.000 C 
ATOM     14  O   UNL     1      -2.474   9.912  13.743  0.00  0.00    +0.000 OA
BRANCH  13  15
ATOM     15  O   UNL     1      -4.649   9.859  14.324  0.00  0.00    +0.000 OA
ATOM     16  H   UNL     1      -4.846   9.568  13.419  0.00  0.00    +0.000 HD
ENDBRANCH  13  15
ENDBRANCH  12  13
ENDBRANCH   3  11
BRANCH   1  17
ATOM     17  C   UNL     1       0.876   9.951  20.514  0.00  0.00    +0.000 C 
BRANCH  17  20
ATOM     18  C   UNL     1       1.448   6.241  21.079  0.00  0.00    +0.000 C 
ATOM     19  N   UNL     1       1.475   7.538  20.418  0.00  0.00    +0.000 N 
ATOM     20  C   UNL     1       0.763   8.551  21.084  0.00  0.00    +0.000 C 
ATOM     21  O   UNL     1       0.088   8.307  22.083  0.00  0.00    +0.000 OA
BRANCH  19  22
ATOM     22  C   UNL     1       2.450   7.782  19.336  0.00  0.00    +0.000 C 
BRANCH  22  23
ATOM     23  C   UNL     1       2.085   7.183  17.968  0.00  0.00    +0.000 C 
BRANCH  23  24
ATOM     24  C   UNL     1       2.660   5.800  17.788  0.00  0.00    +0.000 A 
ATOM     25  C   UNL     1       4.039   5.625  17.610  0.00  0.00    +0.000 A 
ATOM     26  C   UNL     1       4.572   4.349  17.414  0.00  0.00    +0.000 A 
ATOM     27  C   UNL     1       3.730   3.240  17.391  0.00  0.00    +0.000 A 
ATOM     28  C   UNL     1       2.357   3.403  17.571  0.00  0.00    +0.000 A 
ATOM     29  C   UNL     1       1.823   4.677  17.769  0.00  0.00    +0.000 A 
ENDBRANCH  23  24
ENDBRANCH  22  23
ENDBRANCH  19  22
ENDBRANCH  17  20
ENDBRANCH   1  17
BRANCH   6  30
ATOM     30  O   UNL     1      -4.286  13.490  20.314  0.00  0.00    +0.000 OA
BRANCH  30  31
ATOM     31  C   UNL     1      -5.481  12.823  20.573  0.00  0.00    +0.000 A 
ATOM     32  C   UNL     1      -6.266  12.965  21.732  0.00  0.00    +0.000 A 
ATOM     33  C   UNL     1      -7.334  12.097  21.982  0.00  0.00    +0.000 A 
ATOM     34  C   UNL     1      -7.695  11.146  21.036  0.00  0.00    +0.000 A 
ATOM     35  C   UNL     1      -6.992  11.063  19.836  0.00  0.00    +0.000 A 
ATOM     36  C   UNL     1      -5.882  11.894  19.610  0.00  0.00    +0.000 A 
ENDBRANCH  30  31
ENDBRANCH   6  30
TORSDOF 10
ENDMDL
