MODEL 1
REMARK VINA RESULT:      -7.1      0.000      0.000
REMARK  Name = 
REMARK  17 active torsions:
REMARK  status: ('A' for Active; 'I' for Inactive)
REMARK    1  A    between atoms: C_1  and  C_2
REMARK    2  A    between atoms: C_2  and  C_3
REMARK    3  A    between atoms: C_3  and  C_4
REMARK    4  A    between atoms: C_4  and  C_5
REMARK    5  A    between atoms: C_5  and  C_6
REMARK    6  A    between atoms: C_6  and  C_7
REMARK    7  A    between atoms: C_7  and  N_8
REMARK    8  A    between atoms: N_8  and  C_9
REMARK    9  A    between atoms: C_9  and  C_10
REMARK   10  A    between atoms: C_10  and  C_11
REMARK   11  A    between atoms: C_14  and  O_15
REMARK   12  A    between atoms: O_15  and  C_16
REMARK   13  A    between atoms: C_16  and  C_17
REMARK   14  A    between atoms: C_16  and  C_18
REMARK   15  A    between atoms: C_16  and  C_20
REMARK   16  A    between atoms: C_18  and  C_19
REMARK   17  A    between atoms: C_20  and  O_22
REMARK                            x       y       z     vdW  Elec       q    Type
REMARK                         _______ _______ _______ _____ _____    ______ ____
ROOT
ATOM      1  N   UNL     1       5.239   5.717  16.988  0.00  0.00    +0.000 N 
ATOM      2  C   UNL     1       5.570   5.294  15.731  0.00  0.00    +0.000 A 
ATOM      3  N   UNL     1       4.918   4.367  15.059  0.00  0.00    +0.000 NA
ATOM      4  C   UNL     1       5.651   4.169  13.943  0.00  0.00    +0.000 A 
ATOM      5  C   UNL     1       5.487   3.234  12.920  0.00  0.00    +0.000 A 
ATOM      6  C   UNL     1       6.415   3.220  11.875  0.00  0.00    +0.000 A 
ATOM      7  C   UNL     1       7.476   4.131  11.856  0.00  0.00    +0.000 A 
ATOM      8  C   UNL     1       7.655   5.087  12.876  0.00  0.00    +0.000 A 
ATOM      9  C   UNL     1       6.717   5.060  13.904  0.00  0.00    +0.000 A 
ATOM     10  O   UNL     1       6.657   5.812  15.059  0.00  0.00    +0.000 OA
ENDROOT
BRANCH   1  11
ATOM     11  C   UNL     1       5.941   6.871  17.571  0.00  0.00    +0.000 C 
BRANCH  11  12
ATOM     12  C   UNL     1       7.302   6.573  18.242  0.00  0.00    +0.000 C 
BRANCH  12  13
ATOM     13  C   UNL     1       8.401   7.646  18.276  0.00  0.00    +0.000 C 
BRANCH  13  14
ATOM     14  C   UNL     1       7.862   9.067  18.126  0.00  0.00    +0.000 C 
BRANCH  14  15
ATOM     15  C   UNL     1       8.989  10.104  18.121  0.00  0.00    +0.000 C 
BRANCH  15  17
ATOM     16  C   UNL     1      10.656  11.259  19.591  0.00  0.00    +0.000 C 
ATOM     17  C   UNL     1       9.232  10.725  19.498  0.00  0.00    +0.000 C 
ENDBRANCH  15  17
ENDBRANCH  14  15
ENDBRANCH  13  14
ENDBRANCH  12  13
ENDBRANCH  11  12
ENDBRANCH   1  11
BRANCH   1  18
ATOM     18  C   UNL     1       3.806   5.476  17.289  0.00  0.00    +0.000 C 
BRANCH  18  19
ATOM     19  C   UNL     1       3.426   5.857  18.739  0.00  0.00    +0.000 C 
BRANCH  19  20
ATOM     20  C   UNL     1       2.633   7.144  18.782  0.00  0.00    +0.000 A 
ATOM     21  C   UNL     1       2.508   7.974  17.661  0.00  0.00    +0.000 A 
ATOM     22  C   UNL     1       1.937   9.245  17.787  0.00  0.00    +0.000 A 
ATOM     23  C   UNL     1       1.439   9.682  19.019  0.00  0.00    +0.000 A 
ATOM     24  C   UNL     1       1.475   8.806  20.098  0.00  0.00    +0.000 A 
ATOM     25  C   UNL     1       2.074   7.554  19.988  0.00  0.00    +0.000 A 
BRANCH  23  26
ATOM     26  O   UNL     1       1.070  10.991  19.065  0.00  0.00    +0.000 OA
BRANCH  26  27
ATOM     27  C   UNL     1      -0.291  11.403  19.273  0.00  0.00    +0.000 C 
ATOM     28  C   UNL     1      -0.572  12.772  18.623  0.00  0.00    +0.000 C 
BRANCH  27  29
ATOM     29  C   UNL     1      -1.369  10.316  18.969  0.00  0.00    +0.000 C 
ATOM     30  C   UNL     1      -1.982  10.304  17.565  0.00  0.00    +0.000 C 
ENDBRANCH  27  29
BRANCH  27  31
ATOM     31  C   UNL     1      -0.361  11.670  20.784  0.00  0.00    +0.000 C 
ATOM     32  O   UNL     1      -1.229  11.206  21.538  0.00  0.00    +0.000 OA
BRANCH  31  33
ATOM     33  O   UNL     1       0.626  12.479  21.287  0.00  0.00    +0.000 OA
ATOM     34  H   UNL     1       0.303  13.407  21.261  0.00  0.00    +0.000 HD
ENDBRANCH  31  33
ENDBRANCH  27  31
ENDBRANCH  26  27
ENDBRANCH  23  26
ENDBRANCH  19  20
ENDBRANCH  18  19
ENDBRANCH   1  18
TORSDOF 14
ENDMDL
MODEL 2
REMARK VINA RESULT:      -7.0      1.000      1.328
REMARK  Name = 
REMARK  17 active torsions:
REMARK  status: ('A' for Active; 'I' for Inactive)
REMARK    1  A    between atoms: C_1  and  C_2
REMARK    2  A    between atoms: C_2  and  C_3
REMARK    3  A    between atoms: C_3  and  C_4
REMARK    4  A    between atoms: C_4  and  C_5
REMARK    5  A    between atoms: C_5  and  C_6
REMARK    6  A    between atoms: C_6  and  C_7
REMARK    7  A    between atoms: C_7  and  N_8
REMARK    8  A    between atoms: N_8  and  C_9
REMARK    9  A    between atoms: C_9  and  C_10
REMARK   10  A    between atoms: C_10  and  C_11
REMARK   11  A    between atoms: C_14  and  O_15
REMARK   12  A    between atoms: O_15  and  C_16
REMARK   13  A    between atoms: C_16  and  C_17
REMARK   14  A    between atoms: C_16  and  C_18
REMARK   15  A    between atoms: C_16  and  C_20
REMARK   16  A    between atoms: C_18  and  C_19
REMARK   17  A    between atoms: C_20  and  O_22
REMARK                            x       y       z     vdW  Elec       q    Type
REMARK                         _______ _______ _______ _____ _____    ______ ____
ROOT
ATOM      1  N   UNL     1       6.087   5.208  17.710  0.00  0.00    +0.000 N 
ATOM      2  C   UNL     1       6.143   4.975  16.364  0.00  0.00    +0.000 A 
ATOM      3  N   UNL     1       5.211   4.349  15.675  0.00  0.00    +0.000 NA
ATOM      4  C   UNL     1       5.726   4.222  14.434  0.00  0.00    +0.000 A 
ATOM      5  C   UNL     1       5.217   3.555  13.319  0.00  0.00    +0.000 A 
ATOM      6  C   UNL     1       5.972   3.550  12.143  0.00  0.00    +0.000 A 
ATOM      7  C   UNL     1       7.205   4.208  12.088  0.00  0.00    +0.000 A 
ATOM      8  C   UNL     1       7.733   4.892  13.202  0.00  0.00    +0.000 A 
ATOM      9  C   UNL     1       6.957   4.863  14.356  0.00  0.00    +0.000 A 
ATOM     10  O   UNL     1       7.225   5.375  15.608  0.00  0.00    +0.000 OA
ENDROOT
BRANCH   1  11
ATOM     11  C   UNL     1       7.109   6.058  18.340  0.00  0.00    +0.000 C 
BRANCH  11  12
ATOM     12  C   UNL     1       7.274   7.478  17.748  0.00  0.00    +0.000 C 
BRANCH  12  13
ATOM     13  C   UNL     1       8.462   8.358  18.166  0.00  0.00    +0.000 C 
BRANCH  13  14
ATOM     14  C   UNL     1       8.156   9.853  18.108  0.00  0.00    +0.000 C 
BRANCH  14  15
ATOM     15  C   UNL     1       9.353  10.695  18.558  0.00  0.00    +0.000 C 
BRANCH  15  17
ATOM     16  C   UNL     1      10.397  11.914  20.481  0.00  0.00    +0.000 C 
ATOM     17  C   UNL     1       9.505  10.747  20.080  0.00  0.00    +0.000 C 
ENDBRANCH  15  17
ENDBRANCH  14  15
ENDBRANCH  13  14
ENDBRANCH  12  13
ENDBRANCH  11  12
ENDBRANCH   1  11
BRANCH   1  18
ATOM     18  C   UNL     1       4.689   5.216  18.208  0.00  0.00    +0.000 C 
BRANCH  18  19
ATOM     19  C   UNL     1       3.761   6.131  17.376  0.00  0.00    +0.000 C 
BRANCH  19  20
ATOM     20  C   UNL     1       3.028   7.120  18.254  0.00  0.00    +0.000 A 
ATOM     21  C   UNL     1       2.637   6.801  19.560  0.00  0.00    +0.000 A 
ATOM     22  C   UNL     1       1.793   7.662  20.272  0.00  0.00    +0.000 A 
ATOM     23  C   UNL     1       1.373   8.870  19.709  0.00  0.00    +0.000 A 
ATOM     24  C   UNL     1       1.855   9.222  18.453  0.00  0.00    +0.000 A 
ATOM     25  C   UNL     1       2.665   8.355  17.726  0.00  0.00    +0.000 A 
BRANCH  23  26
ATOM     26  O   UNL     1       0.421   9.539  20.414  0.00  0.00    +0.000 OA
BRANCH  26  27
ATOM     27  C   UNL     1      -0.283  10.674  19.881  0.00  0.00    +0.000 C 
ATOM     28  C   UNL     1       0.690  11.784  19.439  0.00  0.00    +0.000 C 
BRANCH  27  29
ATOM     29  C   UNL     1      -1.391  10.338  18.834  0.00  0.00    +0.000 C 
ATOM     30  C   UNL     1      -1.563  11.301  17.657  0.00  0.00    +0.000 C 
ENDBRANCH  27  29
BRANCH  27  31
ATOM     31  C   UNL     1      -1.007  11.257  21.104  0.00  0.00    +0.000 C 
ATOM     32  O   UNL     1      -1.879  12.138  21.048  0.00  0.00    +0.000 OA
BRANCH  31  33
ATOM     33  O   UNL     1      -0.632  10.736  22.316  0.00  0.00    +0.000 OA
ATOM     34  H   UNL     1      -1.339  10.120  22.615  0.00  0.00    +0.000 HD
ENDBRANCH  31  33
ENDBRANCH  27  31
ENDBRANCH  26  27
ENDBRANCH  23  26
ENDBRANCH  19  20
ENDBRANCH  18  19
ENDBRANCH   1  18
TORSDOF 14
ENDMDL
MODEL 3
REMARK VINA RESULT:      -7.0      4.035      9.773
REMARK  Name = 
REMARK  17 active torsions:
REMARK  status: ('A' for Active; 'I' for Inactive)
REMARK    1  A    between atoms: C_1  and  C_2
REMARK    2  A    between atoms: C_2  and  C_3
REMARK    3  A    between atoms: C_3  and  C_4
REMARK    4  A    between atoms: C_4  and  C_5
REMARK    5  A    between atoms: C_5  and  C_6
REMARK    6  A    between atoms: C_6  and  C_7
REMARK    7  A    between atoms: C_7  and  N_8
REMARK    8  A    between atoms: N_8  and  C_9
REMARK    9  A    between atoms: C_9  and  C_10
REMARK   10  A    between atoms: C_10  and  C_11
REMARK   11  A    between atoms: C_14  and  O_15
REMARK   12  A    between atoms: O_15  and  C_16
REMARK   13  A    between atoms: C_16  and  C_17
REMARK   14  A    between atoms: C_16  and  C_18
REMARK   15  A    between atoms: C_16  and  C_20
REMARK   16  A    between atoms: C_18  and  C_19
REMARK   17  A    between atoms: C_20  and  O_22
REMARK                            x       y       z     vdW  Elec       q    Type
REMARK                         _______ _______ _______ _____ _____    ______ ____
ROOT
ATOM      1  N   UNL     1       0.310  12.138  19.010  0.00  0.00    +0.000 N 
ATOM      2  C   UNL     1       1.275  13.060  18.710  0.00  0.00    +0.000 A 
ATOM      3  N   UNL     1       2.548  12.777  18.531  0.00  0.00    +0.000 NA
ATOM      4  C   UNL     1       3.153  13.975  18.393  0.00  0.00    +0.000 A 
ATOM      5  C   UNL     1       4.509  14.284  18.275  0.00  0.00    +0.000 A 
ATOM      6  C   UNL     1       4.880  15.628  18.173  0.00  0.00    +0.000 A 
ATOM      7  C   UNL     1       3.909  16.635  18.179  0.00  0.00    +0.000 A 
ATOM      8  C   UNL     1       2.534  16.343  18.291  0.00  0.00    +0.000 A 
ATOM      9  C   UNL     1       2.208  14.995  18.403  0.00  0.00    +0.000 A 
ATOM     10  O   UNL     1       0.977  14.401  18.588  0.00  0.00    +0.000 OA
ENDROOT
BRANCH   1  11
ATOM     11  C   UNL     1      -1.103  12.550  19.027  0.00  0.00    +0.000 C 
BRANCH  11  12
ATOM     12  C   UNL     1      -2.005  11.932  17.932  0.00  0.00    +0.000 C 
BRANCH  12  13
ATOM     13  C   UNL     1      -3.072  10.892  18.304  0.00  0.00    +0.000 C 
BRANCH  13  14
ATOM     14  C   UNL     1      -3.180   9.750  17.297  0.00  0.00    +0.000 C 
BRANCH  14  15
ATOM     15  C   UNL     1      -2.538  10.114  15.955  0.00  0.00    +0.000 C 
BRANCH  15  17
ATOM     16  C   UNL     1      -2.996   9.733  13.522  0.00  0.00    +0.000 C 
ATOM     17  C   UNL     1      -3.562  10.272  14.829  0.00  0.00    +0.000 C 
ENDBRANCH  15  17
ENDBRANCH  14  15
ENDBRANCH  13  14
ENDBRANCH  12  13
ENDBRANCH  11  12
ENDBRANCH   1  11
BRANCH   1  18
ATOM     18  C   UNL     1       0.693  10.777  18.561  0.00  0.00    +0.000 C 
BRANCH  18  19
ATOM     19  C   UNL     1       0.466   9.701  19.648  0.00  0.00    +0.000 C 
BRANCH  19  20
ATOM     20  C   UNL     1       1.458   8.568  19.521  0.00  0.00    +0.000 A 
ATOM     21  C   UNL     1       2.263   8.414  18.385  0.00  0.00    +0.000 A 
ATOM     22  C   UNL     1       3.024   7.252  18.214  0.00  0.00    +0.000 A 
ATOM     23  C   UNL     1       3.030   6.255  19.195  0.00  0.00    +0.000 A 
ATOM     24  C   UNL     1       2.308   6.470  20.365  0.00  0.00    +0.000 A 
ATOM     25  C   UNL     1       1.522   7.607  20.525  0.00  0.00    +0.000 A 
BRANCH  23  26
ATOM     26  O   UNL     1       3.660   5.101  18.847  0.00  0.00    +0.000 OA
BRANCH  26  27
ATOM     27  C   UNL     1       3.107   4.174  17.898  0.00  0.00    +0.000 C 
ATOM     28  C   UNL     1       1.586   4.368  17.738  0.00  0.00    +0.000 C 
BRANCH  27  29
ATOM     29  C   UNL     1       3.883   4.061  16.549  0.00  0.00    +0.000 C 
ATOM     30  C   UNL     1       5.412   4.140  16.607  0.00  0.00    +0.000 C 
ENDBRANCH  27  29
BRANCH  27  31
ATOM     31  C   UNL     1       3.253   2.813  18.596  0.00  0.00    +0.000 C 
ATOM     32  O   UNL     1       3.894   2.628  19.642  0.00  0.00    +0.000 OA
BRANCH  31  33
ATOM     33  O   UNL     1       2.611   1.765  17.987  0.00  0.00    +0.000 OA
ATOM     34  H   UNL     1       3.072   1.577  17.139  0.00  0.00    +0.000 HD
ENDBRANCH  31  33
ENDBRANCH  27  31
ENDBRANCH  26  27
ENDBRANCH  23  26
ENDBRANCH  19  20
ENDBRANCH  18  19
ENDBRANCH   1  18
TORSDOF 14
ENDMDL
MODEL 4
REMARK VINA RESULT:      -7.0      4.040     10.599
REMARK  Name = 
REMARK  17 active torsions:
REMARK  status: ('A' for Active; 'I' for Inactive)
REMARK    1  A    between atoms: C_1  and  C_2
REMARK    2  A    between atoms: C_2  and  C_3
REMARK    3  A    between atoms: C_3  and  C_4
REMARK    4  A    between atoms: C_4  and  C_5
REMARK    5  A    between atoms: C_5  and  C_6
REMARK    6  A    between atoms: C_6  and  C_7
REMARK    7  A    between atoms: C_7  and  N_8
REMARK    8  A    between atoms: N_8  and  C_9
REMARK    9  A    between atoms: C_9  and  C_10
REMARK   10  A    between atoms: C_10  and  C_11
REMARK   11  A    between atoms: C_14  and  O_15
REMARK   12  A    between atoms: O_15  and  C_16
REMARK   13  A    between atoms: C_16  and  C_17
REMARK   14  A    between atoms: C_16  and  C_18
REMARK   15  A    between atoms: C_16  and  C_20
REMARK   16  A    between atoms: C_18  and  C_19
REMARK   17  A    between atoms: C_20  and  O_22
REMARK                            x       y       z     vdW  Elec       q    Type
REMARK                         _______ _______ _______ _____ _____    ______ ____
ROOT
ATOM      1  N   UNL     1      -0.122  11.471  19.462  0.00  0.00    +0.000 N 
ATOM      2  C   UNL     1       0.237  12.773  19.244  0.00  0.00    +0.000 A 
ATOM      3  N   UNL     1       1.451  13.252  19.421  0.00  0.00    +0.000 NA
ATOM      4  C   UNL     1       1.329  14.582  19.226  0.00  0.00    +0.000 A 
ATOM      5  C   UNL     1       2.274  15.598  19.380  0.00  0.00    +0.000 A 
ATOM      6  C   UNL     1       1.879  16.917  19.139  0.00  0.00    +0.000 A 
ATOM      7  C   UNL     1       0.568  17.205  18.744  0.00  0.00    +0.000 A 
ATOM      8  C   UNL     1      -0.398  16.191  18.577  0.00  0.00    +0.000 A 
ATOM      9  C   UNL     1       0.032  14.894  18.839  0.00  0.00    +0.000 A 
ATOM     10  O   UNL     1      -0.681  13.714  18.828  0.00  0.00    +0.000 OA
ENDROOT
BRANCH   1  11
ATOM     11  C   UNL     1      -1.467  11.018  19.075  0.00  0.00    +0.000 C 
BRANCH  11  12
ATOM     12  C   UNL     1      -1.569  10.250  17.736  0.00  0.00    +0.000 C 
BRANCH  12  13
ATOM     13  C   UNL     1      -2.933   9.760  17.226  0.00  0.00    +0.000 C 
BRANCH  13  14
ATOM     14  C   UNL     1      -4.114  10.469  17.885  0.00  0.00    +0.000 C 
BRANCH  14  15
ATOM     15  C   UNL     1      -4.519  11.730  17.118  0.00  0.00    +0.000 C 
BRANCH  15  17
ATOM     16  C   UNL     1      -6.656  11.126  18.277  0.00  0.00    +0.000 C 
ATOM     17  C   UNL     1      -5.994  12.093  17.304  0.00  0.00    +0.000 C 
ENDBRANCH  15  17
ENDBRANCH  14  15
ENDBRANCH  13  14
ENDBRANCH  12  13
ENDBRANCH  11  12
ENDBRANCH   1  11
BRANCH   1  18
ATOM     18  C   UNL     1       1.041  10.556  19.355  0.00  0.00    +0.000 C 
BRANCH  18  19
ATOM     19  C   UNL     1       1.019   9.432  20.418  0.00  0.00    +0.000 C 
BRANCH  19  20
ATOM     20  C   UNL     1       1.649   8.163  19.893  0.00  0.00    +0.000 A 
ATOM     21  C   UNL     1       2.210   8.090  18.612  0.00  0.00    +0.000 A 
ATOM     22  C   UNL     1       2.606   6.854  18.086  0.00  0.00    +0.000 A 
ATOM     23  C   UNL     1       2.493   5.688  18.849  0.00  0.00    +0.000 A 
ATOM     24  C   UNL     1       2.032   5.792  20.158  0.00  0.00    +0.000 A 
ATOM     25  C   UNL     1       1.604   7.012  20.674  0.00  0.00    +0.000 A 
BRANCH  23  26
ATOM     26  O   UNL     1       2.740   4.530  18.180  0.00  0.00    +0.000 OA
BRANCH  26  27
ATOM     27  C   UNL     1       4.014   3.865  18.229  0.00  0.00    +0.000 C 
ATOM     28  C   UNL     1       4.629   3.720  16.823  0.00  0.00    +0.000 C 
BRANCH  27  29
ATOM     29  C   UNL     1       5.003   4.402  19.309  0.00  0.00    +0.000 C 
ATOM     30  C   UNL     1       6.184   5.248  18.825  0.00  0.00    +0.000 C 
ENDBRANCH  27  29
BRANCH  27  31
ATOM     31  C   UNL     1       3.656   2.430  18.645  0.00  0.00    +0.000 C 
ATOM     32  O   UNL     1       2.931   2.141  19.610  0.00  0.00    +0.000 OA
BRANCH  31  33
ATOM     33  O   UNL     1       4.193   1.438  17.866  0.00  0.00    +0.000 OA
ATOM     34  H   UNL     1       4.498   1.842  17.023  0.00  0.00    +0.000 HD
ENDBRANCH  31  33
ENDBRANCH  27  31
ENDBRANCH  26  27
ENDBRANCH  23  26
ENDBRANCH  19  20
ENDBRANCH  18  19
ENDBRANCH   1  18
TORSDOF 14
ENDMDL
MODEL 5
REMARK VINA RESULT:      -7.0      3.369      6.006
REMARK  Name = 
REMARK  17 active torsions:
REMARK  status: ('A' for Active; 'I' for Inactive)
REMARK    1  A    between atoms: C_1  and  C_2
REMARK    2  A    between atoms: C_2  and  C_3
REMARK    3  A    between atoms: C_3  and  C_4
REMARK    4  A    between atoms: C_4  and  C_5
REMARK    5  A    between atoms: C_5  and  C_6
REMARK    6  A    between atoms: C_6  and  C_7
REMARK    7  A    between atoms: C_7  and  N_8
REMARK    8  A    between atoms: N_8  and  C_9
REMARK    9  A    between atoms: C_9  and  C_10
REMARK   10  A    between atoms: C_10  and  C_11
REMARK   11  A    between atoms: C_14  and  O_15
REMARK   12  A    between atoms: O_15  and  C_16
REMARK   13  A    between atoms: C_16  and  C_17
REMARK   14  A    between atoms: C_16  and  C_18
REMARK   15  A    between atoms: C_16  and  C_20
REMARK   16  A    between atoms: C_18  and  C_19
REMARK   17  A    between atoms: C_20  and  O_22
REMARK                            x       y       z     vdW  Elec       q    Type
REMARK                         _______ _______ _______ _____ _____    ______ ____
ROOT
ATOM      1  N   UNL     1       2.183   7.720  19.399  0.00  0.00    +0.000 N 
ATOM      2  C   UNL     1       1.969   6.382  19.577  0.00  0.00    +0.000 A 
ATOM      3  N   UNL     1       1.741   5.810  20.742  0.00  0.00    +0.000 NA
ATOM      4  C   UNL     1       1.722   4.487  20.479  0.00  0.00    +0.000 A 
ATOM      5  C   UNL     1       1.618   3.403  21.354  0.00  0.00    +0.000 A 
ATOM      6  C   UNL     1       1.652   2.112  20.821  0.00  0.00    +0.000 A 
ATOM      7  C   UNL     1       1.780   1.915  19.442  0.00  0.00    +0.000 A 
ATOM      8  C   UNL     1       1.881   2.997  18.543  0.00  0.00    +0.000 A 
ATOM      9  C   UNL     1       1.854   4.265  19.114  0.00  0.00    +0.000 A 
ATOM     10  O   UNL     1       1.994   5.500  18.517  0.00  0.00    +0.000 OA
ENDROOT
BRANCH   1  11
ATOM     11  C   UNL     1       2.264   8.264  18.034  0.00  0.00    +0.000 C 
BRANCH  11  12
ATOM     12  C   UNL     1       3.678   8.328  17.409  0.00  0.00    +0.000 C 
BRANCH  12  13
ATOM     13  C   UNL     1       4.305   7.073  16.784  0.00  0.00    +0.000 C 
BRANCH  13  14
ATOM     14  C   UNL     1       5.279   6.357  17.716  0.00  0.00    +0.000 C 
BRANCH  14  15
ATOM     15  C   UNL     1       6.674   6.237  17.097  0.00  0.00    +0.000 C 
BRANCH  15  17
ATOM     16  C   UNL     1       7.829   8.377  17.700  0.00  0.00    +0.000 C 
ATOM     17  C   UNL     1       7.765   6.877  17.959  0.00  0.00    +0.000 C 
ENDBRANCH  15  17
ENDBRANCH  14  15
ENDBRANCH  13  14
ENDBRANCH  12  13
ENDBRANCH  11  12
ENDBRANCH   1  11
BRANCH   1  18
ATOM     18  C   UNL     1       1.586   8.523  20.496  0.00  0.00    +0.000 C 
BRANCH  18  19
ATOM     19  C   UNL     1       0.964   9.848  19.999  0.00  0.00    +0.000 C 
BRANCH  19  20
ATOM     20  C   UNL     1       0.205  10.550  21.101  0.00  0.00    +0.000 A 
ATOM     21  C   UNL     1      -0.281   9.861  22.220  0.00  0.00    +0.000 A 
ATOM     22  C   UNL     1      -1.143  10.499  23.119  0.00  0.00    +0.000 A 
ATOM     23  C   UNL     1      -1.490  11.842  22.941  0.00  0.00    +0.000 A 
ATOM     24  C   UNL     1      -0.916  12.541  21.885  0.00  0.00    +0.000 A 
ATOM     25  C   UNL     1      -0.086  11.904  20.967  0.00  0.00    +0.000 A 
BRANCH  23  26
ATOM     26  O   UNL     1      -2.465  12.304  23.768  0.00  0.00    +0.000 OA
BRANCH  26  27
ATOM     27  C   UNL     1      -3.620  13.011  23.283  0.00  0.00    +0.000 C 
ATOM     28  C   UNL     1      -3.460  14.535  23.449  0.00  0.00    +0.000 C 
BRANCH  27  29
ATOM     29  C   UNL     1      -4.127  12.570  21.875  0.00  0.00    +0.000 C 
ATOM     30  C   UNL     1      -4.404  13.672  20.848  0.00  0.00    +0.000 C 
ENDBRANCH  27  29
BRANCH  27  31
ATOM     31  C   UNL     1      -4.723  12.627  24.281  0.00  0.00    +0.000 C 
ATOM     32  O   UNL     1      -5.883  12.323  23.959  0.00  0.00    +0.000 OA
BRANCH  31  33
ATOM     33  O   UNL     1      -4.354  12.630  25.601  0.00  0.00    +0.000 OA
ATOM     34  H   UNL     1      -3.371  12.646  25.643  0.00  0.00    +0.000 HD
ENDBRANCH  31  33
ENDBRANCH  27  31
ENDBRANCH  26  27
ENDBRANCH  23  26
ENDBRANCH  19  20
ENDBRANCH  18  19
ENDBRANCH   1  18
TORSDOF 14
ENDMDL
MODEL 6
REMARK VINA RESULT:      -6.9      3.266      5.780
REMARK  Name = 
REMARK  17 active torsions:
REMARK  status: ('A' for Active; 'I' for Inactive)
REMARK    1  A    between atoms: C_1  and  C_2
REMARK    2  A    between atoms: C_2  and  C_3
REMARK    3  A    between atoms: C_3  and  C_4
REMARK    4  A    between atoms: C_4  and  C_5
REMARK    5  A    between atoms: C_5  and  C_6
REMARK    6  A    between atoms: C_6  and  C_7
REMARK    7  A    between atoms: C_7  and  N_8
REMARK    8  A    between atoms: N_8  and  C_9
REMARK    9  A    between atoms: C_9  and  C_10
REMARK   10  A    between atoms: C_10  and  C_11
REMARK   11  A    between atoms: C_14  and  O_15
REMARK   12  A    between atoms: O_15  and  C_16
REMARK   13  A    between atoms: C_16  and  C_17
REMARK   14  A    between atoms: C_16  and  C_18
REMARK   15  A    between atoms: C_16  and  C_20
REMARK   16  A    between atoms: C_18  and  C_19
REMARK   17  A    between atoms: C_20  and  O_22
REMARK                            x       y       z     vdW  Elec       q    Type
REMARK                         _______ _______ _______ _____ _____    ______ ____
ROOT
ATOM      1  N   UNL     1       2.374   6.097  19.943  0.00  0.00    +0.000 N 
ATOM      2  C   UNL     1       3.491   5.973  19.165  0.00  0.00    +0.000 A 
ATOM      3  N   UNL     1       3.765   6.733  18.125  0.00  0.00    +0.000 NA
ATOM      4  C   UNL     1       4.872   6.187  17.580  0.00  0.00    +0.000 A 
ATOM      5  C   UNL     1       5.548   6.521  16.404  0.00  0.00    +0.000 A 
ATOM      6  C   UNL     1       6.670   5.769  16.044  0.00  0.00    +0.000 A 
ATOM      7  C   UNL     1       7.105   4.712  16.851  0.00  0.00    +0.000 A 
ATOM      8  C   UNL     1       6.440   4.364  18.045  0.00  0.00    +0.000 A 
ATOM      9  C   UNL     1       5.322   5.129  18.361  0.00  0.00    +0.000 A 
ATOM     10  O   UNL     1       4.436   4.998  19.410  0.00  0.00    +0.000 OA
ENDROOT
BRANCH   1  11
ATOM     11  C   UNL     1       2.258   5.298  21.174  0.00  0.00    +0.000 C 
BRANCH  11  12
ATOM     12  C   UNL     1       1.627   3.894  21.018  0.00  0.00    +0.000 C 
BRANCH  12  13
ATOM     13  C   UNL     1       0.654   3.607  19.864  0.00  0.00    +0.000 C 
BRANCH  13  14
ATOM     14  C   UNL     1       1.008   2.348  19.075  0.00  0.00    +0.000 C 
BRANCH  14  15
ATOM     15  C   UNL     1       2.491   1.993  19.209  0.00  0.00    +0.000 C 
BRANCH  15  17
ATOM     16  C   UNL     1       2.737   3.122  16.987  0.00  0.00    +0.000 C 
ATOM     17  C   UNL     1       3.224   1.977  17.866  0.00  0.00    +0.000 C 
ENDBRANCH  15  17
ENDBRANCH  14  15
ENDBRANCH  13  14
ENDBRANCH  12  13
ENDBRANCH  11  12
ENDBRANCH   1  11
BRANCH   1  18
ATOM     18  C   UNL     1       1.810   7.468  19.879  0.00  0.00    +0.000 C 
BRANCH  18  19
ATOM     19  C   UNL     1       1.525   8.065  21.277  0.00  0.00    +0.000 C 
BRANCH  19  20
ATOM     20  C   UNL     1       0.513   9.186  21.203  0.00  0.00    +0.000 A 
ATOM     21  C   UNL     1       0.161   9.786  19.988  0.00  0.00    +0.000 A 
ATOM     22  C   UNL     1      -0.625  10.944  19.976  0.00  0.00    +0.000 A 
ATOM     23  C   UNL     1      -1.109  11.486  21.171  0.00  0.00    +0.000 A 
ATOM     24  C   UNL     1      -0.838  10.819  22.361  0.00  0.00    +0.000 A 
ATOM     25  C   UNL     1      -0.029   9.687  22.382  0.00  0.00    +0.000 A 
BRANCH  23  26
ATOM     26  O   UNL     1      -1.709  12.701  21.056  0.00  0.00    +0.000 OA
BRANCH  26  27
ATOM     27  C   UNL     1      -1.262  13.857  21.786  0.00  0.00    +0.000 C 
ATOM     28  C   UNL     1      -2.084  15.108  21.420  0.00  0.00    +0.000 C 
BRANCH  27  29
ATOM     29  C   UNL     1      -1.071  13.642  23.319  0.00  0.00    +0.000 C 
ATOM     30  C   UNL     1      -1.601  14.732  24.255  0.00  0.00    +0.000 C 
ENDBRANCH  27  29
BRANCH  27  31
ATOM     31  C   UNL     1       0.136  14.129  21.210  0.00  0.00    +0.000 C 
ATOM     32  O   UNL     1       0.360  14.428  20.026  0.00  0.00    +0.000 OA
BRANCH  31  33
ATOM     33  O   UNL     1       1.172  14.025  22.101  0.00  0.00    +0.000 OA
ATOM     34  H   UNL     1       1.079  14.745  22.764  0.00  0.00    +0.000 HD
ENDBRANCH  31  33
ENDBRANCH  27  31
ENDBRANCH  26  27
ENDBRANCH  23  26
ENDBRANCH  19  20
ENDBRANCH  18  19
ENDBRANCH   1  18
TORSDOF 14
ENDMDL
MODEL 7
REMARK VINA RESULT:      -6.9      4.127     10.299
REMARK  Name = 
REMARK  17 active torsions:
REMARK  status: ('A' for Active; 'I' for Inactive)
REMARK    1  A    between atoms: C_1  and  C_2
REMARK    2  A    between atoms: C_2  and  C_3
REMARK    3  A    between atoms: C_3  and  C_4
REMARK    4  A    between atoms: C_4  and  C_5
REMARK    5  A    between atoms: C_5  and  C_6
REMARK    6  A    between atoms: C_6  and  C_7
REMARK    7  A    between atoms: C_7  and  N_8
REMARK    8  A    between atoms: N_8  and  C_9
REMARK    9  A    between atoms: C_9  and  C_10
REMARK   10  A    between atoms: C_10  and  C_11
REMARK   11  A    between atoms: C_14  and  O_15
REMARK   12  A    between atoms: O_15  and  C_16
REMARK   13  A    between atoms: C_16  and  C_17
REMARK   14  A    between atoms: C_16  and  C_18
REMARK   15  A    between atoms: C_16  and  C_20
REMARK   16  A    between atoms: C_18  and  C_19
REMARK   17  A    between atoms: C_20  and  O_22
REMARK                            x       y       z     vdW  Elec       q    Type
REMARK                         _______ _______ _______ _____ _____    ______ ____
ROOT
ATOM      1  N   UNL     1       0.184  11.533  19.854  0.00  0.00    +0.000 N 
ATOM      2  C   UNL     1      -0.964  11.354  19.133  0.00  0.00    +0.000 A 
ATOM      3  N   UNL     1      -1.051  10.634  18.034  0.00  0.00    +0.000 NA
ATOM      4  C   UNL     1      -2.308  10.838  17.586  0.00  0.00    +0.000 A 
ATOM      5  C   UNL     1      -2.919  10.401  16.409  0.00  0.00    +0.000 A 
ATOM      6  C   UNL     1      -4.243  10.780  16.166  0.00  0.00    +0.000 A 
ATOM      7  C   UNL     1      -4.936  11.571  17.089  0.00  0.00    +0.000 A 
ATOM      8  C   UNL     1      -4.338  12.016  18.285  0.00  0.00    +0.000 A 
ATOM      9  C   UNL     1      -3.016  11.628  18.484  0.00  0.00    +0.000 A 
ATOM     10  O   UNL     1      -2.150  11.950  19.507  0.00  0.00    +0.000 OA
ENDROOT
BRANCH   1  11
ATOM     11  C   UNL     1       0.123  12.224  21.152  0.00  0.00    +0.000 C 
BRANCH  11  12
ATOM     12  C   UNL     1      -0.819  11.603  22.211  0.00  0.00    +0.000 C 
BRANCH  12  13
ATOM     13  C   UNL     1      -1.623  12.508  23.157  0.00  0.00    +0.000 C 
BRANCH  13  14
ATOM     14  C   UNL     1      -3.126  12.248  23.108  0.00  0.00    +0.000 C 
BRANCH  14  15
ATOM     15  C   UNL     1      -3.852  13.279  22.238  0.00  0.00    +0.000 C 
BRANCH  15  17
ATOM     16  C   UNL     1      -6.280  13.895  22.185  0.00  0.00    +0.000 C 
ATOM     17  C   UNL     1      -5.255  12.827  21.825  0.00  0.00    +0.000 C 
ENDBRANCH  15  17
ENDBRANCH  14  15
ENDBRANCH  13  14
ENDBRANCH  12  13
ENDBRANCH  11  12
ENDBRANCH   1  11
BRANCH   1  18
ATOM     18  C   UNL     1       1.148  10.426  19.634  0.00  0.00    +0.000 C 
BRANCH  18  19
ATOM     19  C   UNL     1       0.940   9.247  20.612  0.00  0.00    +0.000 C 
BRANCH  19  20
ATOM     20  C   UNL     1       1.563   7.975  20.084  0.00  0.00    +0.000 A 
ATOM     21  C   UNL     1       1.541   6.781  20.817  0.00  0.00    +0.000 A 
ATOM     22  C   UNL     1       2.294   5.680  20.391  0.00  0.00    +0.000 A 
ATOM     23  C   UNL     1       3.034   5.741  19.207  0.00  0.00    +0.000 A 
ATOM     24  C   UNL     1       2.962   6.897  18.436  0.00  0.00    +0.000 A 
ATOM     25  C   UNL     1       2.244   8.007  18.871  0.00  0.00    +0.000 A 
BRANCH  23  26
ATOM     26  O   UNL     1       3.861   4.684  18.984  0.00  0.00    +0.000 OA
BRANCH  26  27
ATOM     27  C   UNL     1       3.580   3.676  17.997  0.00  0.00    +0.000 C 
ATOM     28  C   UNL     1       2.114   3.742  17.525  0.00  0.00    +0.000 C 
BRANCH  27  29
ATOM     29  C   UNL     1       4.622   3.569  16.840  0.00  0.00    +0.000 C 
ATOM     30  C   UNL     1       5.081   4.874  16.182  0.00  0.00    +0.000 C 
ENDBRANCH  27  29
BRANCH  27  31
ATOM     31  C   UNL     1       3.674   2.362  18.787  0.00  0.00    +0.000 C 
ATOM     32  O   UNL     1       4.436   2.176  19.749  0.00  0.00    +0.000 OA
BRANCH  31  33
ATOM     33  O   UNL     1       2.840   1.359  18.366  0.00  0.00    +0.000 OA
ATOM     34  H   UNL     1       2.108   1.277  19.018  0.00  0.00    +0.000 HD
ENDBRANCH  31  33
ENDBRANCH  27  31
ENDBRANCH  26  27
ENDBRANCH  23  26
ENDBRANCH  19  20
ENDBRANCH  18  19
ENDBRANCH   1  18
TORSDOF 14
ENDMDL
MODEL 8
REMARK VINA RESULT:      -6.9      3.228      5.865
REMARK  Name = 
REMARK  17 active torsions:
REMARK  status: ('A' for Active; 'I' for Inactive)
REMARK    1  A    between atoms: C_1  and  C_2
REMARK    2  A    between atoms: C_2  and  C_3
REMARK    3  A    between atoms: C_3  and  C_4
REMARK    4  A    between atoms: C_4  and  C_5
REMARK    5  A    between atoms: C_5  and  C_6
REMARK    6  A    between atoms: C_6  and  C_7
REMARK    7  A    between atoms: C_7  and  N_8
REMARK    8  A    between atoms: N_8  and  C_9
REMARK    9  A    between atoms: C_9  and  C_10
REMARK   10  A    between atoms: C_10  and  C_11
REMARK   11  A    between atoms: C_14  and  O_15
REMARK   12  A    between atoms: O_15  and  C_16
REMARK   13  A    between atoms: C_16  and  C_17
REMARK   14  A    between atoms: C_16  and  C_18
REMARK   15  A    between atoms: C_16  and  C_20
REMARK   16  A    between atoms: C_18  and  C_19
REMARK   17  A    between atoms: C_20  and  O_22
REMARK                            x       y       z     vdW  Elec       q    Type
REMARK                         _______ _______ _______ _____ _____    ______ ____
ROOT
ATOM      1  N   UNL     1       2.233   6.582  19.567  0.00  0.00    +0.000 N 
ATOM      2  C   UNL     1       3.414   6.327  18.927  0.00  0.00    +0.000 A 
ATOM      3  N   UNL     1       3.880   7.025  17.912  0.00  0.00    +0.000 NA
ATOM      4  C   UNL     1       4.983   6.359  17.511  0.00  0.00    +0.000 A 
ATOM      5  C   UNL     1       5.819   6.590  16.417  0.00  0.00    +0.000 A 
ATOM      6  C   UNL     1       6.894   5.722  16.205  0.00  0.00    +0.000 A 
ATOM      7  C   UNL     1       7.126   4.653  17.078  0.00  0.00    +0.000 A 
ATOM      8  C   UNL     1       6.297   4.408  18.191  0.00  0.00    +0.000 A 
ATOM      9  C   UNL     1       5.232   5.286  18.359  0.00  0.00    +0.000 A 
ATOM     10  O   UNL     1       4.223   5.274  19.300  0.00  0.00    +0.000 OA
ENDROOT
BRANCH   1  11
ATOM     11  C   UNL     1       1.897   5.836  20.790  0.00  0.00    +0.000 C 
BRANCH  11  12
ATOM     12  C   UNL     1       1.104   4.522  20.590  0.00  0.00    +0.000 C 
BRANCH  12  13
ATOM     13  C   UNL     1       1.542   3.237  21.309  0.00  0.00    +0.000 C 
BRANCH  13  14
ATOM     14  C   UNL     1       2.542   2.408  20.508  0.00  0.00    +0.000 C 
BRANCH  14  15
ATOM     15  C   UNL     1       1.984   2.013  19.138  0.00  0.00    +0.000 C 
BRANCH  15  17
ATOM     16  C   UNL     1       2.565   3.261  17.045  0.00  0.00    +0.000 C 
ATOM     17  C   UNL     1       3.007   2.169  18.010  0.00  0.00    +0.000 C 
ENDBRANCH  15  17
ENDBRANCH  14  15
ENDBRANCH  13  14
ENDBRANCH  12  13
ENDBRANCH  11  12
ENDBRANCH   1  11
BRANCH   1  18
ATOM     18  C   UNL     1       1.819   7.999  19.411  0.00  0.00    +0.000 C 
BRANCH  18  19
ATOM     19  C   UNL     1       1.219   8.594  20.706  0.00  0.00    +0.000 C 
BRANCH  19  20
ATOM     20  C   UNL     1       0.490   9.890  20.433  0.00  0.00    +0.000 A 
ATOM     21  C   UNL     1       0.800  11.071  21.120  0.00  0.00    +0.000 A 
ATOM     22  C   UNL     1      -0.020  12.198  20.986  0.00  0.00    +0.000 A 
ATOM     23  C   UNL     1      -1.125  12.175  20.129  0.00  0.00    +0.000 A 
ATOM     24  C   UNL     1      -1.358  11.030  19.375  0.00  0.00    +0.000 A 
ATOM     25  C   UNL     1      -0.568   9.894  19.530  0.00  0.00    +0.000 A 
BRANCH  23  26
ATOM     26  O   UNL     1      -1.945  13.257  20.211  0.00  0.00    +0.000 OA
BRANCH  26  27
ATOM     27  C   UNL     1      -3.220  13.213  20.875  0.00  0.00    +0.000 C 
ATOM     28  C   UNL     1      -4.329  12.705  19.933  0.00  0.00    +0.000 C 
BRANCH  27  29
ATOM     29  C   UNL     1      -3.215  12.537  22.281  0.00  0.00    +0.000 C 
ATOM     30  C   UNL     1      -2.518  13.287  23.421  0.00  0.00    +0.000 C 
ENDBRANCH  27  29
BRANCH  27  31
ATOM     31  C   UNL     1      -3.557  14.693  21.108  0.00  0.00    +0.000 C 
ATOM     32  O   UNL     1      -2.758  15.628  20.944  0.00  0.00    +0.000 OA
BRANCH  31  33
ATOM     33  O   UNL     1      -4.840  14.949  21.519  0.00  0.00    +0.000 OA
ATOM     34  H   UNL     1      -5.046  14.347  22.268  0.00  0.00    +0.000 HD
ENDBRANCH  31  33
ENDBRANCH  27  31
ENDBRANCH  26  27
ENDBRANCH  23  26
ENDBRANCH  19  20
ENDBRANCH  18  19
ENDBRANCH   1  18
TORSDOF 14
ENDMDL
MODEL 9
REMARK VINA RESULT:      -6.9      2.704      5.772
REMARK  Name = 
REMARK  17 active torsions:
REMARK  status: ('A' for Active; 'I' for Inactive)
REMARK    1  A    between atoms: C_1  and  C_2
REMARK    2  A    between atoms: C_2  and  C_3
REMARK    3  A    between atoms: C_3  and  C_4
REMARK    4  A    between atoms: C_4  and  C_5
REMARK    5  A    between atoms: C_5  and  C_6
REMARK    6  A    between atoms: C_6  and  C_7
REMARK    7  A    between atoms: C_7  and  N_8
REMARK    8  A    between atoms: N_8  and  C_9
REMARK    9  A    between atoms: C_9  and  C_10
REMARK   10  A    between atoms: C_10  and  C_11
REMARK   11  A    between atoms: C_14  and  O_15
REMARK   12  A    between atoms: O_15  and  C_16
REMARK   13  A    between atoms: C_16  and  C_17
REMARK   14  A    between atoms: C_16  and  C_18
REMARK   15  A    between atoms: C_16  and  C_20
REMARK   16  A    between atoms: C_18  and  C_19
REMARK   17  A    between atoms: C_20  and  O_22
REMARK                            x       y       z     vdW  Elec       q    Type
REMARK                         _______ _______ _______ _____ _____    ______ ____
ROOT
ATOM      1  N   UNL     1       3.760   7.050  17.799  0.00  0.00    +0.000 N 
ATOM      2  C   UNL     1       3.071   5.970  18.275  0.00  0.00    +0.000 A 
ATOM      3  N   UNL     1       2.320   5.980  19.358  0.00  0.00    +0.000 NA
ATOM      4  C   UNL     1       1.945   4.696  19.531  0.00  0.00    +0.000 A 
ATOM      5  C   UNL     1       1.224   4.108  20.572  0.00  0.00    +0.000 A 
ATOM      6  C   UNL     1       0.991   2.730  20.526  0.00  0.00    +0.000 A 
ATOM      7  C   UNL     1       1.464   1.966  19.454  0.00  0.00    +0.000 A 
ATOM      8  C   UNL     1       2.188   2.542  18.391  0.00  0.00    +0.000 A 
ATOM      9  C   UNL     1       2.410   3.913  18.481  0.00  0.00    +0.000 A 
ATOM     10  O   UNL     1       3.127   4.744  17.646  0.00  0.00    +0.000 OA
ENDROOT
BRANCH   1  11
ATOM     11  C   UNL     1       4.433   6.960  16.493  0.00  0.00    +0.000 C 
BRANCH  11  12
ATOM     12  C   UNL     1       5.845   6.329  16.496  0.00  0.00    +0.000 C 
BRANCH  12  13
ATOM     13  C   UNL     1       6.068   4.928  15.905  0.00  0.00    +0.000 C 
BRANCH  13  14
ATOM     14  C   UNL     1       6.453   4.950  14.428  0.00  0.00    +0.000 C 
BRANCH  14  15
ATOM     15  C   UNL     1       5.628   3.951  13.611  0.00  0.00    +0.000 C 
BRANCH  15  17
ATOM     16  C   UNL     1       5.528   2.405  11.643  0.00  0.00    +0.000 C 
ATOM     17  C   UNL     1       6.345   3.483  12.343  0.00  0.00    +0.000 C 
ENDBRANCH  15  17
ENDBRANCH  14  15
ENDBRANCH  13  14
ENDBRANCH  12  13
ENDBRANCH  11  12
ENDBRANCH   1  11
BRANCH   1  18
ATOM     18  C   UNL     1       3.157   8.329  18.250  0.00  0.00    +0.000 C 
BRANCH  18  19
ATOM     19  C   UNL     1       1.877   8.697  17.465  0.00  0.00    +0.000 C 
BRANCH  19  20
ATOM     20  C   UNL     1       0.855   9.366  18.356  0.00  0.00    +0.000 A 
ATOM     21  C   UNL     1      -0.323   9.922  17.843  0.00  0.00    +0.000 A 
ATOM     22  C   UNL     1      -1.148  10.702  18.661  0.00  0.00    +0.000 A 
ATOM     23  C   UNL     1      -0.834  10.894  20.010  0.00  0.00    +0.000 A 
ATOM     24  C   UNL     1       0.283  10.249  20.531  0.00  0.00    +0.000 A 
ATOM     25  C   UNL     1       1.126   9.501  19.714  0.00  0.00    +0.000 A 
BRANCH  23  26
ATOM     26  O   UNL     1      -1.604  11.807  20.662  0.00  0.00    +0.000 OA
BRANCH  26  27
ATOM     27  C   UNL     1      -1.165  13.153  20.909  0.00  0.00    +0.000 C 
ATOM     28  C   UNL     1      -0.676  13.330  22.360  0.00  0.00    +0.000 C 
BRANCH  27  29
ATOM     29  C   UNL     1      -0.205  13.748  19.833  0.00  0.00    +0.000 C 
ATOM     30  C   UNL     1       1.276  13.874  20.201  0.00  0.00    +0.000 C 
ENDBRANCH  27  29
BRANCH  27  31
ATOM     31  C   UNL     1      -2.461  13.975  20.835  0.00  0.00    +0.000 C 
ATOM     32  O   UNL     1      -2.654  15.036  21.448  0.00  0.00    +0.000 OA
BRANCH  31  33
ATOM     33  O   UNL     1      -3.439  13.462  20.022  0.00  0.00    +0.000 OA
ATOM     34  H   UNL     1      -3.001  12.986  19.281  0.00  0.00    +0.000 HD
ENDBRANCH  31  33
ENDBRANCH  27  31
ENDBRANCH  26  27
ENDBRANCH  23  26
ENDBRANCH  19  20
ENDBRANCH  18  19
ENDBRANCH   1  18
TORSDOF 14
ENDMDL
