MODEL 1
REMARK VINA RESULT:      -7.4      0.000      0.000
REMARK  Name = 
REMARK  5 active torsions:
REMARK  status: ('A' for Active; 'I' for Inactive)
REMARK    1  A    between atoms: C_1  and  C_2
REMARK    2  A    between atoms: C_4  and  C_5
REMARK    3  A    between atoms: C_6  and  S_7
REMARK    4  A    between atoms: S_7  and  N_10
REMARK    5  A    between atoms: C_18  and  C_19
REMARK                            x       y       z     vdW  Elec       q    Type
REMARK                         _______ _______ _______ _____ _____    ______ ____
ROOT
ATOM      1  S   UNL     1       4.822   4.369  19.228  0.00  0.00    +0.000 S 
ATOM      2  O   UNL     1       4.957   3.066  19.847  0.00  0.00    +0.000 OA
ATOM      3  O   UNL     1       5.417   5.525  19.862  0.00  0.00    +0.000 OA
ENDROOT
BRANCH   1   9
ATOM      4  C   UNL     1       6.808   4.360  13.423  0.00  0.00    +0.000 C 
ATOM      5  C   UNL     1       6.339   4.354  14.848  0.00  0.00    +0.000 A 
ATOM      6  C   UNL     1       7.171   4.761  15.890  0.00  0.00    +0.000 A 
ATOM      7  C   UNL     1       6.733   4.755  17.230  0.00  0.00    +0.000 A 
ATOM      8  C   UNL     1       7.733   5.181  18.273  0.00  0.00    +0.000 C 
ATOM      9  C   UNL     1       5.409   4.332  17.525  0.00  0.00    +0.000 A 
ATOM     10  C   UNL     1       4.577   3.860  16.480  0.00  0.00    +0.000 A 
ATOM     11  C   UNL     1       3.188   3.307  16.650  0.00  0.00    +0.000 C 
ATOM     12  C   UNL     1       5.053   3.911  15.153  0.00  0.00    +0.000 A 
ENDBRANCH   1   9
BRANCH   1  13
ATOM     13  N   UNL     1       3.182   4.668  19.136  0.00  0.00    +0.000 N 
ATOM     14  C   UNL     1       2.761   6.005  19.114  0.00  0.00    +0.000 A 
ATOM     15  C   UNL     1       2.795   6.784  17.966  0.00  0.00    +0.000 A 
ATOM     16  C   UNL     1       2.280   8.080  18.035  0.00  0.00    +0.000 A 
ATOM     17  C   UNL     1       1.756   8.538  19.240  0.00  0.00    +0.000 A 
ATOM     18 CL   UNL     1       1.096  10.114  19.369  0.00  0.00    +0.000 Cl
ATOM     19  C   UNL     1       1.771   7.680  20.331  0.00  0.00    +0.000 A 
ATOM     20  N   UNL     1       2.258   6.417  20.290  0.00  0.00    +0.000 NA
ATOM     21  H   UNL     1       2.692   4.012  18.536  0.00  0.00    +0.000 HD
ENDBRANCH   1  13
TORSDOF 2
ENDMDL
MODEL 2
REMARK VINA RESULT:      -7.2      0.357      1.980
REMARK  Name = 
REMARK  5 active torsions:
REMARK  status: ('A' for Active; 'I' for Inactive)
REMARK    1  A    between atoms: C_1  and  C_2
REMARK    2  A    between atoms: C_4  and  C_5
REMARK    3  A    between atoms: C_6  and  S_7
REMARK    4  A    between atoms: S_7  and  N_10
REMARK    5  A    between atoms: C_18  and  C_19
REMARK                            x       y       z     vdW  Elec       q    Type
REMARK                         _______ _______ _______ _____ _____    ______ ____
ROOT
ATOM      1  S   UNL     1       4.943   4.544  19.120  0.00  0.00    +0.000 S 
ATOM      2  O   UNL     1       5.100   3.213  19.671  0.00  0.00    +0.000 OA
ATOM      3  O   UNL     1       5.486   5.680  19.833  0.00  0.00    +0.000 OA
ENDROOT
BRANCH   1   9
ATOM      4  C   UNL     1       7.130   4.686  13.390  0.00  0.00    +0.000 C 
ATOM      5  C   UNL     1       6.577   4.656  14.785  0.00  0.00    +0.000 A 
ATOM      6  C   UNL     1       5.360   4.039  15.073  0.00  0.00    +0.000 A 
ATOM      7  C   UNL     1       4.840   4.011  16.382  0.00  0.00    +0.000 A 
ATOM      8  C   UNL     1       3.499   3.348  16.566  0.00  0.00    +0.000 C 
ATOM      9  C   UNL     1       5.575   4.619  17.435  0.00  0.00    +0.000 A 
ATOM     10  C   UNL     1       6.782   5.300  17.142  0.00  0.00    +0.000 A 
ATOM     11  C   UNL     1       7.623   6.056  18.134  0.00  0.00    +0.000 C 
ATOM     12  C   UNL     1       7.274   5.277  15.820  0.00  0.00    +0.000 A 
ENDBRANCH   1   9
BRANCH   1  13
ATOM     13  N   UNL     1       3.298   4.801  19.001  0.00  0.00    +0.000 N 
ATOM     14  C   UNL     1       2.841   6.127  19.006  0.00  0.00    +0.000 A 
ATOM     15  C   UNL     1       2.877   6.938  17.881  0.00  0.00    +0.000 A 
ATOM     16  C   UNL     1       2.326   8.218  17.974  0.00  0.00    +0.000 A 
ATOM     17  C   UNL     1       1.763   8.626  19.179  0.00  0.00    +0.000 A 
ATOM     18 CL   UNL     1       1.057  10.180  19.337  0.00  0.00    +0.000 Cl
ATOM     19  C   UNL     1       1.778   7.739  20.246  0.00  0.00    +0.000 A 
ATOM     20  N   UNL     1       2.301   6.491  20.181  0.00  0.00    +0.000 NA
ATOM     21  H   UNL     1       2.839   4.149  18.371  0.00  0.00    +0.000 HD
ENDBRANCH   1  13
TORSDOF 2
ENDMDL
MODEL 3
REMARK VINA RESULT:      -6.8      3.494      5.848
REMARK  Name = 
REMARK  5 active torsions:
REMARK  status: ('A' for Active; 'I' for Inactive)
REMARK    1  A    between atoms: C_1  and  C_2
REMARK    2  A    between atoms: C_4  and  C_5
REMARK    3  A    between atoms: C_6  and  S_7
REMARK    4  A    between atoms: S_7  and  N_10
REMARK    5  A    between atoms: C_18  and  C_19
REMARK                            x       y       z     vdW  Elec       q    Type
REMARK                         _______ _______ _______ _____ _____    ______ ____
ROOT
ATOM      1  S   UNL     1       5.973   4.989  18.651  0.00  0.00    +0.000 S 
ATOM      2  O   UNL     1       6.422   5.850  19.727  0.00  0.00    +0.000 OA
ATOM      3  O   UNL     1       6.744   3.814  18.308  0.00  0.00    +0.000 OA
ENDROOT
BRANCH   1   9
ATOM      4  C   UNL     1       0.201   3.090  19.498  0.00  0.00    +0.000 C 
ATOM      5  C   UNL     1       1.617   3.548  19.309  0.00  0.00    +0.000 A 
ATOM      6  C   UNL     1       2.697   2.753  19.689  0.00  0.00    +0.000 A 
ATOM      7  C   UNL     1       4.028   3.182  19.513  0.00  0.00    +0.000 A 
ATOM      8  C   UNL     1       5.111   2.252  19.996  0.00  0.00    +0.000 C 
ATOM      9  C   UNL     1       4.275   4.452  18.928  0.00  0.00    +0.000 A 
ATOM     10  C   UNL     1       3.185   5.293  18.594  0.00  0.00    +0.000 A 
ATOM     11  C   UNL     1       3.293   6.689  18.045  0.00  0.00    +0.000 C 
ATOM     12  C   UNL     1       1.872   4.807  18.765  0.00  0.00    +0.000 A 
ENDBRANCH   1   9
BRANCH   1  13
ATOM     13  N   UNL     1       5.930   5.946  17.284  0.00  0.00    +0.000 N 
ATOM     14  C   UNL     1       6.088   5.318  16.041  0.00  0.00    +0.000 A 
ATOM     15  C   UNL     1       5.055   4.651  15.399  0.00  0.00    +0.000 A 
ATOM     16  C   UNL     1       5.299   4.126  14.128  0.00  0.00    +0.000 A 
ATOM     17  C   UNL     1       6.556   4.292  13.557  0.00  0.00    +0.000 A 
ATOM     18 CL   UNL     1       6.898   3.683  11.992  0.00  0.00    +0.000 Cl
ATOM     19  C   UNL     1       7.522   4.974  14.282  0.00  0.00    +0.000 A 
ATOM     20  N   UNL     1       7.311   5.498  15.513  0.00  0.00    +0.000 NA
ATOM     21  H   UNL     1       5.250   6.697  17.347  0.00  0.00    +0.000 HD
ENDBRANCH   1  13
TORSDOF 2
ENDMDL
MODEL 4
REMARK VINA RESULT:      -6.6      3.477      5.916
REMARK  Name = 
REMARK  5 active torsions:
REMARK  status: ('A' for Active; 'I' for Inactive)
REMARK    1  A    between atoms: C_1  and  C_2
REMARK    2  A    between atoms: C_4  and  C_5
REMARK    3  A    between atoms: C_6  and  S_7
REMARK    4  A    between atoms: S_7  and  N_10
REMARK    5  A    between atoms: C_18  and  C_19
REMARK                            x       y       z     vdW  Elec       q    Type
REMARK                         _______ _______ _______ _____ _____    ______ ____
ROOT
ATOM      1  S   UNL     1       6.032   5.005  18.684  0.00  0.00    +0.000 S 
ATOM      2  O   UNL     1       6.543   5.864  19.733  0.00  0.00    +0.000 OA
ATOM      3  O   UNL     1       6.764   3.812  18.317  0.00  0.00    +0.000 OA
ENDROOT
BRANCH   1   9
ATOM      4  C   UNL     1       0.263   3.367  19.982  0.00  0.00    +0.000 C 
ATOM      5  C   UNL     1       1.668   3.774  19.647  0.00  0.00    +0.000 A 
ATOM      6  C   UNL     1       1.947   4.999  19.042  0.00  0.00    +0.000 A 
ATOM      7  C   UNL     1       3.266   5.382  18.726  0.00  0.00    +0.000 A 
ATOM      8  C   UNL     1       3.441   6.713  18.042  0.00  0.00    +0.000 C 
ATOM      9  C   UNL     1       4.337   4.503  19.038  0.00  0.00    +0.000 A 
ATOM     10  C   UNL     1       4.059   3.231  19.597  0.00  0.00    +0.000 A 
ATOM     11  C   UNL     1       5.078   2.168  19.903  0.00  0.00    +0.000 C 
ATOM     12  C   UNL     1       2.725   2.906  19.919  0.00  0.00    +0.000 A 
ENDBRANCH   1   9
BRANCH   1  13
ATOM     13  N   UNL     1       5.948   5.952  17.313  0.00  0.00    +0.000 N 
ATOM     14  C   UNL     1       6.100   5.319  16.070  0.00  0.00    +0.000 A 
ATOM     15  C   UNL     1       5.071   4.628  15.449  0.00  0.00    +0.000 A 
ATOM     16  C   UNL     1       5.306   4.100  14.177  0.00  0.00    +0.000 A 
ATOM     17  C   UNL     1       6.550   4.289  13.585  0.00  0.00    +0.000 A 
ATOM     18 CL   UNL     1       6.880   3.677  12.019  0.00  0.00    +0.000 Cl
ATOM     19  C   UNL     1       7.514   4.995  14.292  0.00  0.00    +0.000 A 
ATOM     20  N   UNL     1       7.311   5.522  15.523  0.00  0.00    +0.000 NA
ATOM     21  H   UNL     1       5.253   6.690  17.381  0.00  0.00    +0.000 HD
ENDBRANCH   1  13
TORSDOF 2
ENDMDL
MODEL 5
REMARK VINA RESULT:      -6.2      3.335      5.865
REMARK  Name = 
REMARK  5 active torsions:
REMARK  status: ('A' for Active; 'I' for Inactive)
REMARK    1  A    between atoms: C_1  and  C_2
REMARK    2  A    between atoms: C_4  and  C_5
REMARK    3  A    between atoms: C_6  and  S_7
REMARK    4  A    between atoms: S_7  and  N_10
REMARK    5  A    between atoms: C_18  and  C_19
REMARK                            x       y       z     vdW  Elec       q    Type
REMARK                         _______ _______ _______ _____ _____    ______ ____
ROOT
ATOM      1  S   UNL     1       6.059   5.360  18.735  0.00  0.00    +0.000 S 
ATOM      2  O   UNL     1       6.056   6.562  17.926  0.00  0.00    +0.000 OA
ATOM      3  O   UNL     1       6.714   5.370  20.025  0.00  0.00    +0.000 OA
ENDROOT
BRANCH   1   9
ATOM      4  C   UNL     1       0.333   3.381  19.705  0.00  0.00    +0.000 C 
ATOM      5  C   UNL     1       1.728   3.871  19.450  0.00  0.00    +0.000 A 
ATOM      6  C   UNL     1       1.968   5.100  18.837  0.00  0.00    +0.000 A 
ATOM      7  C   UNL     1       3.278   5.561  18.596  0.00  0.00    +0.000 A 
ATOM      8  C   UNL     1       3.412   6.888  17.896  0.00  0.00    +0.000 C 
ATOM      9  C   UNL     1       4.380   4.758  18.993  0.00  0.00    +0.000 A 
ATOM     10  C   UNL     1       4.147   3.480  19.560  0.00  0.00    +0.000 A 
ATOM     11  C   UNL     1       5.209   2.490  19.952  0.00  0.00    +0.000 C 
ATOM     12  C   UNL     1       2.818   3.076  19.805  0.00  0.00    +0.000 A 
ENDBRANCH   1   9
BRANCH   1  13
ATOM     13  N   UNL     1       6.825   4.192  17.822  0.00  0.00    +0.000 N 
ATOM     14  C   UNL     1       6.647   4.227  16.431  0.00  0.00    +0.000 A 
ATOM     15  C   UNL     1       7.350   5.091  15.605  0.00  0.00    +0.000 A 
ATOM     16  C   UNL     1       7.152   4.991  14.226  0.00  0.00    +0.000 A 
ATOM     17  C   UNL     1       6.268   4.034  13.737  0.00  0.00    +0.000 A 
ATOM     18 CL   UNL     1       6.006   3.860  12.052  0.00  0.00    +0.000 Cl
ATOM     19  C   UNL     1       5.613   3.218  14.648  0.00  0.00    +0.000 A 
ATOM     20  N   UNL     1       5.790   3.290  15.989  0.00  0.00    +0.000 NA
ATOM     21  H   UNL     1       7.750   3.960  18.170  0.00  0.00    +0.000 HD
ENDBRANCH   1  13
TORSDOF 2
ENDMDL
MODEL 6
REMARK VINA RESULT:      -6.2      3.322      5.773
REMARK  Name = 
REMARK  5 active torsions:
REMARK  status: ('A' for Active; 'I' for Inactive)
REMARK    1  A    between atoms: C_1  and  C_2
REMARK    2  A    between atoms: C_4  and  C_5
REMARK    3  A    between atoms: C_6  and  S_7
REMARK    4  A    between atoms: S_7  and  N_10
REMARK    5  A    between atoms: C_18  and  C_19
REMARK                            x       y       z     vdW  Elec       q    Type
REMARK                         _______ _______ _______ _____ _____    ______ ____
ROOT
ATOM      1  S   UNL     1       5.959   5.280  18.713  0.00  0.00    +0.000 S 
ATOM      2  O   UNL     1       5.980   6.522  17.967  0.00  0.00    +0.000 OA
ATOM      3  O   UNL     1       6.528   5.236  20.042  0.00  0.00    +0.000 OA
ENDROOT
BRANCH   1   9
ATOM      4  C   UNL     1       0.273   2.997  19.009  0.00  0.00    +0.000 C 
ATOM      5  C   UNL     1       1.666   3.549  18.955  0.00  0.00    +0.000 A 
ATOM      6  C   UNL     1       2.756   2.825  19.438  0.00  0.00    +0.000 A 
ATOM      7  C   UNL     1       4.066   3.344  19.388  0.00  0.00    +0.000 A 
ATOM      8  C   UNL     1       5.158   2.485  19.973  0.00  0.00    +0.000 C 
ATOM      9  C   UNL     1       4.283   4.630  18.827  0.00  0.00    +0.000 A 
ATOM     10  C   UNL     1       3.175   5.398  18.389  0.00  0.00    +0.000 A 
ATOM     11  C   UNL     1       3.242   6.801  17.851  0.00  0.00    +0.000 C 
ATOM     12  C   UNL     1       1.888   4.824  18.435  0.00  0.00    +0.000 A 
ENDBRANCH   1   9
BRANCH   1  13
ATOM     13  N   UNL     1       6.812   4.177  17.794  0.00  0.00    +0.000 N 
ATOM     14  C   UNL     1       6.669   4.237  16.401  0.00  0.00    +0.000 A 
ATOM     15  C   UNL     1       7.346   5.158  15.614  0.00  0.00    +0.000 A 
ATOM     16  C   UNL     1       7.190   5.080  14.229  0.00  0.00    +0.000 A 
ATOM     17  C   UNL     1       6.373   4.090  13.693  0.00  0.00    +0.000 A 
ATOM     18 CL   UNL     1       6.166   3.943  11.998  0.00  0.00    +0.000 Cl
ATOM     19  C   UNL     1       5.739   3.218  14.566  0.00  0.00    +0.000 A 
ATOM     20  N   UNL     1       5.876   3.267  15.913  0.00  0.00    +0.000 NA
ATOM     21  H   UNL     1       7.739   3.987  18.163  0.00  0.00    +0.000 HD
ENDBRANCH   1  13
TORSDOF 2
ENDMDL
MODEL 7
REMARK VINA RESULT:      -6.1      3.031      5.633
REMARK  Name = 
REMARK  5 active torsions:
REMARK  status: ('A' for Active; 'I' for Inactive)
REMARK    1  A    between atoms: C_1  and  C_2
REMARK    2  A    between atoms: C_4  and  C_5
REMARK    3  A    between atoms: C_6  and  S_7
REMARK    4  A    between atoms: S_7  and  N_10
REMARK    5  A    between atoms: C_18  and  C_19
REMARK                            x       y       z     vdW  Elec       q    Type
REMARK                         _______ _______ _______ _____ _____    ______ ____
ROOT
ATOM      1  S   UNL     1       2.651   3.116  17.906  0.00  0.00    +0.000 S 
ATOM      2  O   UNL     1       1.953   1.962  18.436  0.00  0.00    +0.000 OA
ATOM      3  O   UNL     1       2.453   3.498  16.525  0.00  0.00    +0.000 OA
ENDROOT
BRANCH   1   9
ATOM      4  C   UNL     1       1.452   8.072  21.318  0.00  0.00    +0.000 C 
ATOM      5  C   UNL     1       1.754   6.852  20.499  0.00  0.00    +0.000 A 
ATOM      6  C   UNL     1       1.545   5.568  21.001  0.00  0.00    +0.000 A 
ATOM      7  C   UNL     1       1.829   4.420  20.233  0.00  0.00    +0.000 A 
ATOM      8  C   UNL     1       1.597   3.087  20.894  0.00  0.00    +0.000 C 
ATOM      9  C   UNL     1       2.333   4.575  18.914  0.00  0.00    +0.000 A 
ATOM     10  C   UNL     1       2.605   5.874  18.417  0.00  0.00    +0.000 A 
ATOM     11  C   UNL     1       3.213   6.188  17.078  0.00  0.00    +0.000 C 
ATOM     12  C   UNL     1       2.279   6.991  19.215  0.00  0.00    +0.000 A 
ENDBRANCH   1   9
BRANCH   1  13
ATOM     13  N   UNL     1       4.279   2.790  18.080  0.00  0.00    +0.000 N 
ATOM     14  C   UNL     1       5.153   3.878  18.221  0.00  0.00    +0.000 A 
ATOM     15  C   UNL     1       5.332   4.546  19.424  0.00  0.00    +0.000 A 
ATOM     16  C   UNL     1       6.284   5.567  19.473  0.00  0.00    +0.000 A 
ATOM     17  C   UNL     1       7.012   5.871  18.328  0.00  0.00    +0.000 A 
ATOM     18 CL   UNL     1       8.204   7.102  18.345  0.00  0.00    +0.000 Cl
ATOM     19  C   UNL     1       6.756   5.143  17.174  0.00  0.00    +0.000 A 
ATOM     20  N   UNL     1       5.843   4.145  17.099  0.00  0.00    +0.000 NA
ATOM     21  H   UNL     1       4.460   1.967  18.646  0.00  0.00    +0.000 HD
ENDBRANCH   1  13
TORSDOF 2
ENDMDL
MODEL 8
REMARK VINA RESULT:      -6.1      5.809      7.358
REMARK  Name = 
REMARK  5 active torsions:
REMARK  status: ('A' for Active; 'I' for Inactive)
REMARK    1  A    between atoms: C_1  and  C_2
REMARK    2  A    between atoms: C_4  and  C_5
REMARK    3  A    between atoms: C_6  and  S_7
REMARK    4  A    between atoms: S_7  and  N_10
REMARK    5  A    between atoms: C_18  and  C_19
REMARK                            x       y       z     vdW  Elec       q    Type
REMARK                         _______ _______ _______ _____ _____    ______ ____
ROOT
ATOM      1  S   UNL     1       0.635  11.208  20.052  0.00  0.00    +0.000 S 
ATOM      2  O   UNL     1       0.878  11.852  21.327  0.00  0.00    +0.000 OA
ATOM      3  O   UNL     1       1.228  11.755  18.851  0.00  0.00    +0.000 OA
ENDROOT
BRANCH   1   9
ATOM      4  C   UNL     1       2.241   5.295  20.361  0.00  0.00    +0.000 C 
ATOM      5  C   UNL     1       1.831   6.736  20.292  0.00  0.00    +0.000 A 
ATOM      6  C   UNL     1       1.125   7.343  21.331  0.00  0.00    +0.000 A 
ATOM      7  C   UNL     1       0.738   8.697  21.267  0.00  0.00    +0.000 A 
ATOM      8  C   UNL     1      -0.051   9.233  22.434  0.00  0.00    +0.000 C 
ATOM      9  C   UNL     1       1.081   9.463  20.122  0.00  0.00    +0.000 A 
ATOM     10  C   UNL     1       1.744   8.840  19.035  0.00  0.00    +0.000 A 
ATOM     11  C   UNL     1       2.096   9.500  17.731  0.00  0.00    +0.000 C 
ATOM     12  C   UNL     1       2.133   7.490  19.159  0.00  0.00    +0.000 A 
ENDBRANCH   1   9
BRANCH   1  13
ATOM     13  N   UNL     1      -1.018  11.246  19.825  0.00  0.00    +0.000 N 
ATOM     14  C   UNL     1      -1.511  10.933  18.550  0.00  0.00    +0.000 A 
ATOM     15  C   UNL     1      -1.650   9.630  18.097  0.00  0.00    +0.000 A 
ATOM     16  C   UNL     1      -2.223   9.427  16.840  0.00  0.00    +0.000 A 
ATOM     17  C   UNL     1      -2.632  10.530  16.096  0.00  0.00    +0.000 A 
ATOM     18 CL   UNL     1      -3.358  10.331  14.556  0.00  0.00    +0.000 Cl
ATOM     19  C   UNL     1      -2.447  11.793  16.639  0.00  0.00    +0.000 A 
ATOM     20  N   UNL     1      -1.900  12.018  17.858  0.00  0.00    +0.000 NA
ATOM     21  H   UNL     1      -1.537  10.898  20.626  0.00  0.00    +0.000 HD
ENDBRANCH   1  13
TORSDOF 2
ENDMDL
MODEL 9
REMARK VINA RESULT:      -6.1      3.660      6.149
REMARK  Name = 
REMARK  5 active torsions:
REMARK  status: ('A' for Active; 'I' for Inactive)
REMARK    1  A    between atoms: C_1  and  C_2
REMARK    2  A    between atoms: C_4  and  C_5
REMARK    3  A    between atoms: C_6  and  S_7
REMARK    4  A    between atoms: S_7  and  N_10
REMARK    5  A    between atoms: C_18  and  C_19
REMARK                            x       y       z     vdW  Elec       q    Type
REMARK                         _______ _______ _______ _____ _____    ______ ____
ROOT
ATOM      1  S   UNL     1       6.328   5.559  17.818  0.00  0.00    +0.000 S 
ATOM      2  O   UNL     1       7.004   6.591  18.577  0.00  0.00    +0.000 OA
ATOM      3  O   UNL     1       6.973   4.278  17.624  0.00  0.00    +0.000 OA
ENDROOT
BRANCH   1   9
ATOM      4  C   UNL     1       0.732   4.377  20.037  0.00  0.00    +0.000 C 
ATOM      5  C   UNL     1       2.108   4.661  19.511  0.00  0.00    +0.000 A 
ATOM      6  C   UNL     1       3.177   3.804  19.768  0.00  0.00    +0.000 A 
ATOM      7  C   UNL     1       4.471   4.070  19.276  0.00  0.00    +0.000 A 
ATOM      8  C   UNL     1       5.554   3.090  19.648  0.00  0.00    +0.000 C 
ATOM      9  C   UNL     1       4.690   5.235  18.494  0.00  0.00    +0.000 A 
ATOM     10  C   UNL     1       3.624   6.144  18.279  0.00  0.00    +0.000 A 
ATOM     11  C   UNL     1       3.725   7.453  17.545  0.00  0.00    +0.000 C 
ATOM     12  C   UNL     1       2.342   5.819  18.770  0.00  0.00    +0.000 A 
ENDBRANCH   1   9
BRANCH   1  13
ATOM     13  N   UNL     1       6.074   6.197  16.297  0.00  0.00    +0.000 N 
ATOM     14  C   UNL     1       6.200   5.337  15.196  0.00  0.00    +0.000 A 
ATOM     15  C   UNL     1       5.197   4.461  14.810  0.00  0.00    +0.000 A 
ATOM     16  C   UNL     1       5.394   3.703  13.653  0.00  0.00    +0.000 A 
ATOM     17  C   UNL     1       6.577   3.856  12.937  0.00  0.00    +0.000 A 
ATOM     18 CL   UNL     1       6.857   2.963  11.501  0.00  0.00    +0.000 Cl
ATOM     19  C   UNL     1       7.519   4.759  13.409  0.00  0.00    +0.000 A 
ATOM     20  N   UNL     1       7.351   5.510  14.524  0.00  0.00    +0.000 NA
ATOM     21  H   UNL     1       5.324   6.881  16.274  0.00  0.00    +0.000 HD
ENDBRANCH   1  13
TORSDOF 2
ENDMDL
