MODEL 1
REMARK VINA RESULT:      -7.4      0.000      0.000
REMARK  Name = 
REMARK  9 active torsions:
REMARK  status: ('A' for Active; 'I' for Inactive)
REMARK    1  A    between atoms: C_1  and  O_2
REMARK    2  A    between atoms: O_2  and  C_3
REMARK    3  A    between atoms: C_6  and  C_7
REMARK    4  A    between atoms: C_8  and  C_9
REMARK    5  A    between atoms: C_11  and  O_12
REMARK    6  A    between atoms: O_12  and  C_13
REMARK    7  A    between atoms: C_15  and  O_16
REMARK    8  A    between atoms: O_16  and  C_17
REMARK    9  A    between atoms: C_18  and  O_19
REMARK                            x       y       z     vdW  Elec       q    Type
REMARK                         _______ _______ _______ _____ _____    ______ ____
ROOT
ATOM      1  C   UNL     1       7.558   6.790  18.068  0.00  0.00    +0.000 A 
ATOM      2  C   UNL     1       7.219   6.743  16.709  0.00  0.00    +0.000 A 
ATOM      3  C   UNL     1       6.431   5.711  16.195  0.00  0.00    +0.000 A 
ATOM      4  C   UNL     1       5.989   4.691  17.037  0.00  0.00    +0.000 A 
ATOM      5  C   UNL     1       6.285   4.724  18.403  0.00  0.00    +0.000 A 
ATOM      6  C   UNL     1       7.061   5.775  18.911  0.00  0.00    +0.000 A 
ENDROOT
BRANCH   1   8
ATOM      7  C   UNL     1       8.314   9.155  18.348  0.00  0.00    +0.000 C 
ATOM      8  C   UNL     1       8.442   7.841  18.609  0.00  0.00    +0.000 C 
BRANCH   7  12
ATOM      9  C   UNL     1      11.136  12.190  19.463  0.00  0.00    +0.000 A 
ATOM     10  C   UNL     1      10.952  11.826  18.131  0.00  0.00    +0.000 A 
ATOM     11  C   UNL     1      10.014  10.850  17.787  0.00  0.00    +0.000 A 
ATOM     12  C   UNL     1       9.261  10.199  18.772  0.00  0.00    +0.000 A 
ATOM     13  C   UNL     1       9.443  10.580  20.109  0.00  0.00    +0.000 A 
ATOM     14  C   UNL     1      10.380  11.564  20.453  0.00  0.00    +0.000 A 
BRANCH   9  16
ATOM     15  C   UNL     1      11.690  14.488  19.481  0.00  0.00    +0.000 C 
ATOM     16  O   UNL     1      12.097  13.139  19.676  0.00  0.00    +0.000 OA
ENDBRANCH   9  16
ENDBRANCH   7  12
ENDBRANCH   1   8
BRANCH   3  17
ATOM     17  O   UNL     1       6.203   5.768  14.849  0.00  0.00    +0.000 OA
ATOM     18  C   UNL     1       6.558   4.589  14.134  0.00  0.00    +0.000 C 
ENDBRANCH   3  17
BRANCH   5  19
ATOM     19  O   UNL     1       5.855   3.626  19.104  0.00  0.00    +0.000 OA
ATOM     20  C   UNL     1       4.450   3.398  19.139  0.00  0.00    +0.000 C 
ENDBRANCH   5  19
BRANCH   6  21
ATOM     21  O   UNL     1       7.436   5.799  20.230  0.00  0.00    +0.000 OA
ATOM     22  H   UNL     1       7.422   6.741  20.475  0.00  0.00    +0.000 HD
ENDBRANCH   6  21
TORSDOF 6
ENDMDL
MODEL 2
REMARK VINA RESULT:      -7.4      0.210      1.068
REMARK  Name = 
REMARK  9 active torsions:
REMARK  status: ('A' for Active; 'I' for Inactive)
REMARK    1  A    between atoms: C_1  and  O_2
REMARK    2  A    between atoms: O_2  and  C_3
REMARK    3  A    between atoms: C_6  and  C_7
REMARK    4  A    between atoms: C_8  and  C_9
REMARK    5  A    between atoms: C_11  and  O_12
REMARK    6  A    between atoms: O_12  and  C_13
REMARK    7  A    between atoms: C_15  and  O_16
REMARK    8  A    between atoms: O_16  and  C_17
REMARK    9  A    between atoms: C_18  and  O_19
REMARK                            x       y       z     vdW  Elec       q    Type
REMARK                         _______ _______ _______ _____ _____    ______ ____
ROOT
ATOM      1  C   UNL     1       7.526   6.777  18.034  0.00  0.00    +0.000 A 
ATOM      2  C   UNL     1       7.191   6.708  16.675  0.00  0.00    +0.000 A 
ATOM      3  C   UNL     1       6.435   5.648  16.169  0.00  0.00    +0.000 A 
ATOM      4  C   UNL     1       6.023   4.622  17.019  0.00  0.00    +0.000 A 
ATOM      5  C   UNL     1       6.315   4.676  18.386  0.00  0.00    +0.000 A 
ATOM      6  C   UNL     1       7.057   5.755  18.886  0.00  0.00    +0.000 A 
ENDROOT
BRANCH   1   8
ATOM      7  C   UNL     1       8.324   9.142  18.162  0.00  0.00    +0.000 C 
ATOM      8  C   UNL     1       8.376   7.860  18.567  0.00  0.00    +0.000 C 
BRANCH   7  12
ATOM      9  C   UNL     1      10.964  12.236  19.529  0.00  0.00    +0.000 A 
ATOM     10  C   UNL     1      10.211  11.478  20.423  0.00  0.00    +0.000 A 
ATOM     11  C   UNL     1       9.373  10.461  19.960  0.00  0.00    +0.000 A 
ATOM     12  C   UNL     1       9.250  10.203  18.589  0.00  0.00    +0.000 A 
ATOM     13  C   UNL     1      10.019  10.962  17.697  0.00  0.00    +0.000 A 
ATOM     14  C   UNL     1      10.865  11.977  18.163  0.00  0.00    +0.000 A 
BRANCH   9  16
ATOM     15  C   UNL     1      11.368  14.552  19.776  0.00  0.00    +0.000 C 
ATOM     16  O   UNL     1      11.728  13.215  20.101  0.00  0.00    +0.000 OA
ENDBRANCH   9  16
ENDBRANCH   7  12
ENDBRANCH   1   8
BRANCH   3  17
ATOM     17  O   UNL     1       6.209   5.686  14.822  0.00  0.00    +0.000 OA
ATOM     18  C   UNL     1       6.260   4.420  14.173  0.00  0.00    +0.000 C 
ENDBRANCH   3  17
BRANCH   5  19
ATOM     19  O   UNL     1       5.917   3.572  19.096  0.00  0.00    +0.000 OA
ATOM     20  C   UNL     1       4.515   3.375  19.241  0.00  0.00    +0.000 C 
ENDBRANCH   5  19
BRANCH   6  21
ATOM     21  O   UNL     1       7.429   5.803  20.205  0.00  0.00    +0.000 OA
ATOM     22  H   UNL     1       7.614   6.743  20.377  0.00  0.00    +0.000 HD
ENDBRANCH   6  21
TORSDOF 6
ENDMDL
MODEL 3
REMARK VINA RESULT:      -7.0      1.832      8.140
REMARK  Name = 
REMARK  9 active torsions:
REMARK  status: ('A' for Active; 'I' for Inactive)
REMARK    1  A    between atoms: C_1  and  O_2
REMARK    2  A    between atoms: O_2  and  C_3
REMARK    3  A    between atoms: C_6  and  C_7
REMARK    4  A    between atoms: C_8  and  C_9
REMARK    5  A    between atoms: C_11  and  O_12
REMARK    6  A    between atoms: O_12  and  C_13
REMARK    7  A    between atoms: C_15  and  O_16
REMARK    8  A    between atoms: O_16  and  C_17
REMARK    9  A    between atoms: C_18  and  O_19
REMARK                            x       y       z     vdW  Elec       q    Type
REMARK                         _______ _______ _______ _____ _____    ______ ____
ROOT
ATOM      1  C   UNL     1       9.522  10.628  19.102  0.00  0.00    +0.000 A 
ATOM      2  C   UNL     1       9.928  11.347  17.970  0.00  0.00    +0.000 A 
ATOM      3  C   UNL     1      10.412  12.652  18.076  0.00  0.00    +0.000 A 
ATOM      4  C   UNL     1      10.472  13.269  19.326  0.00  0.00    +0.000 A 
ATOM      5  C   UNL     1      10.102  12.570  20.479  0.00  0.00    +0.000 A 
ATOM      6  C   UNL     1       9.636  11.253  20.361  0.00  0.00    +0.000 A 
ENDROOT
BRANCH   1   8
ATOM      7  C   UNL     1       8.231   8.826  17.947  0.00  0.00    +0.000 C 
ATOM      8  C   UNL     1       8.951   9.271  18.993  0.00  0.00    +0.000 C 
BRANCH   7  12
ATOM      9  C   UNL     1       6.133   5.091  17.693  0.00  0.00    +0.000 A 
ATOM     10  C   UNL     1       5.751   6.191  16.928  0.00  0.00    +0.000 A 
ATOM     11  C   UNL     1       6.460   7.392  17.009  0.00  0.00    +0.000 A 
ATOM     12  C   UNL     1       7.548   7.524  17.881  0.00  0.00    +0.000 A 
ATOM     13  C   UNL     1       7.933   6.410  18.639  0.00  0.00    +0.000 A 
ATOM     14  C   UNL     1       7.226   5.204  18.551  0.00  0.00    +0.000 A 
BRANCH   9  16
ATOM     15  C   UNL     1       4.004   4.222  17.147  0.00  0.00    +0.000 C 
ATOM     16  O   UNL     1       5.349   3.982  17.542  0.00  0.00    +0.000 OA
ENDBRANCH   9  16
ENDBRANCH   7  12
ENDBRANCH   1   8
BRANCH   3  17
ATOM     17  O   UNL     1      10.742  13.249  16.892  0.00  0.00    +0.000 OA
ATOM     18  C   UNL     1      11.886  14.094  16.948  0.00  0.00    +0.000 C 
ENDBRANCH   3  17
BRANCH   5  19
ATOM     19  O   UNL     1      10.138  13.313  21.630  0.00  0.00    +0.000 OA
ATOM     20  C   UNL     1       9.049  14.204  21.852  0.00  0.00    +0.000 C 
ENDBRANCH   5  19
BRANCH   6  21
ATOM     21  O   UNL     1       9.191  10.563  21.459  0.00  0.00    +0.000 OA
ATOM     22  H   UNL     1       9.248   9.625  21.204  0.00  0.00    +0.000 HD
ENDBRANCH   6  21
TORSDOF 6
ENDMDL
MODEL 4
REMARK VINA RESULT:      -6.9      1.674      8.246
REMARK  Name = 
REMARK  9 active torsions:
REMARK  status: ('A' for Active; 'I' for Inactive)
REMARK    1  A    between atoms: C_1  and  O_2
REMARK    2  A    between atoms: O_2  and  C_3
REMARK    3  A    between atoms: C_6  and  C_7
REMARK    4  A    between atoms: C_8  and  C_9
REMARK    5  A    between atoms: C_11  and  O_12
REMARK    6  A    between atoms: O_12  and  C_13
REMARK    7  A    between atoms: C_15  and  O_16
REMARK    8  A    between atoms: O_16  and  C_17
REMARK    9  A    between atoms: C_18  and  O_19
REMARK                            x       y       z     vdW  Elec       q    Type
REMARK                         _______ _______ _______ _____ _____    ______ ____
ROOT
ATOM      1  C   UNL     1       9.597  10.679  19.070  0.00  0.00    +0.000 A 
ATOM      2  C   UNL     1      10.072  11.353  17.937  0.00  0.00    +0.000 A 
ATOM      3  C   UNL     1      10.617  12.636  18.033  0.00  0.00    +0.000 A 
ATOM      4  C   UNL     1      10.670  13.275  19.271  0.00  0.00    +0.000 A 
ATOM      5  C   UNL     1      10.231  12.619  20.426  0.00  0.00    +0.000 A 
ATOM      6  C   UNL     1       9.705  11.324  20.319  0.00  0.00    +0.000 A 
ENDROOT
BRANCH   1   8
ATOM      7  C   UNL     1       8.260   8.916  17.909  0.00  0.00    +0.000 C 
ATOM      8  C   UNL     1       8.964   9.349  18.970  0.00  0.00    +0.000 C 
BRANCH   7  12
ATOM      9  C   UNL     1       6.195   5.156  17.791  0.00  0.00    +0.000 A 
ATOM     10  C   UNL     1       7.297   5.352  18.620  0.00  0.00    +0.000 A 
ATOM     11  C   UNL     1       7.943   6.590  18.659  0.00  0.00    +0.000 A 
ATOM     12  C   UNL     1       7.516   7.648  17.847  0.00  0.00    +0.000 A 
ATOM     13  C   UNL     1       6.399   7.446  17.025  0.00  0.00    +0.000 A 
ATOM     14  C   UNL     1       5.747   6.206  16.991  0.00  0.00    +0.000 A 
BRANCH   9  16
ATOM     15  C   UNL     1       4.801   3.617  18.921  0.00  0.00    +0.000 C 
ATOM     16  O   UNL     1       5.663   3.897  17.824  0.00  0.00    +0.000 OA
ENDBRANCH   9  16
ENDBRANCH   7  12
ENDBRANCH   1   8
BRANCH   3  17
ATOM     17  O   UNL     1      11.011  13.191  16.848  0.00  0.00    +0.000 OA
ATOM     18  C   UNL     1      11.270  14.589  16.902  0.00  0.00    +0.000 C 
ENDBRANCH   3  17
BRANCH   5  19
ATOM     19  O   UNL     1      10.269  13.384  21.563  0.00  0.00    +0.000 OA
ATOM     20  C   UNL     1      10.261  14.797  21.385  0.00  0.00    +0.000 C 
ENDBRANCH   5  19
BRANCH   6  21
ATOM     21  O   UNL     1       9.194  10.680  21.417  0.00  0.00    +0.000 OA
ATOM     22  H   UNL     1       9.155   9.742  21.158  0.00  0.00    +0.000 HD
ENDBRANCH   6  21
TORSDOF 6
ENDMDL
MODEL 5
REMARK VINA RESULT:      -6.8      6.181      9.238
REMARK  Name = 
REMARK  9 active torsions:
REMARK  status: ('A' for Active; 'I' for Inactive)
REMARK    1  A    between atoms: C_1  and  O_2
REMARK    2  A    between atoms: O_2  and  C_3
REMARK    3  A    between atoms: C_6  and  C_7
REMARK    4  A    between atoms: C_8  and  C_9
REMARK    5  A    between atoms: C_11  and  O_12
REMARK    6  A    between atoms: O_12  and  C_13
REMARK    7  A    between atoms: C_15  and  O_16
REMARK    8  A    between atoms: O_16  and  C_17
REMARK    9  A    between atoms: C_18  and  O_19
REMARK                            x       y       z     vdW  Elec       q    Type
REMARK                         _______ _______ _______ _____ _____    ______ ____
ROOT
ATOM      1  C   UNL     1       1.471   9.149  18.954  0.00  0.00    +0.000 A 
ATOM      2  C   UNL     1       0.847   8.768  20.149  0.00  0.00    +0.000 A 
ATOM      3  C   UNL     1       0.244   9.711  20.984  0.00  0.00    +0.000 A 
ATOM      4  C   UNL     1       0.281  11.063  20.643  0.00  0.00    +0.000 A 
ATOM      5  C   UNL     1       0.870  11.474  19.442  0.00  0.00    +0.000 A 
ATOM      6  C   UNL     1       1.454  10.515  18.603  0.00  0.00    +0.000 A 
ENDROOT
BRANCH   1   8
ATOM      7  C   UNL     1       2.747   7.040  18.542  0.00  0.00    +0.000 C 
ATOM      8  C   UNL     1       2.164   8.168  18.095  0.00  0.00    +0.000 C 
BRANCH   7  12
ATOM      9  C   UNL     1       5.134   4.467  16.072  0.00  0.00    +0.000 A 
ATOM     10  C   UNL     1       5.308   5.850  16.060  0.00  0.00    +0.000 A 
ATOM     11  C   UNL     1       4.535   6.669  16.887  0.00  0.00    +0.000 A 
ATOM     12  C   UNL     1       3.552   6.121  17.721  0.00  0.00    +0.000 A 
ATOM     13  C   UNL     1       3.391   4.729  17.735  0.00  0.00    +0.000 A 
ATOM     14  C   UNL     1       4.171   3.908  16.910  0.00  0.00    +0.000 A 
BRANCH   9  16
ATOM     15  C   UNL     1       6.780   4.566  14.379  0.00  0.00    +0.000 C 
ATOM     16  O   UNL     1       5.933   3.776  15.204  0.00  0.00    +0.000 OA
ENDBRANCH   9  16
ENDBRANCH   7  12
ENDBRANCH   1   8
BRANCH   3  17
ATOM     17  O   UNL     1      -0.297   9.209  22.134  0.00  0.00    +0.000 OA
ATOM     18  C   UNL     1      -0.686  10.191  23.088  0.00  0.00    +0.000 C 
ENDBRANCH   3  17
BRANCH   5  19
ATOM     19  O   UNL     1       0.904  12.833  19.262  0.00  0.00    +0.000 OA
ATOM     20  C   UNL     1      -0.265  13.437  18.720  0.00  0.00    +0.000 C 
ENDBRANCH   5  19
BRANCH   6  21
ATOM     21  O   UNL     1       2.109  10.888  17.457  0.00  0.00    +0.000 OA
ATOM     22  H   UNL     1       2.120  11.861  17.483  0.00  0.00    +0.000 HD
ENDBRANCH   6  21
TORSDOF 6
ENDMDL
MODEL 6
REMARK VINA RESULT:      -6.8      5.754      7.691
REMARK  Name = 
REMARK  9 active torsions:
REMARK  status: ('A' for Active; 'I' for Inactive)
REMARK    1  A    between atoms: C_1  and  O_2
REMARK    2  A    between atoms: O_2  and  C_3
REMARK    3  A    between atoms: C_6  and  C_7
REMARK    4  A    between atoms: C_8  and  C_9
REMARK    5  A    between atoms: C_11  and  O_12
REMARK    6  A    between atoms: O_12  and  C_13
REMARK    7  A    between atoms: C_15  and  O_16
REMARK    8  A    between atoms: O_16  and  C_17
REMARK    9  A    between atoms: C_18  and  O_19
REMARK                            x       y       z     vdW  Elec       q    Type
REMARK                         _______ _______ _______ _____ _____    ______ ____
ROOT
ATOM      1  C   UNL     1       3.033   6.009  18.082  0.00  0.00    +0.000 A 
ATOM      2  C   UNL     1       2.333   4.795  18.055  0.00  0.00    +0.000 A 
ATOM      3  C   UNL     1       2.869   3.663  17.437  0.00  0.00    +0.000 A 
ATOM      4  C   UNL     1       4.113   3.739  16.811  0.00  0.00    +0.000 A 
ATOM      5  C   UNL     1       4.850   4.927  16.845  0.00  0.00    +0.000 A 
ATOM      6  C   UNL     1       4.310   6.050  17.485  0.00  0.00    +0.000 A 
ENDROOT
BRANCH   1   8
ATOM      7  C   UNL     1       2.059   7.337  19.961  0.00  0.00    +0.000 C 
ATOM      8  C   UNL     1       2.449   7.226  18.678  0.00  0.00    +0.000 C 
BRANCH   7  12
ATOM      9  C   UNL     1       0.039  10.787  21.521  0.00  0.00    +0.000 A 
ATOM     10  C   UNL     1       0.325  10.667  20.163  0.00  0.00    +0.000 A 
ATOM     11  C   UNL     1       0.965   9.526  19.671  0.00  0.00    +0.000 A 
ATOM     12  C   UNL     1       1.357   8.496  20.535  0.00  0.00    +0.000 A 
ATOM     13  C   UNL     1       1.055   8.619  21.898  0.00  0.00    +0.000 A 
ATOM     14  C   UNL     1       0.407   9.761  22.389  0.00  0.00    +0.000 A 
BRANCH   9  16
ATOM     15  C   UNL     1      -1.442  11.882  23.003  0.00  0.00    +0.000 C 
ATOM     16  O   UNL     1      -0.569  11.957  21.882  0.00  0.00    +0.000 OA
ENDBRANCH   9  16
ENDBRANCH   7  12
ENDBRANCH   1   8
BRANCH   3  17
ATOM     17  O   UNL     1       2.068   2.556  17.454  0.00  0.00    +0.000 OA
ATOM     18  C   UNL     1       1.298   2.395  18.640  0.00  0.00    +0.000 C 
ENDBRANCH   3  17
BRANCH   5  19
ATOM     19  O   UNL     1       6.020   4.890  16.130  0.00  0.00    +0.000 OA
ATOM     20  C   UNL     1       7.202   4.558  16.852  0.00  0.00    +0.000 C 
ENDBRANCH   5  19
BRANCH   6  21
ATOM     21  O   UNL     1       4.969   7.253  17.471  0.00  0.00    +0.000 OA
ATOM     22  H   UNL     1       4.265   7.923  17.537  0.00  0.00    +0.000 HD
ENDBRANCH   6  21
TORSDOF 6
ENDMDL
MODEL 7
REMARK VINA RESULT:      -6.7      5.916      7.326
REMARK  Name = 
REMARK  9 active torsions:
REMARK  status: ('A' for Active; 'I' for Inactive)
REMARK    1  A    between atoms: C_1  and  O_2
REMARK    2  A    between atoms: O_2  and  C_3
REMARK    3  A    between atoms: C_6  and  C_7
REMARK    4  A    between atoms: C_8  and  C_9
REMARK    5  A    between atoms: C_11  and  O_12
REMARK    6  A    between atoms: O_12  and  C_13
REMARK    7  A    between atoms: C_15  and  O_16
REMARK    8  A    between atoms: O_16  and  C_17
REMARK    9  A    between atoms: C_18  and  O_19
REMARK                            x       y       z     vdW  Elec       q    Type
REMARK                         _______ _______ _______ _____ _____    ______ ____
ROOT
ATOM      1  C   UNL     1       3.600   6.684  18.136  0.00  0.00    +0.000 A 
ATOM      2  C   UNL     1       4.291   6.733  16.918  0.00  0.00    +0.000 A 
ATOM      3  C   UNL     1       5.235   5.761  16.581  0.00  0.00    +0.000 A 
ATOM      4  C   UNL     1       5.520   4.732  17.478  0.00  0.00    +0.000 A 
ATOM      5  C   UNL     1       4.827   4.637  18.690  0.00  0.00    +0.000 A 
ATOM      6  C   UNL     1       3.868   5.609  19.008  0.00  0.00    +0.000 A 
ENDROOT
BRANCH   1   8
ATOM      7  C   UNL     1       2.102   8.632  17.679  0.00  0.00    +0.000 C 
ATOM      8  C   UNL     1       2.646   7.741  18.528  0.00  0.00    +0.000 C 
BRANCH   7  12
ATOM      9  C   UNL     1      -0.476  11.886  18.765  0.00  0.00    +0.000 A 
ATOM     10  C   UNL     1      -0.991  10.672  18.314  0.00  0.00    +0.000 A 
ATOM     11  C   UNL     1      -0.136   9.618  17.985  0.00  0.00    +0.000 A 
ATOM     12  C   UNL     1       1.254   9.768  18.073  0.00  0.00    +0.000 A 
ATOM     13  C   UNL     1       1.763  10.988  18.538  0.00  0.00    +0.000 A 
ATOM     14  C   UNL     1       0.904  12.043  18.875  0.00  0.00    +0.000 A 
BRANCH   9  16
ATOM     15  C   UNL     1      -2.601  12.394  19.669  0.00  0.00    +0.000 C 
ATOM     16  O   UNL     1      -1.411  12.846  19.033  0.00  0.00    +0.000 OA
ENDBRANCH   9  16
ENDBRANCH   7  12
ENDBRANCH   1   8
BRANCH   3  17
ATOM     17  O   UNL     1       5.858   5.946  15.380  0.00  0.00    +0.000 OA
ATOM     18  C   UNL     1       6.789   4.929  15.028  0.00  0.00    +0.000 C 
ENDBRANCH   3  17
BRANCH   5  19
ATOM     19  O   UNL     1       5.254   3.625  19.511  0.00  0.00    +0.000 OA
ATOM     20  C   UNL     1       4.407   2.486  19.616  0.00  0.00    +0.000 C 
ENDBRANCH   5  19
BRANCH   6  21
ATOM     21  O   UNL     1       3.225   5.593  20.219  0.00  0.00    +0.000 OA
ATOM     22  H   UNL     1       3.133   6.531  20.464  0.00  0.00    +0.000 HD
ENDBRANCH   6  21
TORSDOF 6
ENDMDL
MODEL 8
REMARK VINA RESULT:      -6.7      5.692      7.870
REMARK  Name = 
REMARK  9 active torsions:
REMARK  status: ('A' for Active; 'I' for Inactive)
REMARK    1  A    between atoms: C_1  and  O_2
REMARK    2  A    between atoms: O_2  and  C_3
REMARK    3  A    between atoms: C_6  and  C_7
REMARK    4  A    between atoms: C_8  and  C_9
REMARK    5  A    between atoms: C_11  and  O_12
REMARK    6  A    between atoms: O_12  and  C_13
REMARK    7  A    between atoms: C_15  and  O_16
REMARK    8  A    between atoms: O_16  and  C_17
REMARK    9  A    between atoms: C_18  and  O_19
REMARK                            x       y       z     vdW  Elec       q    Type
REMARK                         _______ _______ _______ _____ _____    ______ ____
ROOT
ATOM      1  C   UNL     1       2.992   5.759  18.061  0.00  0.00    +0.000 A 
ATOM      2  C   UNL     1       2.408   4.495  18.220  0.00  0.00    +0.000 A 
ATOM      3  C   UNL     1       3.047   3.339  17.765  0.00  0.00    +0.000 A 
ATOM      4  C   UNL     1       4.278   3.437  17.117  0.00  0.00    +0.000 A 
ATOM      5  C   UNL     1       4.902   4.680  16.969  0.00  0.00    +0.000 A 
ATOM      6  C   UNL     1       4.260   5.831  17.446  0.00  0.00    +0.000 A 
ENDROOT
BRANCH   1   8
ATOM      7  C   UNL     1       2.118   7.368  19.761  0.00  0.00    +0.000 C 
ATOM      8  C   UNL     1       2.297   6.991  18.482  0.00  0.00    +0.000 C 
BRANCH   7  12
ATOM      9  C   UNL     1      -0.257  10.662  21.149  0.00  0.00    +0.000 A 
ATOM     10  C   UNL     1       0.068   9.598  21.988  0.00  0.00    +0.000 A 
ATOM     11  C   UNL     1       0.859   8.545  21.523  0.00  0.00    +0.000 A 
ATOM     12  C   UNL     1       1.317   8.522  20.200  0.00  0.00    +0.000 A 
ATOM     13  C   UNL     1       0.997   9.602  19.366  0.00  0.00    +0.000 A 
ATOM     14  C   UNL     1       0.208  10.661  19.835  0.00  0.00    +0.000 A 
BRANCH   9  16
ATOM     15  C   UNL     1      -1.396  11.417  23.078  0.00  0.00    +0.000 C 
ATOM     16  O   UNL     1      -1.055  11.619  21.711  0.00  0.00    +0.000 OA
ENDBRANCH   9  16
ENDBRANCH   7  12
ENDBRANCH   1   8
BRANCH   3  17
ATOM     17  O   UNL     1       2.353   2.178  17.954  0.00  0.00    +0.000 OA
ATOM     18  C   UNL     1       1.138   2.320  18.683  0.00  0.00    +0.000 C 
ENDBRANCH   3  17
BRANCH   5  19
ATOM     19  O   UNL     1       6.070   4.647  16.250  0.00  0.00    +0.000 OA
ATOM     20  C   UNL     1       7.280   4.582  16.998  0.00  0.00    +0.000 C 
ENDBRANCH   5  19
BRANCH   6  21
ATOM     21  O   UNL     1       4.804   7.074  17.249  0.00  0.00    +0.000 OA
ATOM     22  H   UNL     1       4.726   7.519  18.111  0.00  0.00    +0.000 HD
ENDBRANCH   6  21
TORSDOF 6
ENDMDL
MODEL 9
REMARK VINA RESULT:      -6.7      5.993      9.188
REMARK  Name = 
REMARK  9 active torsions:
REMARK  status: ('A' for Active; 'I' for Inactive)
REMARK    1  A    between atoms: C_1  and  O_2
REMARK    2  A    between atoms: O_2  and  C_3
REMARK    3  A    between atoms: C_6  and  C_7
REMARK    4  A    between atoms: C_8  and  C_9
REMARK    5  A    between atoms: C_11  and  O_12
REMARK    6  A    between atoms: O_12  and  C_13
REMARK    7  A    between atoms: C_15  and  O_16
REMARK    8  A    between atoms: O_16  and  C_17
REMARK    9  A    between atoms: C_18  and  O_19
REMARK                            x       y       z     vdW  Elec       q    Type
REMARK                         _______ _______ _______ _____ _____    ______ ____
ROOT
ATOM      1  C   UNL     1       1.682   8.978  18.973  0.00  0.00    +0.000 A 
ATOM      2  C   UNL     1       1.217   8.556  20.226  0.00  0.00    +0.000 A 
ATOM      3  C   UNL     1       0.649   9.457  21.128  0.00  0.00    +0.000 A 
ATOM      4  C   UNL     1       0.559  10.809  20.795  0.00  0.00    +0.000 A 
ATOM      5  C   UNL     1       0.986  11.258  19.542  0.00  0.00    +0.000 A 
ATOM      6  C   UNL     1       1.538  10.340  18.637  0.00  0.00    +0.000 A 
ENDROOT
BRANCH   1   8
ATOM      7  C   UNL     1       3.148   7.036  18.407  0.00  0.00    +0.000 C 
ATOM      8  C   UNL     1       2.340   8.045  18.037  0.00  0.00    +0.000 C 
BRANCH   7  12
ATOM      9  C   UNL     1       5.345   4.436  15.793  0.00  0.00    +0.000 A 
ATOM     10  C   UNL     1       4.417   3.934  16.703  0.00  0.00    +0.000 A 
ATOM     11  C   UNL     1       3.697   4.798  17.531  0.00  0.00    +0.000 A 
ATOM     12  C   UNL     1       3.913   6.181  17.485  0.00  0.00    +0.000 A 
ATOM     13  C   UNL     1       4.839   6.680  16.558  0.00  0.00    +0.000 A 
ATOM     14  C   UNL     1       5.556   5.812  15.723  0.00  0.00    +0.000 A 
BRANCH   9  16
ATOM     15  C   UNL     1       6.343   3.869  13.727  0.00  0.00    +0.000 C 
ATOM     16  O   UNL     1       6.001   3.491  15.055  0.00  0.00    +0.000 OA
ENDBRANCH   9  16
ENDBRANCH   7  12
ENDBRANCH   1   8
BRANCH   3  17
ATOM     17  O   UNL     1       0.269   8.920  22.326  0.00  0.00    +0.000 OA
ATOM     18  C   UNL     1      -0.575   9.753  23.113  0.00  0.00    +0.000 C 
ENDBRANCH   3  17
BRANCH   5  19
ATOM     19  O   UNL     1       0.912  12.616  19.369  0.00  0.00    +0.000 OA
ATOM     20  C   UNL     1      -0.382  13.164  19.141  0.00  0.00    +0.000 C 
ENDBRANCH   5  19
BRANCH   6  21
ATOM     21  O   UNL     1       2.038  10.756  17.430  0.00  0.00    +0.000 OA
ATOM     22  H   UNL     1       2.050  11.728  17.487  0.00  0.00    +0.000 HD
ENDBRANCH   6  21
TORSDOF 6
ENDMDL
