MODEL 1
REMARK VINA RESULT:      -9.1      0.000      0.000
REMARK  Name = 
REMARK  9 active torsions:
REMARK  status: ('A' for Active; 'I' for Inactive)
REMARK    1  A    between atoms: C_1  and  O_2
REMARK    2  A    between atoms: O_2  and  C_3
REMARK    3  A    between atoms: C_7  and  C_8
REMARK    4  A    between atoms: C_8  and  N_9
REMARK    5  A    between atoms: N_9  and  C_10
REMARK    6  A    between atoms: N_9  and  C_22
REMARK    7  A    between atoms: C_10  and  C_11
REMARK    8  A    between atoms: C_26  and  S_27
REMARK    9  A    between atoms: S_27  and  N_28
REMARK                            x       y       z     vdW  Elec       q    Type
REMARK                         _______ _______ _______ _____ _____    ______ ____
ROOT
ATOM      1  N   UNL     1       3.241   7.190  18.408  0.00  0.00    +0.000 N 
ENDROOT
BRANCH   1   2
ATOM      2  C   UNL     1       2.200   8.078  18.676  0.00  0.00    +0.000 A 
ATOM      3  C   UNL     1       1.539   8.825  17.683  0.00  0.00    +0.000 A 
ATOM      4  C   UNL     1       0.490   9.717  17.961  0.00  0.00    +0.000 A 
ATOM      5  C   UNL     1       0.102   9.933  19.272  0.00  0.00    +0.000 A 
ATOM      6  C   UNL     1       0.767   9.241  20.275  0.00  0.00    +0.000 A 
ATOM      7  C   UNL     1       1.758   8.300  19.980  0.00  0.00    +0.000 A 
BRANCH   6   8
ATOM      8  S   UNL     1       0.510   9.639  21.977  0.00  0.00    +0.000 S 
ATOM      9  O   UNL     1       0.471  11.075  22.125  0.00  0.00    +0.000 OA
ATOM     10  O   UNL     1      -0.494   8.766  22.526  0.00  0.00    +0.000 OA
BRANCH   8  11
ATOM     11  N   UNL     1       1.975   9.131  22.600  0.00  0.00    +0.000 NA
ATOM     12  H   UNL     1       2.751   9.432  22.015  0.00  0.00    +0.000 HD
ATOM     13  H   UNL     1       2.054   9.344  23.592  0.00  0.00    +0.000 HD
ENDBRANCH   8  11
ENDBRANCH   6   8
ENDBRANCH   1   2
BRANCH   1  14
ATOM     14  C   UNL     1       4.064   7.329  17.190  0.00  0.00    +0.000 C 
BRANCH  14  19
ATOM     15  C   UNL     1       6.462   4.643  15.963  0.00  0.00    +0.000 A 
ATOM     16  C   UNL     1       7.432   4.597  16.957  0.00  0.00    +0.000 A 
ATOM     17  C   UNL     1       7.386   5.529  18.000  0.00  0.00    +0.000 A 
ATOM     18  C   UNL     1       6.337   6.460  18.086  0.00  0.00    +0.000 A 
ATOM     19  C   UNL     1       5.336   6.490  17.104  0.00  0.00    +0.000 A 
ATOM     20  C   UNL     1       5.476   5.630  15.996  0.00  0.00    +0.000 A 
BRANCH  15  22
ATOM     21  C   UNL     1       6.739   4.445  13.657  0.00  0.00    +0.000 C 
ATOM     22  O   UNL     1       6.486   3.783  14.901  0.00  0.00    +0.000 OA
ENDBRANCH  15  22
ENDBRANCH  14  19
ENDBRANCH   1  14
BRANCH   1  23
ATOM     23  C   UNL     1       3.589   6.117  19.367  0.00  0.00    +0.000 C 
BRANCH  23  24
ATOM     24  C   UNL     1       2.896   4.761  19.298  0.00  0.00    +0.000 A 
ATOM     25  C   UNL     1       2.810   3.913  18.194  0.00  0.00    +0.000 A 
ATOM     26  F   UNL     1       3.388   4.247  17.032  0.00  0.00    +0.000 F 
ATOM     27  C   UNL     1       2.126   2.682  18.261  0.00  0.00    +0.000 A 
ATOM     28  F   UNL     1       2.079   1.881  17.184  0.00  0.00    +0.000 F 
ATOM     29  C   UNL     1       1.491   2.284  19.429  0.00  0.00    +0.000 A 
ATOM     30  F   UNL     1       0.832   1.117  19.485  0.00  0.00    +0.000 F 
ATOM     31  C   UNL     1       1.534   3.114  20.536  0.00  0.00    +0.000 A 
ATOM     32  F   UNL     1       0.912   2.762  21.668  0.00  0.00    +0.000 F 
ATOM     33  C   UNL     1       2.222   4.329  20.461  0.00  0.00    +0.000 A 
ATOM     34  F   UNL     1       2.231   5.115  21.546  0.00  0.00    +0.000 F 
ENDBRANCH  23  24
ENDBRANCH   1  23
TORSDOF 8
ENDMDL
MODEL 2
REMARK VINA RESULT:      -9.0      1.162      1.579
REMARK  Name = 
REMARK  9 active torsions:
REMARK  status: ('A' for Active; 'I' for Inactive)
REMARK    1  A    between atoms: C_1  and  O_2
REMARK    2  A    between atoms: O_2  and  C_3
REMARK    3  A    between atoms: C_7  and  C_8
REMARK    4  A    between atoms: C_8  and  N_9
REMARK    5  A    between atoms: N_9  and  C_10
REMARK    6  A    between atoms: N_9  and  C_22
REMARK    7  A    between atoms: C_10  and  C_11
REMARK    8  A    between atoms: C_26  and  S_27
REMARK    9  A    between atoms: S_27  and  N_28
REMARK                            x       y       z     vdW  Elec       q    Type
REMARK                         _______ _______ _______ _____ _____    ______ ____
ROOT
ATOM      1  N   UNL     1       3.147   7.237  18.407  0.00  0.00    +0.000 N 
ENDROOT
BRANCH   1   2
ATOM      2  C   UNL     1       2.137   8.153  18.697  0.00  0.00    +0.000 A 
ATOM      3  C   UNL     1       1.513   8.958  17.725  0.00  0.00    +0.000 A 
ATOM      4  C   UNL     1       0.495   9.878  18.026  0.00  0.00    +0.000 A 
ATOM      5  C   UNL     1       0.103  10.063  19.340  0.00  0.00    +0.000 A 
ATOM      6  C   UNL     1       0.733   9.313  20.324  0.00  0.00    +0.000 A 
ATOM      7  C   UNL     1       1.691   8.347  20.005  0.00  0.00    +0.000 A 
BRANCH   6   8
ATOM      8  S   UNL     1       0.474   9.662  22.036  0.00  0.00    +0.000 S 
ATOM      9  O   UNL     1       0.419  11.092  22.224  0.00  0.00    +0.000 OA
ATOM     10  O   UNL     1      -0.518   8.763  22.564  0.00  0.00    +0.000 OA
BRANCH   8  11
ATOM     11  N   UNL     1       1.947   9.154  22.643  0.00  0.00    +0.000 NA
ATOM     12  H   UNL     1       2.546   9.944  22.872  0.00  0.00    +0.000 HD
ATOM     13  H   UNL     1       1.829   8.455  23.373  0.00  0.00    +0.000 HD
ENDBRANCH   8  11
ENDBRANCH   6   8
ENDBRANCH   1   2
BRANCH   1  14
ATOM     14  C   UNL     1       3.843   7.260  17.105  0.00  0.00    +0.000 C 
BRANCH  14  19
ATOM     15  C   UNL     1       6.306   4.527  16.140  0.00  0.00    +0.000 A 
ATOM     16  C   UNL     1       7.406   4.781  16.951  0.00  0.00    +0.000 A 
ATOM     17  C   UNL     1       7.411   5.927  17.753  0.00  0.00    +0.000 A 
ATOM     18  C   UNL     1       6.296   6.780  17.796  0.00  0.00    +0.000 A 
ATOM     19  C   UNL     1       5.169   6.511  17.006  0.00  0.00    +0.000 A 
ATOM     20  C   UNL     1       5.239   5.425  16.109  0.00  0.00    +0.000 A 
BRANCH  15  22
ATOM     21  C   UNL     1       6.188   3.810  13.925  0.00  0.00    +0.000 C 
ATOM     22  O   UNL     1       6.268   3.444  15.305  0.00  0.00    +0.000 OA
ENDBRANCH  15  22
ENDBRANCH  14  19
ENDBRANCH   1  14
BRANCH   1  23
ATOM     23  C   UNL     1       3.593   6.253  19.419  0.00  0.00    +0.000 C 
BRANCH  23  24
ATOM     24  C   UNL     1       3.071   4.821  19.389  0.00  0.00    +0.000 A 
ATOM     25  C   UNL     1       1.738   4.408  19.408  0.00  0.00    +0.000 A 
ATOM     26  F   UNL     1       0.747   5.309  19.440  0.00  0.00    +0.000 F 
ATOM     27  C   UNL     1       1.388   3.042  19.385  0.00  0.00    +0.000 A 
ATOM     28  F   UNL     1       0.095   2.681  19.385  0.00  0.00    +0.000 F 
ATOM     29  C   UNL     1       2.367   2.058  19.369  0.00  0.00    +0.000 A 
ATOM     30  F   UNL     1       2.030   0.760  19.359  0.00  0.00    +0.000 F 
ATOM     31  C   UNL     1       3.699   2.432  19.377  0.00  0.00    +0.000 A 
ATOM     32  F   UNL     1       4.661   1.501  19.382  0.00  0.00    +0.000 F 
ATOM     33  C   UNL     1       4.035   3.789  19.390  0.00  0.00    +0.000 A 
ATOM     34  F   UNL     1       5.335   4.116  19.412  0.00  0.00    +0.000 F 
ENDBRANCH  23  24
ENDBRANCH   1  23
TORSDOF 8
ENDMDL
MODEL 3
REMARK VINA RESULT:      -9.0      0.657      2.034
REMARK  Name = 
REMARK  9 active torsions:
REMARK  status: ('A' for Active; 'I' for Inactive)
REMARK    1  A    between atoms: C_1  and  O_2
REMARK    2  A    between atoms: O_2  and  C_3
REMARK    3  A    between atoms: C_7  and  C_8
REMARK    4  A    between atoms: C_8  and  N_9
REMARK    5  A    between atoms: N_9  and  C_10
REMARK    6  A    between atoms: N_9  and  C_22
REMARK    7  A    between atoms: C_10  and  C_11
REMARK    8  A    between atoms: C_26  and  S_27
REMARK    9  A    between atoms: S_27  and  N_28
REMARK                            x       y       z     vdW  Elec       q    Type
REMARK                         _______ _______ _______ _____ _____    ______ ____
ROOT
ATOM      1  N   UNL     1       3.369   7.147  18.301  0.00  0.00    +0.000 N 
ENDROOT
BRANCH   1   2
ATOM      2  C   UNL     1       2.330   8.018  18.624  0.00  0.00    +0.000 A 
ATOM      3  C   UNL     1       1.652   8.807  17.675  0.00  0.00    +0.000 A 
ATOM      4  C   UNL     1       0.605   9.682  18.008  0.00  0.00    +0.000 A 
ATOM      5  C   UNL     1       0.235   9.838  19.333  0.00  0.00    +0.000 A 
ATOM      6  C   UNL     1       0.917   9.104  20.294  0.00  0.00    +0.000 A 
ATOM      7  C   UNL     1       1.906   8.180  19.943  0.00  0.00    +0.000 A 
BRANCH   6   8
ATOM      8  S   UNL     1       0.683   9.424  22.016  0.00  0.00    +0.000 S 
ATOM      9  O   UNL     1      -0.540   8.793  22.451  0.00  0.00    +0.000 OA
ATOM     10  O   UNL     1       1.936   9.267  22.707  0.00  0.00    +0.000 OA
BRANCH   8  11
ATOM     11  N   UNL     1       0.380  11.067  21.948  0.00  0.00    +0.000 NA
ATOM     12  H   UNL     1      -0.461  11.267  21.412  0.00  0.00    +0.000 HD
ATOM     13  H   UNL     1       0.436  11.495  22.869  0.00  0.00    +0.000 HD
ENDBRANCH   8  11
ENDBRANCH   6   8
ENDBRANCH   1   2
BRANCH   1  14
ATOM     14  C   UNL     1       4.163   7.333  17.071  0.00  0.00    +0.000 C 
BRANCH  14  19
ATOM     15  C   UNL     1       6.490   4.627  15.757  0.00  0.00    +0.000 A 
ATOM     16  C   UNL     1       7.526   4.612  16.684  0.00  0.00    +0.000 A 
ATOM     17  C   UNL     1       7.543   5.571  17.703  0.00  0.00    +0.000 A 
ATOM     18  C   UNL     1       6.497   6.499  17.834  0.00  0.00    +0.000 A 
ATOM     19  C   UNL     1       5.431   6.498  16.922  0.00  0.00    +0.000 A 
ATOM     20  C   UNL     1       5.503   5.609  15.829  0.00  0.00    +0.000 A 
BRANCH  15  22
ATOM     21  C   UNL     1       6.754   4.344  13.458  0.00  0.00    +0.000 C 
ATOM     22  O   UNL     1       6.449   3.738  14.718  0.00  0.00    +0.000 OA
ENDBRANCH  15  22
ENDBRANCH  14  19
ENDBRANCH   1  14
BRANCH   1  23
ATOM     23  C   UNL     1       3.746   6.044  19.214  0.00  0.00    +0.000 C 
BRANCH  23  24
ATOM     24  C   UNL     1       2.874   4.798  19.325  0.00  0.00    +0.000 A 
ATOM     25  C   UNL     1       2.115   4.395  20.424  0.00  0.00    +0.000 A 
ATOM     26  F   UNL     1       2.082   5.138  21.539  0.00  0.00    +0.000 F 
ATOM     27  C   UNL     1       1.354   3.208  20.400  0.00  0.00    +0.000 A 
ATOM     28  F   UNL     1       0.620   2.859  21.468  0.00  0.00    +0.000 F 
ATOM     29  C   UNL     1       1.358   2.384  19.282  0.00  0.00    +0.000 A 
ATOM     30  F   UNL     1       0.642   1.250  19.268  0.00  0.00    +0.000 F 
ATOM     31  C   UNL     1       2.121   2.741  18.184  0.00  0.00    +0.000 A 
ATOM     32  F   UNL     1       2.156   1.953  17.103  0.00  0.00    +0.000 F 
ATOM     33  C   UNL     1       2.864   3.924  18.215  0.00  0.00    +0.000 A 
ATOM     34  F   UNL     1       3.604   4.232  17.141  0.00  0.00    +0.000 F 
ENDBRANCH  23  24
ENDBRANCH   1  23
TORSDOF 8
ENDMDL
MODEL 4
REMARK VINA RESULT:      -8.9      1.167      1.264
REMARK  Name = 
REMARK  9 active torsions:
REMARK  status: ('A' for Active; 'I' for Inactive)
REMARK    1  A    between atoms: C_1  and  O_2
REMARK    2  A    between atoms: O_2  and  C_3
REMARK    3  A    between atoms: C_7  and  C_8
REMARK    4  A    between atoms: C_8  and  N_9
REMARK    5  A    between atoms: N_9  and  C_10
REMARK    6  A    between atoms: N_9  and  C_22
REMARK    7  A    between atoms: C_10  and  C_11
REMARK    8  A    between atoms: C_26  and  S_27
REMARK    9  A    between atoms: S_27  and  N_28
REMARK                            x       y       z     vdW  Elec       q    Type
REMARK                         _______ _______ _______ _____ _____    ______ ____
ROOT
ATOM      1  N   UNL     1       3.088   7.122  18.405  0.00  0.00    +0.000 N 
ENDROOT
BRANCH   1   2
ATOM      2  C   UNL     1       2.220   8.152  18.761  0.00  0.00    +0.000 A 
ATOM      3  C   UNL     1       1.804   9.162  17.873  0.00  0.00    +0.000 A 
ATOM      4  C   UNL     1       0.928  10.197  18.239  0.00  0.00    +0.000 A 
ATOM      5  C   UNL     1       0.478  10.286  19.546  0.00  0.00    +0.000 A 
ATOM      6  C   UNL     1       0.909   9.328  20.453  0.00  0.00    +0.000 A 
ATOM      7  C   UNL     1       1.720   8.259  20.059  0.00  0.00    +0.000 A 
BRANCH   6   8
ATOM      8  S   UNL     1       0.589   9.506  22.181  0.00  0.00    +0.000 S 
ATOM      9  O   UNL     1      -0.577   8.729  22.528  0.00  0.00    +0.000 OA
ATOM     10  O   UNL     1       1.828   9.429  22.909  0.00  0.00    +0.000 OA
BRANCH   8  11
ATOM     11  N   UNL     1       0.121  11.111  22.207  0.00  0.00    +0.000 NA
ATOM     12  H   UNL     1       0.353  11.579  21.334  0.00  0.00    +0.000 HD
ATOM     13  H   UNL     1      -0.838  11.216  22.530  0.00  0.00    +0.000 HD
ENDBRANCH   8  11
ENDBRANCH   6   8
ENDBRANCH   1   2
BRANCH   1  14
ATOM     14  C   UNL     1       3.595   6.997  17.024  0.00  0.00    +0.000 C 
BRANCH  14  19
ATOM     15  C   UNL     1       6.328   4.618  15.868  0.00  0.00    +0.000 A 
ATOM     16  C   UNL     1       7.428   4.993  16.631  0.00  0.00    +0.000 A 
ATOM     17  C   UNL     1       7.331   6.114  17.462  0.00  0.00    +0.000 A 
ATOM     18  C   UNL     1       6.121   6.818  17.582  0.00  0.00    +0.000 A 
ATOM     19  C   UNL     1       4.997   6.424  16.840  0.00  0.00    +0.000 A 
ATOM     20  C   UNL     1       5.157   5.374  15.913  0.00  0.00    +0.000 A 
BRANCH  15  22
ATOM     21  C   UNL     1       6.281   3.948  13.636  0.00  0.00    +0.000 C 
ATOM     22  O   UNL     1       6.384   3.556  15.008  0.00  0.00    +0.000 OA
ENDBRANCH  15  22
ENDBRANCH  14  19
ENDBRANCH   1  14
BRANCH   1  23
ATOM     23  C   UNL     1       3.576   6.156  19.416  0.00  0.00    +0.000 C 
BRANCH  23  24
ATOM     24  C   UNL     1       3.126   4.700  19.376  0.00  0.00    +0.000 A 
ATOM     25  C   UNL     1       3.888   3.592  19.004  0.00  0.00    +0.000 A 
ATOM     26  F   UNL     1       5.170   3.737  18.642  0.00  0.00    +0.000 F 
ATOM     27  C   UNL     1       3.345   2.290  19.002  0.00  0.00    +0.000 A 
ATOM     28  F   UNL     1       4.112   1.244  18.656  0.00  0.00    +0.000 F 
ATOM     29  C   UNL     1       2.019   2.073  19.349  0.00  0.00    +0.000 A 
ATOM     30  F   UNL     1       1.504   0.834  19.335  0.00  0.00    +0.000 F 
ATOM     31  C   UNL     1       1.228   3.153  19.699  0.00  0.00    +0.000 A 
ATOM     32  F   UNL     1      -0.059   2.971  20.018  0.00  0.00    +0.000 F 
ATOM     33  C   UNL     1       1.778   4.438  19.706  0.00  0.00    +0.000 A 
ATOM     34  F   UNL     1       0.980   5.463  20.035  0.00  0.00    +0.000 F 
ENDBRANCH  23  24
ENDBRANCH   1  23
TORSDOF 8
ENDMDL
MODEL 5
REMARK VINA RESULT:      -8.8      2.274      4.705
REMARK  Name = 
REMARK  9 active torsions:
REMARK  status: ('A' for Active; 'I' for Inactive)
REMARK    1  A    between atoms: C_1  and  O_2
REMARK    2  A    between atoms: O_2  and  C_3
REMARK    3  A    between atoms: C_7  and  C_8
REMARK    4  A    between atoms: C_8  and  N_9
REMARK    5  A    between atoms: N_9  and  C_10
REMARK    6  A    between atoms: N_9  and  C_22
REMARK    7  A    between atoms: C_10  and  C_11
REMARK    8  A    between atoms: C_26  and  S_27
REMARK    9  A    between atoms: S_27  and  N_28
REMARK                            x       y       z     vdW  Elec       q    Type
REMARK                         _______ _______ _______ _____ _____    ______ ____
ROOT
ATOM      1  N   UNL     1       2.576   7.122  19.017  0.00  0.00    +0.000 N 
ENDROOT
BRANCH   1   2
ATOM      2  C   UNL     1       1.809   8.258  19.270  0.00  0.00    +0.000 A 
ATOM      3  C   UNL     1       1.607   9.286  18.329  0.00  0.00    +0.000 A 
ATOM      4  C   UNL     1       0.832  10.428  18.590  0.00  0.00    +0.000 A 
ATOM      5  C   UNL     1       0.271  10.605  19.844  0.00  0.00    +0.000 A 
ATOM      6  C   UNL     1       0.491   9.627  20.804  0.00  0.00    +0.000 A 
ATOM      7  C   UNL     1       1.201   8.459  20.508  0.00  0.00    +0.000 A 
BRANCH   6   8
ATOM      8  S   UNL     1       0.028   9.888  22.489  0.00  0.00    +0.000 S 
ATOM      9  O   UNL     1       1.184   9.696  23.331  0.00  0.00    +0.000 OA
ATOM     10  O   UNL     1      -0.824  11.045  22.577  0.00  0.00    +0.000 OA
BRANCH   8  11
ATOM     11  N   UNL     1      -0.956   8.555  22.710  0.00  0.00    +0.000 NA
ATOM     12  H   UNL     1      -0.440   7.776  23.111  0.00  0.00    +0.000 HD
ATOM     13  H   UNL     1      -1.825   8.805  23.178  0.00  0.00    +0.000 HD
ENDBRANCH   8  11
ENDBRANCH   6   8
ENDBRANCH   1   2
BRANCH   1  14
ATOM     14  C   UNL     1       3.051   6.264  20.121  0.00  0.00    +0.000 C 
BRANCH  14  19
ATOM     15  C   UNL     1       3.016   2.479  19.753  0.00  0.00    +0.000 A 
ATOM     16  C   UNL     1       1.670   2.154  19.879  0.00  0.00    +0.000 A 
ATOM     17  C   UNL     1       0.753   3.159  20.203  0.00  0.00    +0.000 A 
ATOM     18  C   UNL     1       1.167   4.495  20.336  0.00  0.00    +0.000 A 
ATOM     19  C   UNL     1       2.519   4.835  20.177  0.00  0.00    +0.000 A 
ATOM     20  C   UNL     1       3.442   3.787  19.981  0.00  0.00    +0.000 A 
BRANCH  15  22
ATOM     21  C   UNL     1       3.895   1.055  18.130  0.00  0.00    +0.000 C 
ATOM     22  O   UNL     1       3.958   1.526  19.480  0.00  0.00    +0.000 OA
ENDBRANCH  15  22
ENDBRANCH  14  19
ENDBRANCH   1  14
BRANCH   1  23
ATOM     23  C   UNL     1       2.886   6.708  17.630  0.00  0.00    +0.000 C 
BRANCH  23  24
ATOM     24  C   UNL     1       4.271   6.183  17.270  0.00  0.00    +0.000 A 
ATOM     25  C   UNL     1       5.473   6.892  17.289  0.00  0.00    +0.000 A 
ATOM     26  F   UNL     1       5.501   8.176  17.670  0.00  0.00    +0.000 F 
ATOM     27  C   UNL     1       6.692   6.287  16.921  0.00  0.00    +0.000 A 
ATOM     28  F   UNL     1       7.833   6.992  16.970  0.00  0.00    +0.000 F 
ATOM     29  C   UNL     1       6.731   4.964  16.500  0.00  0.00    +0.000 A 
ATOM     30  F   UNL     1       7.892   4.395  16.141  0.00  0.00    +0.000 F 
ATOM     31  C   UNL     1       5.553   4.240  16.444  0.00  0.00    +0.000 A 
ATOM     32  F   UNL     1       5.562   2.970  16.023  0.00  0.00    +0.000 F 
ATOM     33  C   UNL     1       4.351   4.847  16.819  0.00  0.00    +0.000 A 
ATOM     34  F   UNL     1       3.227   4.122  16.739  0.00  0.00    +0.000 F 
ENDBRANCH  23  24
ENDBRANCH   1  23
TORSDOF 8
ENDMDL
MODEL 6
REMARK VINA RESULT:      -8.8      2.289      4.615
REMARK  Name = 
REMARK  9 active torsions:
REMARK  status: ('A' for Active; 'I' for Inactive)
REMARK    1  A    between atoms: C_1  and  O_2
REMARK    2  A    between atoms: O_2  and  C_3
REMARK    3  A    between atoms: C_7  and  C_8
REMARK    4  A    between atoms: C_8  and  N_9
REMARK    5  A    between atoms: N_9  and  C_10
REMARK    6  A    between atoms: N_9  and  C_22
REMARK    7  A    between atoms: C_10  and  C_11
REMARK    8  A    between atoms: C_26  and  S_27
REMARK    9  A    between atoms: S_27  and  N_28
REMARK                            x       y       z     vdW  Elec       q    Type
REMARK                         _______ _______ _______ _____ _____    ______ ____
ROOT
ATOM      1  N   UNL     1       2.667   7.233  18.930  0.00  0.00    +0.000 N 
ENDROOT
BRANCH   1   2
ATOM      2  C   UNL     1       1.785   8.262  19.255  0.00  0.00    +0.000 A 
ATOM      3  C   UNL     1       1.275   9.177  18.314  0.00  0.00    +0.000 A 
ATOM      4  C   UNL     1       0.385  10.211  18.649  0.00  0.00    +0.000 A 
ATOM      5  C   UNL     1       0.016  10.398  19.971  0.00  0.00    +0.000 A 
ATOM      6  C   UNL     1       0.539   9.536  20.925  0.00  0.00    +0.000 A 
ATOM      7  C   UNL     1       1.364   8.465  20.569  0.00  0.00    +0.000 A 
BRANCH   6   8
ATOM      8  S   UNL     1       0.322   9.853  22.650  0.00  0.00    +0.000 S 
ATOM      9  O   UNL     1       1.523   9.472  23.354  0.00  0.00    +0.000 OA
ATOM     10  O   UNL     1      -0.318  11.130  22.825  0.00  0.00    +0.000 OA
BRANCH   8  11
ATOM     11  N   UNL     1      -0.829   8.692  22.997  0.00  0.00    +0.000 NA
ATOM     12  H   UNL     1      -1.616   8.747  22.355  0.00  0.00    +0.000 HD
ATOM     13  H   UNL     1      -0.409   7.772  23.112  0.00  0.00    +0.000 HD
ENDBRANCH   8  11
ENDBRANCH   6   8
ENDBRANCH   1   2
BRANCH   1  14
ATOM     14  C   UNL     1       3.234   6.358  19.976  0.00  0.00    +0.000 C 
BRANCH  14  19
ATOM     15  C   UNL     1       2.960   2.568  19.810  0.00  0.00    +0.000 A 
ATOM     16  C   UNL     1       1.606   2.332  20.020  0.00  0.00    +0.000 A 
ATOM     17  C   UNL     1       0.767   3.406  20.336  0.00  0.00    +0.000 A 
ATOM     18  C   UNL     1       1.265   4.719  20.378  0.00  0.00    +0.000 A 
ATOM     19  C   UNL     1       2.623   4.968  20.134  0.00  0.00    +0.000 A 
ATOM     20  C   UNL     1       3.473   3.858  19.947  0.00  0.00    +0.000 A 
BRANCH  15  22
ATOM     21  C   UNL     1       3.824   1.165  18.161  0.00  0.00    +0.000 C 
ATOM     22  O   UNL     1       3.829   1.548  19.540  0.00  0.00    +0.000 OA
ENDBRANCH  15  22
ENDBRANCH  14  19
ENDBRANCH   1  14
BRANCH   1  23
ATOM     23  C   UNL     1       3.015   6.949  17.519  0.00  0.00    +0.000 C 
BRANCH  23  24
ATOM     24  C   UNL     1       4.288   6.184  17.175  0.00  0.00    +0.000 A 
ATOM     25  C   UNL     1       4.391   4.846  16.794  0.00  0.00    +0.000 A 
ATOM     26  F   UNL     1       3.295   4.084  16.680  0.00  0.00    +0.000 F 
ATOM     27  C   UNL     1       5.639   4.254  16.509  0.00  0.00    +0.000 A 
ATOM     28  F   UNL     1       5.700   2.968  16.128  0.00  0.00    +0.000 F 
ATOM     29  C   UNL     1       6.815   4.983  16.625  0.00  0.00    +0.000 A 
ATOM     30  F   UNL     1       8.001   4.413  16.364  0.00  0.00    +0.000 F 
ATOM     31  C   UNL     1       6.750   6.306  17.026  0.00  0.00    +0.000 A 
ATOM     32  F   UNL     1       7.872   7.024  17.164  0.00  0.00    +0.000 F 
ATOM     33  C   UNL     1       5.508   6.886  17.297  0.00  0.00    +0.000 A 
ATOM     34  F   UNL     1       5.483   8.164  17.697  0.00  0.00    +0.000 F 
ENDBRANCH  23  24
ENDBRANCH   1  23
TORSDOF 8
ENDMDL
MODEL 7
REMARK VINA RESULT:      -8.7      1.990      2.320
REMARK  Name = 
REMARK  9 active torsions:
REMARK  status: ('A' for Active; 'I' for Inactive)
REMARK    1  A    between atoms: C_1  and  O_2
REMARK    2  A    between atoms: O_2  and  C_3
REMARK    3  A    between atoms: C_7  and  C_8
REMARK    4  A    between atoms: C_8  and  N_9
REMARK    5  A    between atoms: N_9  and  C_10
REMARK    6  A    between atoms: N_9  and  C_22
REMARK    7  A    between atoms: C_10  and  C_11
REMARK    8  A    between atoms: C_26  and  S_27
REMARK    9  A    between atoms: S_27  and  N_28
REMARK                            x       y       z     vdW  Elec       q    Type
REMARK                         _______ _______ _______ _____ _____    ______ ____
ROOT
ATOM      1  N   UNL     1       2.598   6.699  18.101  0.00  0.00    +0.000 N 
ENDROOT
BRANCH   1   2
ATOM      2  C   UNL     1       2.053   7.592  19.022  0.00  0.00    +0.000 A 
ATOM      3  C   UNL     1       2.078   7.386  20.415  0.00  0.00    +0.000 A 
ATOM      4  C   UNL     1       1.527   8.290  21.337  0.00  0.00    +0.000 A 
ATOM      5  C   UNL     1       0.873   9.423  20.881  0.00  0.00    +0.000 A 
ATOM      6  C   UNL     1       0.796   9.628  19.511  0.00  0.00    +0.000 A 
ATOM      7  C   UNL     1       1.414   8.760  18.606  0.00  0.00    +0.000 A 
BRANCH   6   8
ATOM      8  S   UNL     1      -0.227  10.903  18.840  0.00  0.00    +0.000 S 
ATOM      9  O   UNL     1      -0.994  10.364  17.742  0.00  0.00    +0.000 OA
ATOM     10  O   UNL     1      -0.817  11.658  19.913  0.00  0.00    +0.000 OA
BRANCH   8  11
ATOM     11  N   UNL     1       0.956  11.875  18.169  0.00  0.00    +0.000 NA
ATOM     12  H   UNL     1       1.870  11.677  18.569  0.00  0.00    +0.000 HD
ATOM     13  H   UNL     1       0.904  11.880  17.153  0.00  0.00    +0.000 HD
ENDBRANCH   8  11
ENDBRANCH   6   8
ENDBRANCH   1   2
BRANCH   1  14
ATOM     14  C   UNL     1       3.728   7.095  17.236  0.00  0.00    +0.000 C 
BRANCH  14  19
ATOM     15  C   UNL     1       6.966   5.205  16.595  0.00  0.00    +0.000 A 
ATOM     16  C   UNL     1       7.446   4.943  17.873  0.00  0.00    +0.000 A 
ATOM     17  C   UNL     1       6.776   5.481  18.977  0.00  0.00    +0.000 A 
ATOM     18  C   UNL     1       5.595   6.222  18.811  0.00  0.00    +0.000 A 
ATOM     19  C   UNL     1       5.087   6.462  17.525  0.00  0.00    +0.000 A 
ATOM     20  C   UNL     1       5.849   6.022  16.424  0.00  0.00    +0.000 A 
BRANCH  15  22
ATOM     21  C   UNL     1       6.708   4.417  14.417  0.00  0.00    +0.000 C 
ATOM     22  O   UNL     1       7.608   4.738  15.481  0.00  0.00    +0.000 OA
ENDBRANCH  15  22
ENDBRANCH  14  19
ENDBRANCH   1  14
BRANCH   1  23
ATOM     23  C   UNL     1       2.100   5.308  18.005  0.00  0.00    +0.000 C 
BRANCH  23  24
ATOM     24  C   UNL     1       2.518   4.263  19.032  0.00  0.00    +0.000 A 
ATOM     25  C   UNL     1       3.609   3.396  18.957  0.00  0.00    +0.000 A 
ATOM     26  F   UNL     1       4.439   3.435  17.905  0.00  0.00    +0.000 F 
ATOM     27  C   UNL     1       3.882   2.463  19.978  0.00  0.00    +0.000 A 
ATOM     28  F   UNL     1       4.951   1.657  19.882  0.00  0.00    +0.000 F 
ATOM     29  C   UNL     1       3.053   2.360  21.086  0.00  0.00    +0.000 A 
ATOM     30  F   UNL     1       3.310   1.463  22.051  0.00  0.00    +0.000 F 
ATOM     31  C   UNL     1       1.947   3.187  21.180  0.00  0.00    +0.000 A 
ATOM     32  F   UNL     1       1.121   3.092  22.230  0.00  0.00    +0.000 F 
ATOM     33  C   UNL     1       1.691   4.114  20.167  0.00  0.00    +0.000 A 
ATOM     34  F   UNL     1       0.603   4.888  20.281  0.00  0.00    +0.000 F 
ENDBRANCH  23  24
ENDBRANCH   1  23
TORSDOF 8
ENDMDL
MODEL 8
REMARK VINA RESULT:      -8.6      1.957      2.955
REMARK  Name = 
REMARK  9 active torsions:
REMARK  status: ('A' for Active; 'I' for Inactive)
REMARK    1  A    between atoms: C_1  and  O_2
REMARK    2  A    between atoms: O_2  and  C_3
REMARK    3  A    between atoms: C_7  and  C_8
REMARK    4  A    between atoms: C_8  and  N_9
REMARK    5  A    between atoms: N_9  and  C_10
REMARK    6  A    between atoms: N_9  and  C_22
REMARK    7  A    between atoms: C_10  and  C_11
REMARK    8  A    between atoms: C_26  and  S_27
REMARK    9  A    between atoms: S_27  and  N_28
REMARK                            x       y       z     vdW  Elec       q    Type
REMARK                         _______ _______ _______ _____ _____    ______ ____
ROOT
ATOM      1  N   UNL     1       2.451   6.899  18.170  0.00  0.00    +0.000 N 
ENDROOT
BRANCH   1   2
ATOM      2  C   UNL     1       1.962   7.802  19.112  0.00  0.00    +0.000 A 
ATOM      3  C   UNL     1       1.843   7.508  20.484  0.00  0.00    +0.000 A 
ATOM      4  C   UNL     1       1.349   8.424  21.427  0.00  0.00    +0.000 A 
ATOM      5  C   UNL     1       0.900   9.666  21.010  0.00  0.00    +0.000 A 
ATOM      6  C   UNL     1       0.966   9.965  19.656  0.00  0.00    +0.000 A 
ATOM      7  C   UNL     1       1.529   9.074  18.737  0.00  0.00    +0.000 A 
BRANCH   6   8
ATOM      8  S   UNL     1       0.190  11.414  19.008  0.00  0.00    +0.000 S 
ATOM      9  O   UNL     1      -0.869  11.021  18.110  0.00  0.00    +0.000 OA
ATOM     10  O   UNL     1       0.007  12.372  20.065  0.00  0.00    +0.000 OA
BRANCH   8  11
ATOM     11  N   UNL     1       1.439  11.988  18.056  0.00  0.00    +0.000 NA
ATOM     12  H   UNL     1       1.133  12.148  17.100  0.00  0.00    +0.000 HD
ATOM     13  H   UNL     1       1.926  12.760  18.505  0.00  0.00    +0.000 HD
ENDBRANCH   8  11
ENDBRANCH   6   8
ENDBRANCH   1   2
BRANCH   1  14
ATOM     14  C   UNL     1       3.632   7.225  17.345  0.00  0.00    +0.000 C 
BRANCH  14  19
ATOM     15  C   UNL     1       6.756   5.160  16.681  0.00  0.00    +0.000 A 
ATOM     16  C   UNL     1       7.142   4.739  17.949  0.00  0.00    +0.000 A 
ATOM     17  C   UNL     1       6.450   5.219  19.066  0.00  0.00    +0.000 A 
ATOM     18  C   UNL     1       5.337   6.063  18.916  0.00  0.00    +0.000 A 
ATOM     19  C   UNL     1       4.922   6.464  17.637  0.00  0.00    +0.000 A 
ATOM     20  C   UNL     1       5.713   6.074  16.537  0.00  0.00    +0.000 A 
BRANCH  15  22
ATOM     21  C   UNL     1       6.549   4.459  14.468  0.00  0.00    +0.000 C 
ATOM     22  O   UNL     1       7.425   4.754  15.560  0.00  0.00    +0.000 OA
ENDBRANCH  15  22
ENDBRANCH  14  19
ENDBRANCH   1  14
BRANCH   1  23
ATOM     23  C   UNL     1       1.837   5.561  18.010  0.00  0.00    +0.000 C 
BRANCH  23  24
ATOM     24  C   UNL     1       2.518   4.323  18.583  0.00  0.00    +0.000 A 
ATOM     25  C   UNL     1       2.573   3.934  19.921  0.00  0.00    +0.000 A 
ATOM     26  F   UNL     1       1.972   4.667  20.869  0.00  0.00    +0.000 F 
ATOM     27  C   UNL     1       3.248   2.763  20.322  0.00  0.00    +0.000 A 
ATOM     28  F   UNL     1       3.265   2.408  21.617  0.00  0.00    +0.000 F 
ATOM     29  C   UNL     1       3.905   1.968  19.393  0.00  0.00    +0.000 A 
ATOM     30  F   UNL     1       4.555   0.860  19.780  0.00  0.00    +0.000 F 
ATOM     31  C   UNL     1       3.892   2.339  18.060  0.00  0.00    +0.000 A 
ATOM     32  F   UNL     1       4.536   1.599  17.148  0.00  0.00    +0.000 F 
ATOM     33  C   UNL     1       3.213   3.497  17.672  0.00  0.00    +0.000 A 
ATOM     34  F   UNL     1       3.234   3.836  16.376  0.00  0.00    +0.000 F 
ENDBRANCH  23  24
ENDBRANCH   1  23
TORSDOF 8
ENDMDL
MODEL 9
REMARK VINA RESULT:      -8.6      2.947      4.775
REMARK  Name = 
REMARK  9 active torsions:
REMARK  status: ('A' for Active; 'I' for Inactive)
REMARK    1  A    between atoms: C_1  and  O_2
REMARK    2  A    between atoms: O_2  and  C_3
REMARK    3  A    between atoms: C_7  and  C_8
REMARK    4  A    between atoms: C_8  and  N_9
REMARK    5  A    between atoms: N_9  and  C_10
REMARK    6  A    between atoms: N_9  and  C_22
REMARK    7  A    between atoms: C_10  and  C_11
REMARK    8  A    between atoms: C_26  and  S_27
REMARK    9  A    between atoms: S_27  and  N_28
REMARK                            x       y       z     vdW  Elec       q    Type
REMARK                         _______ _______ _______ _____ _____    ______ ____
ROOT
ATOM      1  N   UNL     1       2.426   6.854  18.005  0.00  0.00    +0.000 N 
ENDROOT
BRANCH   1   2
ATOM      2  C   UNL     1       1.936   7.679  19.016  0.00  0.00    +0.000 A 
ATOM      3  C   UNL     1       1.768   7.260  20.350  0.00  0.00    +0.000 A 
ATOM      4  C   UNL     1       1.273   8.097  21.363  0.00  0.00    +0.000 A 
ATOM      5  C   UNL     1       0.872   9.386  21.055  0.00  0.00    +0.000 A 
ATOM      6  C   UNL     1       0.986   9.810  19.738  0.00  0.00    +0.000 A 
ATOM      7  C   UNL     1       1.551   8.993  18.754  0.00  0.00    +0.000 A 
BRANCH   6   8
ATOM      8  S   UNL     1       0.272  11.338  19.212  0.00  0.00    +0.000 S 
ATOM      9  O   UNL     1      -0.831  11.061  18.323  0.00  0.00    +0.000 OA
ATOM     10  O   UNL     1       0.171  12.231  20.335  0.00  0.00    +0.000 OA
BRANCH   8  11
ATOM     11  N   UNL     1       1.523  11.909  18.261  0.00  0.00    +0.000 NA
ATOM     12  H   UNL     1       2.115  12.556  18.777  0.00  0.00    +0.000 HD
ATOM     13  H   UNL     1       2.002  11.152  17.779  0.00  0.00    +0.000 HD
ENDBRANCH   8  11
ENDBRANCH   6   8
ENDBRANCH   1   2
BRANCH   1  14
ATOM     14  C   UNL     1       1.748   5.590  17.658  0.00  0.00    +0.000 C 
BRANCH  14  19
ATOM     15  C   UNL     1       3.058   2.905  20.013  0.00  0.00    +0.000 A 
ATOM     16  C   UNL     1       3.873   2.129  19.197  0.00  0.00    +0.000 A 
ATOM     17  C   UNL     1       3.923   2.401  17.826  0.00  0.00    +0.000 A 
ATOM     18  C   UNL     1       3.213   3.484  17.281  0.00  0.00    +0.000 A 
ATOM     19  C   UNL     1       2.414   4.291  18.104  0.00  0.00    +0.000 A 
ATOM     20  C   UNL     1       2.277   3.918  19.457  0.00  0.00    +0.000 A 
BRANCH  15  22
ATOM     21  C   UNL     1       1.598   2.792  21.827  0.00  0.00    +0.000 C 
ATOM     22  O   UNL     1       2.941   2.654  21.352  0.00  0.00    +0.000 OA
ENDBRANCH  15  22
ENDBRANCH  14  19
ENDBRANCH   1  14
BRANCH   1  23
ATOM     23  C   UNL     1       3.609   7.252  17.208  0.00  0.00    +0.000 C 
BRANCH  23  24
ATOM     24  C   UNL     1       4.875   6.403  17.224  0.00  0.00    +0.000 A 
ATOM     25  C   UNL     1       5.589   5.934  16.121  0.00  0.00    +0.000 A 
ATOM     26  F   UNL     1       5.194   6.232  14.876  0.00  0.00    +0.000 F 
ATOM     27  C   UNL     1       6.747   5.143  16.274  0.00  0.00    +0.000 A 
ATOM     28  F   UNL     1       7.421   4.724  15.191  0.00  0.00    +0.000 F 
ATOM     29  C   UNL     1       7.201   4.784  17.535  0.00  0.00    +0.000 A 
ATOM     30  F   UNL     1       8.297   4.023  17.676  0.00  0.00    +0.000 F 
ATOM     31  C   UNL     1       6.501   5.211  18.650  0.00  0.00    +0.000 A 
ATOM     32  F   UNL     1       6.908   4.861  19.877  0.00  0.00    +0.000 F 
ATOM     33  C   UNL     1       5.360   6.001  18.488  0.00  0.00    +0.000 A 
ATOM     34  F   UNL     1       4.697   6.384  19.588  0.00  0.00    +0.000 F 
ENDBRANCH  23  24
ENDBRANCH   1  23
TORSDOF 8
ENDMDL
