MODEL 1
REMARK VINA RESULT:      -7.4      0.000      0.000
REMARK  Name = 
REMARK  3 active torsions:
REMARK  status: ('A' for Active; 'I' for Inactive)
REMARK    1  A    between atoms: C_5  and  C_6
REMARK    2  A    between atoms: N_16  and  C_17
REMARK    3  A    between atoms: C_17  and  C_18
REMARK                            x       y       z     vdW  Elec       q    Type
REMARK                         _______ _______ _______ _____ _____    ______ ____
ROOT
ATOM      1  O   UNL     1      -0.293   9.359  20.978  0.00  0.00    +0.000 OA
ATOM      2  C   UNL     1       0.607   9.094  20.196  0.00  0.00    +0.000 C 
ATOM      3  S   UNL     1       1.540   7.615  20.323  0.00  0.00    +0.000 S 
ATOM      4  C   UNL     1       2.221   7.830  18.761  0.00  0.00    +0.000 C 
ATOM      5  C   UNL     1       2.962   6.956  18.064  0.00  0.00    +0.000 C 
ATOM      6  C   UNL     1       1.827   9.152  18.211  0.00  0.00    +0.000 C 
ATOM      7  O   UNL     1       2.168   9.539  17.102  0.00  0.00    +0.000 OA
ATOM      8  N   UNL     1       0.996   9.805  19.093  0.00  0.00    +0.000 N 
ENDROOT
BRANCH   5   9
ATOM      9  C   UNL     1       3.352   5.633  18.564  0.00  0.00    +0.000 A 
ATOM     10  C   UNL     1       4.560   5.510  19.265  0.00  0.00    +0.000 A 
ATOM     11  C   UNL     1       4.999   4.258  19.701  0.00  0.00    +0.000 A 
ATOM     12  C   UNL     1       4.229   3.126  19.443  0.00  0.00    +0.000 A 
ATOM     13 CL   UNL     1       4.779   1.583  19.969  0.00  0.00    +0.000 Cl
ATOM     14  C   UNL     1       3.022   3.231  18.758  0.00  0.00    +0.000 A 
ATOM     15  C   UNL     1       2.585   4.481  18.317  0.00  0.00    +0.000 A 
ATOM     16 CL   UNL     1       1.088   4.557  17.453  0.00  0.00    +0.000 Cl
ENDBRANCH   5   9
BRANCH   8  17
ATOM     17  C   UNL     1       0.405  11.094  18.756  0.00  0.00    +0.000 C 
BRANCH  17  18
ATOM     18  C   UNL     1      -1.093  11.007  18.575  0.00  0.00    +0.000 A 
ATOM     19  C   UNL     1      -1.614  10.109  17.633  0.00  0.00    +0.000 A 
ATOM     20  F   UNL     1      -0.798   9.250  17.008  0.00  0.00    +0.000 F 
ATOM     21  C   UNL     1      -2.969  10.066  17.317  0.00  0.00    +0.000 A 
ATOM     22  C   UNL     1      -3.856  10.913  17.969  0.00  0.00    +0.000 A 
ATOM     23  C   UNL     1      -3.378  11.774  18.954  0.00  0.00    +0.000 A 
ATOM     24  C   UNL     1      -2.010  11.821  19.257  0.00  0.00    +0.000 A 
ATOM     25 CL   UNL     1      -1.532  12.903  20.512  0.00  0.00    +0.000 Cl
ENDBRANCH  17  18
ENDBRANCH   8  17
TORSDOF 3
ENDMDL
MODEL 2
REMARK VINA RESULT:      -7.4      1.390      1.776
REMARK  Name = 
REMARK  3 active torsions:
REMARK  status: ('A' for Active; 'I' for Inactive)
REMARK    1  A    between atoms: C_5  and  C_6
REMARK    2  A    between atoms: N_16  and  C_17
REMARK    3  A    between atoms: C_17  and  C_18
REMARK                            x       y       z     vdW  Elec       q    Type
REMARK                         _______ _______ _______ _____ _____    ______ ____
ROOT
ATOM      1  O   UNL     1       0.191   9.272  21.478  0.00  0.00    +0.000 OA
ATOM      2  C   UNL     1       0.951   9.072  20.543  0.00  0.00    +0.000 C 
ATOM      3  S   UNL     1       1.652   7.495  20.238  0.00  0.00    +0.000 S 
ATOM      4  C   UNL     1       2.187   7.959  18.674  0.00  0.00    +0.000 C 
ATOM      5  C   UNL     1       2.704   7.173  17.719  0.00  0.00    +0.000 C 
ATOM      6  C   UNL     1       1.945   9.409  18.463  0.00  0.00    +0.000 C 
ATOM      7  O   UNL     1       2.221   9.984  17.419  0.00  0.00    +0.000 OA
ATOM      8  N   UNL     1       1.324   9.953  19.564  0.00  0.00    +0.000 N 
ENDROOT
BRANCH   5   9
ATOM      9  C   UNL     1       2.936   5.733  17.882  0.00  0.00    +0.000 A 
ATOM     10  C   UNL     1       1.829   4.873  17.898  0.00  0.00    +0.000 A 
ATOM     11  C   UNL     1       2.002   3.504  18.117  0.00  0.00    +0.000 A 
ATOM     12  C   UNL     1       3.282   2.990  18.313  0.00  0.00    +0.000 A 
ATOM     13 CL   UNL     1       3.491   1.306  18.595  0.00  0.00    +0.000 Cl
ATOM     14  C   UNL     1       4.393   3.828  18.290  0.00  0.00    +0.000 A 
ATOM     15  C   UNL     1       4.221   5.197  18.077  0.00  0.00    +0.000 A 
ATOM     16 CL   UNL     1       5.631   6.200  18.076  0.00  0.00    +0.000 Cl
ENDBRANCH   5   9
BRANCH   8  17
ATOM     17  C   UNL     1       0.907  11.350  19.580  0.00  0.00    +0.000 C 
BRANCH  17  18
ATOM     18  C   UNL     1      -0.596  11.498  19.566  0.00  0.00    +0.000 A 
ATOM     19  C   UNL     1      -1.319  11.003  18.471  0.00  0.00    +0.000 A 
ATOM     20  F   UNL     1      -0.692  10.293  17.524  0.00  0.00    +0.000 F 
ATOM     21  C   UNL     1      -2.687  11.219  18.324  0.00  0.00    +0.000 A 
ATOM     22  C   UNL     1      -3.382  11.919  19.302  0.00  0.00    +0.000 A 
ATOM     23  C   UNL     1      -2.704  12.370  20.432  0.00  0.00    +0.000 A 
ATOM     24  C   UNL     1      -1.324  12.161  20.565  0.00  0.00    +0.000 A 
ATOM     25 CL   UNL     1      -0.592  12.736  22.017  0.00  0.00    +0.000 Cl
ENDBRANCH  17  18
ENDBRANCH   8  17
TORSDOF 3
ENDMDL
MODEL 3
REMARK VINA RESULT:      -7.2      1.194      1.445
REMARK  Name = 
REMARK  3 active torsions:
REMARK  status: ('A' for Active; 'I' for Inactive)
REMARK    1  A    between atoms: C_5  and  C_6
REMARK    2  A    between atoms: N_16  and  C_17
REMARK    3  A    between atoms: C_17  and  C_18
REMARK                            x       y       z     vdW  Elec       q    Type
REMARK                         _______ _______ _______ _____ _____    ______ ____
ROOT
ATOM      1  O   UNL     1      -0.227   9.814  21.229  0.00  0.00    +0.000 OA
ATOM      2  C   UNL     1       0.615   9.520  20.394  0.00  0.00    +0.000 C 
ATOM      3  S   UNL     1       1.535   8.031  20.488  0.00  0.00    +0.000 S 
ATOM      4  C   UNL     1       2.112   8.205  18.880  0.00  0.00    +0.000 C 
ATOM      5  C   UNL     1       2.792   7.307  18.153  0.00  0.00    +0.000 C 
ATOM      6  C   UNL     1       1.698   9.521  18.331  0.00  0.00    +0.000 C 
ATOM      7  O   UNL     1       1.968   9.881  17.193  0.00  0.00    +0.000 OA
ATOM      8  N   UNL     1       0.937  10.204  19.253  0.00  0.00    +0.000 N 
ENDROOT
BRANCH   5   9
ATOM      9  C   UNL     1       3.198   5.988  18.654  0.00  0.00    +0.000 A 
ATOM     10  C   UNL     1       2.240   5.192  19.299  0.00  0.00    +0.000 A 
ATOM     11  C   UNL     1       2.602   3.959  19.847  0.00  0.00    +0.000 A 
ATOM     12  C   UNL     1       3.919   3.516  19.746  0.00  0.00    +0.000 A 
ATOM     13 CL   UNL     1       4.364   2.003  20.434  0.00  0.00    +0.000 Cl
ATOM     14  C   UNL     1       4.879   4.289  19.100  0.00  0.00    +0.000 A 
ATOM     15  C   UNL     1       4.520   5.523  18.557  0.00  0.00    +0.000 A 
ATOM     16 CL   UNL     1       5.754   6.455  17.780  0.00  0.00    +0.000 Cl
ENDBRANCH   5   9
BRANCH   8  17
ATOM     17  C   UNL     1       0.342  11.495  18.930  0.00  0.00    +0.000 C 
BRANCH  17  18
ATOM     18  C   UNL     1      -1.166  11.426  18.852  0.00  0.00    +0.000 A 
ATOM     19  C   UNL     1      -1.761  10.645  17.851  0.00  0.00    +0.000 A 
ATOM     20  F   UNL     1      -1.000   9.870  17.068  0.00  0.00    +0.000 F 
ATOM     21  C   UNL     1      -3.137  10.636  17.635  0.00  0.00    +0.000 A 
ATOM     22  C   UNL     1      -3.967  11.397  18.448  0.00  0.00    +0.000 A 
ATOM     23  C   UNL     1      -3.411  12.135  19.491  0.00  0.00    +0.000 A 
ATOM     24  C   UNL     1      -2.024  12.149  19.693  0.00  0.00    +0.000 A 
ATOM     25 CL   UNL     1      -1.447  13.074  21.029  0.00  0.00    +0.000 Cl
ENDBRANCH  17  18
ENDBRANCH   8  17
TORSDOF 3
ENDMDL
MODEL 4
REMARK VINA RESULT:      -7.2      2.227      3.277
REMARK  Name = 
REMARK  3 active torsions:
REMARK  status: ('A' for Active; 'I' for Inactive)
REMARK    1  A    between atoms: C_5  and  C_6
REMARK    2  A    between atoms: N_16  and  C_17
REMARK    3  A    between atoms: C_17  and  C_18
REMARK                            x       y       z     vdW  Elec       q    Type
REMARK                         _______ _______ _______ _____ _____    ______ ____
ROOT
ATOM      1  O   UNL     1      -0.036   9.535  21.437  0.00  0.00    +0.000 OA
ATOM      2  C   UNL     1       0.738   9.260  20.534  0.00  0.00    +0.000 C 
ATOM      3  S   UNL     1       1.703   7.798  20.551  0.00  0.00    +0.000 S 
ATOM      4  C   UNL     1       2.134   7.980  18.899  0.00  0.00    +0.000 C 
ATOM      5  C   UNL     1       2.774   7.098  18.118  0.00  0.00    +0.000 C 
ATOM      6  C   UNL     1       1.639   9.282  18.384  0.00  0.00    +0.000 C 
ATOM      7  O   UNL     1       1.800   9.644  17.227  0.00  0.00    +0.000 OA
ATOM      8  N   UNL     1       0.941   9.948  19.367  0.00  0.00    +0.000 N 
ENDROOT
BRANCH   5   9
ATOM      9  C   UNL     1       3.257   5.792  18.584  0.00  0.00    +0.000 A 
ATOM     10  C   UNL     1       2.334   4.894  19.136  0.00  0.00    +0.000 A 
ATOM     11  C   UNL     1       2.764   3.668  19.652  0.00  0.00    +0.000 A 
ATOM     12  C   UNL     1       4.116   3.336  19.610  0.00  0.00    +0.000 A 
ATOM     13 CL   UNL     1       4.644   1.832  20.257  0.00  0.00    +0.000 Cl
ATOM     14  C   UNL     1       5.045   4.212  19.056  0.00  0.00    +0.000 A 
ATOM     15  C   UNL     1       4.617   5.439  18.546  0.00  0.00    +0.000 A 
ATOM     16 CL   UNL     1       5.812   6.502  17.886  0.00  0.00    +0.000 Cl
ENDBRANCH   5   9
BRANCH   8  17
ATOM     17  C   UNL     1       0.285  11.220  19.094  0.00  0.00    +0.000 C 
BRANCH  17  18
ATOM     18  C   UNL     1       1.047  12.392  19.669  0.00  0.00    +0.000 A 
ATOM     19  C   UNL     1       2.186  12.859  18.997  0.00  0.00    +0.000 A 
ATOM     20  F   UNL     1       2.505  12.357  17.797  0.00  0.00    +0.000 F 
ATOM     21  C   UNL     1       3.012  13.844  19.531  0.00  0.00    +0.000 A 
ATOM     22  C   UNL     1       2.697  14.418  20.756  0.00  0.00    +0.000 A 
ATOM     23  C   UNL     1       1.539  14.019  21.419  0.00  0.00    +0.000 A 
ATOM     24  C   UNL     1       0.719  13.016  20.881  0.00  0.00    +0.000 A 
ATOM     25 CL   UNL     1      -0.703  12.620  21.772  0.00  0.00    +0.000 Cl
ENDBRANCH  17  18
ENDBRANCH   8  17
TORSDOF 3
ENDMDL
MODEL 5
REMARK VINA RESULT:      -7.1      1.900      2.899
REMARK  Name = 
REMARK  3 active torsions:
REMARK  status: ('A' for Active; 'I' for Inactive)
REMARK    1  A    between atoms: C_5  and  C_6
REMARK    2  A    between atoms: N_16  and  C_17
REMARK    3  A    between atoms: C_17  and  C_18
REMARK                            x       y       z     vdW  Elec       q    Type
REMARK                         _______ _______ _______ _____ _____    ______ ____
ROOT
ATOM      1  O   UNL     1      -0.263   9.430  21.082  0.00  0.00    +0.000 OA
ATOM      2  C   UNL     1       0.623   9.169  20.282  0.00  0.00    +0.000 C 
ATOM      3  S   UNL     1       1.579   7.706  20.402  0.00  0.00    +0.000 S 
ATOM      4  C   UNL     1       2.221   7.914  18.823  0.00  0.00    +0.000 C 
ATOM      5  C   UNL     1       2.957   7.044  18.118  0.00  0.00    +0.000 C 
ATOM      6  C   UNL     1       1.795   9.225  18.269  0.00  0.00    +0.000 C 
ATOM      7  O   UNL     1       2.105   9.605  17.149  0.00  0.00    +0.000 OA
ATOM      8  N   UNL     1       0.975   9.875  19.164  0.00  0.00    +0.000 N 
ENDROOT
BRANCH   5   9
ATOM      9  C   UNL     1       3.378   5.731  18.622  0.00  0.00    +0.000 A 
ATOM     10  C   UNL     1       4.606   5.631  19.290  0.00  0.00    +0.000 A 
ATOM     11  C   UNL     1       5.073   4.389  19.727  0.00  0.00    +0.000 A 
ATOM     12  C   UNL     1       4.309   3.245  19.504  0.00  0.00    +0.000 A 
ATOM     13 CL   UNL     1       4.893   1.715  20.032  0.00  0.00    +0.000 Cl
ATOM     14  C   UNL     1       3.082   3.328  18.853  0.00  0.00    +0.000 A 
ATOM     15  C   UNL     1       2.618   4.568  18.411  0.00  0.00    +0.000 A 
ATOM     16 CL   UNL     1       1.096   4.616  17.589  0.00  0.00    +0.000 Cl
ENDBRANCH   5   9
BRANCH   8  17
ATOM     17  C   UNL     1       0.359  11.153  18.828  0.00  0.00    +0.000 C 
BRANCH  17  18
ATOM     18  C   UNL     1       0.972  12.302  19.593  0.00  0.00    +0.000 A 
ATOM     19  C   UNL     1       2.221  12.798  19.192  0.00  0.00    +0.000 A 
ATOM     20  F   UNL     1       2.789  12.344  18.067  0.00  0.00    +0.000 F 
ATOM     21  C   UNL     1       2.908  13.763  19.924  0.00  0.00    +0.000 A 
ATOM     22  C   UNL     1       2.338  14.288  21.077  0.00  0.00    +0.000 A 
ATOM     23  C   UNL     1       1.070  13.861  21.468  0.00  0.00    +0.000 A 
ATOM     24  C   UNL     1       0.392  12.878  20.733  0.00  0.00    +0.000 A 
ATOM     25 CL   UNL     1      -1.181  12.445  21.290  0.00  0.00    +0.000 Cl
ENDBRANCH  17  18
ENDBRANCH   8  17
TORSDOF 3
ENDMDL
MODEL 6
REMARK VINA RESULT:      -7.1      3.362      7.920
REMARK  Name = 
REMARK  3 active torsions:
REMARK  status: ('A' for Active; 'I' for Inactive)
REMARK    1  A    between atoms: C_5  and  C_6
REMARK    2  A    between atoms: N_16  and  C_17
REMARK    3  A    between atoms: C_17  and  C_18
REMARK                            x       y       z     vdW  Elec       q    Type
REMARK                         _______ _______ _______ _____ _____    ______ ____
ROOT
ATOM      1  O   UNL     1       2.720   4.333  20.420  0.00  0.00    +0.000 OA
ATOM      2  C   UNL     1       2.470   5.370  19.825  0.00  0.00    +0.000 C 
ATOM      3  S   UNL     1       1.400   6.588  20.493  0.00  0.00    +0.000 S 
ATOM      4  C   UNL     1       1.893   7.754  19.333  0.00  0.00    +0.000 C 
ATOM      5  C   UNL     1       1.596   9.061  19.311  0.00  0.00    +0.000 C 
ATOM      6  C   UNL     1       2.786   7.126  18.326  0.00  0.00    +0.000 C 
ATOM      7  O   UNL     1       3.289   7.750  17.402  0.00  0.00    +0.000 OA
ATOM      8  N   UNL     1       2.995   5.801  18.637  0.00  0.00    +0.000 N 
ENDROOT
BRANCH   5   9
ATOM      9  C   UNL     1       0.737   9.722  20.301  0.00  0.00    +0.000 A 
ATOM     10  C   UNL     1       0.980   9.489  21.662  0.00  0.00    +0.000 A 
ATOM     11  C   UNL     1       0.145  10.046  22.634  0.00  0.00    +0.000 A 
ATOM     12  C   UNL     1      -0.930  10.843  22.247  0.00  0.00    +0.000 A 
ATOM     13 CL   UNL     1      -1.965  11.518  23.446  0.00  0.00    +0.000 Cl
ATOM     14  C   UNL     1      -1.180  11.094  20.901  0.00  0.00    +0.000 A 
ATOM     15  C   UNL     1      -0.349  10.533  19.929  0.00  0.00    +0.000 A 
ATOM     16 CL   UNL     1      -0.712  10.858  18.269  0.00  0.00    +0.000 Cl
ENDBRANCH   5   9
BRANCH   8  17
ATOM     17  C   UNL     1       3.898   4.976  17.845  0.00  0.00    +0.000 C 
BRANCH  17  18
ATOM     18  C   UNL     1       5.329   5.454  17.928  0.00  0.00    +0.000 A 
ATOM     19  C   UNL     1       6.060   5.214  19.100  0.00  0.00    +0.000 A 
ATOM     20  F   UNL     1       5.535   4.455  20.071  0.00  0.00    +0.000 F 
ATOM     21  C   UNL     1       7.335   5.737  19.301  0.00  0.00    +0.000 A 
ATOM     22  C   UNL     1       7.932   6.498  18.305  0.00  0.00    +0.000 A 
ATOM     23  C   UNL     1       7.257   6.702  17.103  0.00  0.00    +0.000 A 
ATOM     24  C   UNL     1       5.968   6.184  16.914  0.00  0.00    +0.000 A 
ATOM     25 CL   UNL     1       5.235   6.473  15.380  0.00  0.00    +0.000 Cl
ENDBRANCH  17  18
ENDBRANCH   8  17
TORSDOF 3
ENDMDL
MODEL 7
REMARK VINA RESULT:      -7.1      2.314      7.705
REMARK  Name = 
REMARK  3 active torsions:
REMARK  status: ('A' for Active; 'I' for Inactive)
REMARK    1  A    between atoms: C_5  and  C_6
REMARK    2  A    between atoms: N_16  and  C_17
REMARK    3  A    between atoms: C_17  and  C_18
REMARK                            x       y       z     vdW  Elec       q    Type
REMARK                         _______ _______ _______ _____ _____    ______ ____
ROOT
ATOM      1  O   UNL     1       2.575   6.004  20.775  0.00  0.00    +0.000 OA
ATOM      2  C   UNL     1       2.217   6.855  19.974  0.00  0.00    +0.000 C 
ATOM      3  S   UNL     1       1.195   8.199  20.443  0.00  0.00    +0.000 S 
ATOM      4  C   UNL     1       1.501   9.034  18.974  0.00  0.00    +0.000 C 
ATOM      5  C   UNL     1       1.158  10.291  18.660  0.00  0.00    +0.000 C 
ATOM      6  C   UNL     1       2.286   8.172  18.053  0.00  0.00    +0.000 C 
ATOM      7  O   UNL     1       2.650   8.542  16.945  0.00  0.00    +0.000 OA
ATOM      8  N   UNL     1       2.578   6.971  18.659  0.00  0.00    +0.000 N 
ENDROOT
BRANCH   5   9
ATOM      9  C   UNL     1       0.403  11.180  19.552  0.00  0.00    +0.000 A 
ATOM     10  C   UNL     1       1.111  11.959  20.478  0.00  0.00    +0.000 A 
ATOM     11  C   UNL     1       0.427  12.768  21.388  0.00  0.00    +0.000 A 
ATOM     12  C   UNL     1      -0.966  12.805  21.371  0.00  0.00    +0.000 A 
ATOM     13 CL   UNL     1      -1.806  13.792  22.502  0.00  0.00    +0.000 Cl
ATOM     14  C   UNL     1      -1.684  12.046  20.452  0.00  0.00    +0.000 A 
ATOM     15  C   UNL     1      -1.001  11.232  19.546  0.00  0.00    +0.000 A 
ATOM     16 CL   UNL     1      -1.939  10.293  18.436  0.00  0.00    +0.000 Cl
ENDBRANCH   5   9
BRANCH   8  17
ATOM     17  C   UNL     1       3.407   5.974  17.992  0.00  0.00    +0.000 C 
BRANCH  17  18
ATOM     18  C   UNL     1       2.964   4.563  18.303  0.00  0.00    +0.000 A 
ATOM     19  C   UNL     1       1.667   4.163  17.951  0.00  0.00    +0.000 A 
ATOM     20  F   UNL     1       0.889   4.982  17.231  0.00  0.00    +0.000 F 
ATOM     21  C   UNL     1       1.144   2.927  18.320  0.00  0.00    +0.000 A 
ATOM     22  C   UNL     1       1.930   2.032  19.036  0.00  0.00    +0.000 A 
ATOM     23  C   UNL     1       3.244   2.375  19.347  0.00  0.00    +0.000 A 
ATOM     24  C   UNL     1       3.758   3.628  18.983  0.00  0.00    +0.000 A 
ATOM     25 CL   UNL     1       5.405   3.937  19.393  0.00  0.00    +0.000 Cl
ENDBRANCH  17  18
ENDBRANCH   8  17
TORSDOF 3
ENDMDL
MODEL 8
REMARK VINA RESULT:      -6.9      2.426      7.785
REMARK  Name = 
REMARK  3 active torsions:
REMARK  status: ('A' for Active; 'I' for Inactive)
REMARK    1  A    between atoms: C_5  and  C_6
REMARK    2  A    between atoms: N_16  and  C_17
REMARK    3  A    between atoms: C_17  and  C_18
REMARK                            x       y       z     vdW  Elec       q    Type
REMARK                         _______ _______ _______ _____ _____    ______ ____
ROOT
ATOM      1  O   UNL     1       2.697   5.871  20.751  0.00  0.00    +0.000 OA
ATOM      2  C   UNL     1       2.208   6.769  20.084  0.00  0.00    +0.000 C 
ATOM      3  S   UNL     1       1.051   7.900  20.759  0.00  0.00    +0.000 S 
ATOM      4  C   UNL     1       1.193   8.955  19.411  0.00  0.00    +0.000 C 
ATOM      5  C   UNL     1       0.689  10.190  19.282  0.00  0.00    +0.000 C 
ATOM      6  C   UNL     1       2.038   8.330  18.362  0.00  0.00    +0.000 C 
ATOM      7  O   UNL     1       2.309   8.887  17.307  0.00  0.00    +0.000 OA
ATOM      8  N   UNL     1       2.497   7.104  18.789  0.00  0.00    +0.000 N 
ENDROOT
BRANCH   5   9
ATOM      9  C   UNL     1      -0.131  10.850  20.306  0.00  0.00    +0.000 A 
ATOM     10  C   UNL     1       0.097  10.534  21.653  0.00  0.00    +0.000 A 
ATOM     11  C   UNL     1      -0.705  11.090  22.653  0.00  0.00    +0.000 A 
ATOM     12  C   UNL     1      -1.730  11.969  22.310  0.00  0.00    +0.000 A 
ATOM     13 CL   UNL     1      -2.724  12.642  23.543  0.00  0.00    +0.000 Cl
ATOM     14  C   UNL     1      -1.963  12.302  20.979  0.00  0.00    +0.000 A 
ATOM     15  C   UNL     1      -1.166  11.742  19.978  0.00  0.00    +0.000 A 
ATOM     16 CL   UNL     1      -1.507  12.172  18.337  0.00  0.00    +0.000 Cl
ENDBRANCH   5   9
BRANCH   8  17
ATOM     17  C   UNL     1       3.412   6.317  17.972  0.00  0.00    +0.000 C 
BRANCH  17  18
ATOM     18  C   UNL     1       3.211   4.831  18.159  0.00  0.00    +0.000 A 
ATOM     19  C   UNL     1       1.974   4.264  17.821  0.00  0.00    +0.000 A 
ATOM     20  F   UNL     1       1.040   5.010  17.217  0.00  0.00    +0.000 F 
ATOM     21  C   UNL     1       1.670   2.931  18.087  0.00  0.00    +0.000 A 
ATOM     22  C   UNL     1       2.623   2.112  18.678  0.00  0.00    +0.000 A 
ATOM     23  C   UNL     1       3.883   2.630  18.969  0.00  0.00    +0.000 A 
ATOM     24  C   UNL     1       4.177   3.976  18.711  0.00  0.00    +0.000 A 
ATOM     25 CL   UNL     1       5.775   4.505  19.084  0.00  0.00    +0.000 Cl
ENDBRANCH  17  18
ENDBRANCH   8  17
TORSDOF 3
ENDMDL
MODEL 9
REMARK VINA RESULT:      -6.9      7.477     10.851
REMARK  Name = 
REMARK  3 active torsions:
REMARK  status: ('A' for Active; 'I' for Inactive)
REMARK    1  A    between atoms: C_5  and  C_6
REMARK    2  A    between atoms: N_16  and  C_17
REMARK    3  A    between atoms: C_17  and  C_18
REMARK                            x       y       z     vdW  Elec       q    Type
REMARK                         _______ _______ _______ _____ _____    ______ ____
ROOT
ATOM      1  O   UNL     1       7.257  15.541  21.747  0.00  0.00    +0.000 OA
ATOM      2  C   UNL     1       6.717  15.221  20.699  0.00  0.00    +0.000 C 
ATOM      3  S   UNL     1       4.987  15.371  20.463  0.00  0.00    +0.000 S 
ATOM      4  C   UNL     1       5.128  15.131  18.769  0.00  0.00    +0.000 C 
ATOM      5  C   UNL     1       4.173  15.276  17.840  0.00  0.00    +0.000 C 
ATOM      6  C   UNL     1       6.528  14.777  18.419  0.00  0.00    +0.000 C 
ATOM      7  O   UNL     1       6.895  14.573  17.271  0.00  0.00    +0.000 OA
ATOM      8  N   UNL     1       7.316  14.785  19.548  0.00  0.00    +0.000 N 
ENDROOT
BRANCH   5   9
ATOM      9  C   UNL     1       2.785  15.647  18.144  0.00  0.00    +0.000 A 
ATOM     10  C   UNL     1       2.413  16.994  18.037  0.00  0.00    +0.000 A 
ATOM     11  C   UNL     1       1.120  17.398  18.381  0.00  0.00    +0.000 A 
ATOM     12  C   UNL     1       0.195  16.455  18.825  0.00  0.00    +0.000 A 
ATOM     13 CL   UNL     1      -1.392  16.957  19.260  0.00  0.00    +0.000 Cl
ATOM     14  C   UNL     1       0.545  15.112  18.926  0.00  0.00    +0.000 A 
ATOM     15  C   UNL     1       1.839  14.708  18.589  0.00  0.00    +0.000 A 
ATOM     16 CL   UNL     1       2.231  13.031  18.750  0.00  0.00    +0.000 Cl
ENDBRANCH   5   9
BRANCH   8  17
ATOM     17  C   UNL     1       8.751  14.545  19.465  0.00  0.00    +0.000 C 
BRANCH  17  18
ATOM     18  C   UNL     1       9.088  13.073  19.520  0.00  0.00    +0.000 A 
ATOM     19  C   UNL     1       9.248  12.366  18.319  0.00  0.00    +0.000 A 
ATOM     20  F   UNL     1       9.235  13.022  17.152  0.00  0.00    +0.000 F 
ATOM     21  C   UNL     1       9.428  10.986  18.287  0.00  0.00    +0.000 A 
ATOM     22  C   UNL     1       9.485  10.271  19.477  0.00  0.00    +0.000 A 
ATOM     23  C   UNL     1       9.392  10.953  20.689  0.00  0.00    +0.000 A 
ATOM     24  C   UNL     1       9.197  12.341  20.711  0.00  0.00    +0.000 A 
ATOM     25 CL   UNL     1       9.123  13.086  22.265  0.00  0.00    +0.000 Cl
ENDBRANCH  17  18
ENDBRANCH   8  17
TORSDOF 3
ENDMDL
