MODEL 1
REMARK VINA RESULT:      -6.8      0.000      0.000
REMARK  Name = 
REMARK  8 active torsions:
REMARK  status: ('A' for Active; 'I' for Inactive)
REMARK    1  A    between atoms: C_1  and  C_2
REMARK    2  A    between atoms: C_2  and  C_3
REMARK    3  A    between atoms: C_3  and  C_4
REMARK    4  A    between atoms: C_7  and  C_8
REMARK    5  A    between atoms: C_10  and  C_11
REMARK    6  A    between atoms: C_16  and  N_17
REMARK    7  A    between atoms: N_17  and  C_18
REMARK    8  A    between atoms: N_17  and  C_19
REMARK                            x       y       z     vdW  Elec       q    Type
REMARK                         _______ _______ _______ _____ _____    ______ ____
ROOT
ATOM      1  C   UNL     1       4.083   4.912  18.943  0.00  0.00    +0.000 A 
ATOM      2  C   UNL     1       3.094   5.401  19.792  0.00  0.00    +0.000 A 
ATOM      3  N   UNL     1       2.426   6.545  19.604  0.00  0.00    +0.000 NA
ATOM      4  C   UNL     1       2.716   7.213  18.480  0.00  0.00    +0.000 A 
ATOM      5  C   UNL     1       2.102   8.563  18.289  0.00  0.00    +0.000 C 
ATOM      6  N   UNL     1       3.601   6.804  17.554  0.00  0.00    +0.000 NA
ATOM      7  C   UNL     1       4.319   5.680  17.793  0.00  0.00    +0.000 A 
ENDROOT
BRANCH   7   8
ATOM      8  C   UNL     1       5.298   5.330  16.714  0.00  0.00    +0.000 A 
ATOM      9  C   UNL     1       4.762   4.624  15.596  0.00  0.00    +0.000 A 
ATOM     10  C   UNL     1       5.539   4.119  14.558  0.00  0.00    +0.000 A 
ATOM     11  C   UNL     1       6.891   4.386  14.548  0.00  0.00    +0.000 A 
ATOM     12  C   UNL     1       7.439   5.151  15.573  0.00  0.00    +0.000 A 
ATOM     13  C   UNL     1       6.692   5.657  16.679  0.00  0.00    +0.000 A 
BRANCH  13  14
ATOM     14  N   UNL     1       7.457   6.348  17.633  0.00  0.00    +0.000 N 
ATOM     15  C   UNL     1       7.494   7.817  17.554  0.00  0.00    +0.000 C 
ATOM     16  C   UNL     1       7.705   5.846  18.977  0.00  0.00    +0.000 C 
ENDBRANCH  13  14
ENDBRANCH   7   8
BRANCH   1  17
ATOM     17  C   UNL     1       4.743   3.595  19.286  0.00  0.00    +0.000 C 
BRANCH  17  19
ATOM     18  C   UNL     1       3.341   1.933  17.994  0.00  0.00    +0.000 C 
ATOM     19  C   UNL     1       3.829   2.367  19.367  0.00  0.00    +0.000 C 
ENDBRANCH  17  19
ENDBRANCH   1  17
TORSDOF 4
ENDMDL
MODEL 2
REMARK VINA RESULT:      -6.7      1.452      5.036
REMARK  Name = 
REMARK  8 active torsions:
REMARK  status: ('A' for Active; 'I' for Inactive)
REMARK    1  A    between atoms: C_1  and  C_2
REMARK    2  A    between atoms: C_2  and  C_3
REMARK    3  A    between atoms: C_3  and  C_4
REMARK    4  A    between atoms: C_7  and  C_8
REMARK    5  A    between atoms: C_10  and  C_11
REMARK    6  A    between atoms: C_16  and  N_17
REMARK    7  A    between atoms: N_17  and  C_18
REMARK    8  A    between atoms: N_17  and  C_19
REMARK                            x       y       z     vdW  Elec       q    Type
REMARK                         _______ _______ _______ _____ _____    ______ ____
ROOT
ATOM      1  C   UNL     1       5.864   4.452  16.230  0.00  0.00    +0.000 A 
ATOM      2  C   UNL     1       7.207   4.813  16.180  0.00  0.00    +0.000 A 
ATOM      3  N   UNL     1       7.942   5.167  17.241  0.00  0.00    +0.000 NA
ATOM      4  C   UNL     1       7.323   5.106  18.426  0.00  0.00    +0.000 A 
ATOM      5  C   UNL     1       8.053   5.623  19.625  0.00  0.00    +0.000 C 
ATOM      6  N   UNL     1       6.051   4.708  18.606  0.00  0.00    +0.000 NA
ATOM      7  C   UNL     1       5.301   4.419  17.515  0.00  0.00    +0.000 A 
ENDROOT
BRANCH   7   8
ATOM      8  C   UNL     1       3.891   4.016  17.823  0.00  0.00    +0.000 A 
ATOM      9  C   UNL     1       3.627   2.614  17.797  0.00  0.00    +0.000 A 
ATOM     10  C   UNL     1       2.356   2.065  17.945  0.00  0.00    +0.000 A 
ATOM     11  C   UNL     1       1.298   2.903  18.223  0.00  0.00    +0.000 A 
ATOM     12  C   UNL     1       1.528   4.269  18.349  0.00  0.00    +0.000 A 
ATOM     13  C   UNL     1       2.804   4.884  18.167  0.00  0.00    +0.000 A 
BRANCH  13  14
ATOM     14  N   UNL     1       2.798   6.284  18.275  0.00  0.00    +0.000 N 
ATOM     15  C   UNL     1       2.455   6.873  19.580  0.00  0.00    +0.000 C 
ATOM     16  C   UNL     1       3.636   7.154  17.462  0.00  0.00    +0.000 C 
ENDBRANCH  13  14
ENDBRANCH   7   8
BRANCH   1  17
ATOM     17  C   UNL     1       5.170   4.067  14.943  0.00  0.00    +0.000 C 
BRANCH  17  19
ATOM     18  C   UNL     1       5.253   3.487  12.483  0.00  0.00    +0.000 C 
ATOM     19  C   UNL     1       6.061   3.870  13.712  0.00  0.00    +0.000 C 
ENDBRANCH  17  19
ENDBRANCH   1  17
TORSDOF 4
ENDMDL
MODEL 3
REMARK VINA RESULT:      -6.7      1.302      3.329
REMARK  Name = 
REMARK  8 active torsions:
REMARK  status: ('A' for Active; 'I' for Inactive)
REMARK    1  A    between atoms: C_1  and  C_2
REMARK    2  A    between atoms: C_2  and  C_3
REMARK    3  A    between atoms: C_3  and  C_4
REMARK    4  A    between atoms: C_7  and  C_8
REMARK    5  A    between atoms: C_10  and  C_11
REMARK    6  A    between atoms: C_16  and  N_17
REMARK    7  A    between atoms: N_17  and  C_18
REMARK    8  A    between atoms: N_17  and  C_19
REMARK                            x       y       z     vdW  Elec       q    Type
REMARK                         _______ _______ _______ _____ _____    ______ ____
ROOT
ATOM      1  C   UNL     1       3.307   6.260  18.529  0.00  0.00    +0.000 A 
ATOM      2  C   UNL     1       2.488   6.124  19.647  0.00  0.00    +0.000 A 
ATOM      3  N   UNL     1       2.397   5.019  20.395  0.00  0.00    +0.000 NA
ATOM      4  C   UNL     1       3.206   4.010  20.047  0.00  0.00    +0.000 A 
ATOM      5  C   UNL     1       3.045   2.706  20.762  0.00  0.00    +0.000 C 
ATOM      6  N   UNL     1       4.085   4.050  19.031  0.00  0.00    +0.000 NA
ATOM      7  C   UNL     1       4.116   5.151  18.241  0.00  0.00    +0.000 A 
ENDROOT
BRANCH   7   8
ATOM      8  C   UNL     1       5.108   5.080  17.121  0.00  0.00    +0.000 A 
ATOM      9  C   UNL     1       4.696   4.338  15.974  0.00  0.00    +0.000 A 
ATOM     10  C   UNL     1       5.525   4.070  14.888  0.00  0.00    +0.000 A 
ATOM     11  C   UNL     1       6.788   4.621  14.865  0.00  0.00    +0.000 A 
ATOM     12  C   UNL     1       7.197   5.427  15.922  0.00  0.00    +0.000 A 
ATOM     13  C   UNL     1       6.399   5.700  17.074  0.00  0.00    +0.000 A 
BRANCH  13  14
ATOM     14  N   UNL     1       7.033   6.484  18.051  0.00  0.00    +0.000 N 
ATOM     15  C   UNL     1       7.627   5.795  19.209  0.00  0.00    +0.000 C 
ATOM     16  C   UNL     1       7.670   7.762  17.764  0.00  0.00    +0.000 C 
ENDBRANCH  13  14
ENDBRANCH   7   8
BRANCH   1  17
ATOM     17  C   UNL     1       3.308   7.579  17.789  0.00  0.00    +0.000 C 
BRANCH  17  19
ATOM     18  C   UNL     1       2.159   9.830  17.885  0.00  0.00    +0.000 C 
ATOM     19  C   UNL     1       1.973   8.330  17.718  0.00  0.00    +0.000 C 
ENDBRANCH  17  19
ENDBRANCH   1  17
TORSDOF 4
ENDMDL
MODEL 4
REMARK VINA RESULT:      -6.7      1.650      5.407
REMARK  Name = 
REMARK  8 active torsions:
REMARK  status: ('A' for Active; 'I' for Inactive)
REMARK    1  A    between atoms: C_1  and  C_2
REMARK    2  A    between atoms: C_2  and  C_3
REMARK    3  A    between atoms: C_3  and  C_4
REMARK    4  A    between atoms: C_7  and  C_8
REMARK    5  A    between atoms: C_10  and  C_11
REMARK    6  A    between atoms: C_16  and  N_17
REMARK    7  A    between atoms: N_17  and  C_18
REMARK    8  A    between atoms: N_17  and  C_19
REMARK                            x       y       z     vdW  Elec       q    Type
REMARK                         _______ _______ _______ _____ _____    ______ ____
ROOT
ATOM      1  C   UNL     1       6.692   4.997  17.148  0.00  0.00    +0.000 A 
ATOM      2  C   UNL     1       7.547   4.766  16.074  0.00  0.00    +0.000 A 
ATOM      3  N   UNL     1       7.150   4.425  14.843  0.00  0.00    +0.000 NA
ATOM      4  C   UNL     1       5.826   4.364  14.653  0.00  0.00    +0.000 A 
ATOM      5  C   UNL     1       5.330   3.853  13.338  0.00  0.00    +0.000 C 
ATOM      6  N   UNL     1       4.904   4.631  15.594  0.00  0.00    +0.000 NA
ATOM      7  C   UNL     1       5.323   4.908  16.853  0.00  0.00    +0.000 A 
ENDROOT
BRANCH   7   8
ATOM      8  C   UNL     1       4.216   5.160  17.832  0.00  0.00    +0.000 A 
ATOM      9  C   UNL     1       3.705   6.491  17.859  0.00  0.00    +0.000 A 
ATOM     10  C   UNL     1       2.759   6.936  18.779  0.00  0.00    +0.000 A 
ATOM     11  C   UNL     1       2.211   6.030  19.660  0.00  0.00    +0.000 A 
ATOM     12  C   UNL     1       2.615   4.700  19.606  0.00  0.00    +0.000 A 
ATOM     13  C   UNL     1       3.609   4.203  18.708  0.00  0.00    +0.000 A 
BRANCH  13  14
ATOM     14  N   UNL     1       3.912   2.841  18.869  0.00  0.00    +0.000 N 
ATOM     15  C   UNL     1       4.300   2.376  20.211  0.00  0.00    +0.000 C 
ATOM     16  C   UNL     1       3.328   1.788  18.050  0.00  0.00    +0.000 C 
ENDBRANCH  13  14
ENDBRANCH   7   8
BRANCH   1  17
ATOM     17  C   UNL     1       7.292   5.386  18.481  0.00  0.00    +0.000 C 
BRANCH  17  19
ATOM     18  C   UNL     1       7.413   7.732  17.545  0.00  0.00    +0.000 C 
ATOM     19  C   UNL     1       7.991   6.748  18.550  0.00  0.00    +0.000 C 
ENDBRANCH  17  19
ENDBRANCH   1  17
TORSDOF 4
ENDMDL
MODEL 5
REMARK VINA RESULT:      -6.5      0.864      1.309
REMARK  Name = 
REMARK  8 active torsions:
REMARK  status: ('A' for Active; 'I' for Inactive)
REMARK    1  A    between atoms: C_1  and  C_2
REMARK    2  A    between atoms: C_2  and  C_3
REMARK    3  A    between atoms: C_3  and  C_4
REMARK    4  A    between atoms: C_7  and  C_8
REMARK    5  A    between atoms: C_10  and  C_11
REMARK    6  A    between atoms: C_16  and  N_17
REMARK    7  A    between atoms: N_17  and  C_18
REMARK    8  A    between atoms: N_17  and  C_19
REMARK                            x       y       z     vdW  Elec       q    Type
REMARK                         _______ _______ _______ _____ _____    ______ ____
ROOT
ATOM      1  C   UNL     1       3.543   5.539  19.089  0.00  0.00    +0.000 A 
ATOM      2  C   UNL     1       2.526   6.212  19.759  0.00  0.00    +0.000 A 
ATOM      3  N   UNL     1       2.030   7.401  19.397  0.00  0.00    +0.000 NA
ATOM      4  C   UNL     1       2.534   7.925  18.272  0.00  0.00    +0.000 A 
ATOM      5  C   UNL     1       2.117   9.311  17.898  0.00  0.00    +0.000 C 
ATOM      6  N   UNL     1       3.468   7.336  17.506  0.00  0.00    +0.000 NA
ATOM      7  C   UNL     1       4.009   6.166  17.923  0.00  0.00    +0.000 A 
ENDROOT
BRANCH   7   8
ATOM      8  C   UNL     1       5.062   5.611  17.013  0.00  0.00    +0.000 A 
ATOM      9  C   UNL     1       4.591   4.772  15.960  0.00  0.00    +0.000 A 
ATOM     10  C   UNL     1       5.429   4.079  15.091  0.00  0.00    +0.000 A 
ATOM     11  C   UNL     1       6.790   4.275  15.182  0.00  0.00    +0.000 A 
ATOM     12  C   UNL     1       7.286   5.158  16.136  0.00  0.00    +0.000 A 
ATOM     13  C   UNL     1       6.471   5.861  17.075  0.00  0.00    +0.000 A 
BRANCH  13  14
ATOM     14  N   UNL     1       7.185   6.648  17.993  0.00  0.00    +0.000 N 
ATOM     15  C   UNL     1       7.904   5.960  19.077  0.00  0.00    +0.000 C 
ATOM     16  C   UNL     1       7.765   7.941  17.658  0.00  0.00    +0.000 C 
ENDBRANCH  13  14
ENDBRANCH   7   8
BRANCH   1  17
ATOM     17  C   UNL     1       3.991   4.195  19.617  0.00  0.00    +0.000 C 
BRANCH  17  19
ATOM     18  C   UNL     1       2.594   2.771  21.172  0.00  0.00    +0.000 C 
ATOM     19  C   UNL     1       2.919   3.105  19.725  0.00  0.00    +0.000 C 
ENDBRANCH  17  19
ENDBRANCH   1  17
TORSDOF 4
ENDMDL
MODEL 6
REMARK VINA RESULT:      -6.3      1.836      2.810
REMARK  Name = 
REMARK  8 active torsions:
REMARK  status: ('A' for Active; 'I' for Inactive)
REMARK    1  A    between atoms: C_1  and  C_2
REMARK    2  A    between atoms: C_2  and  C_3
REMARK    3  A    between atoms: C_3  and  C_4
REMARK    4  A    between atoms: C_7  and  C_8
REMARK    5  A    between atoms: C_10  and  C_11
REMARK    6  A    between atoms: C_16  and  N_17
REMARK    7  A    between atoms: N_17  and  C_18
REMARK    8  A    between atoms: N_17  and  C_19
REMARK                            x       y       z     vdW  Elec       q    Type
REMARK                         _______ _______ _______ _____ _____    ______ ____
ROOT
ATOM      1  C   UNL     1       2.103   6.369  20.164  0.00  0.00    +0.000 A 
ATOM      2  C   UNL     1       1.503   7.528  20.648  0.00  0.00    +0.000 A 
ATOM      3  N   UNL     1       1.403   8.676  19.968  0.00  0.00    +0.000 NA
ATOM      4  C   UNL     1       1.877   8.655  18.716  0.00  0.00    +0.000 A 
ATOM      5  C   UNL     1       1.917   9.946  17.961  0.00  0.00    +0.000 C 
ATOM      6  N   UNL     1       2.415   7.578  18.119  0.00  0.00    +0.000 NA
ATOM      7  C   UNL     1       2.570   6.443  18.843  0.00  0.00    +0.000 A 
ENDROOT
BRANCH   7   8
ATOM      8  C   UNL     1       3.208   5.313  18.094  0.00  0.00    +0.000 A 
ATOM      9  C   UNL     1       2.316   4.308  17.613  0.00  0.00    +0.000 A 
ATOM     10  C   UNL     1       2.737   3.133  16.997  0.00  0.00    +0.000 A 
ATOM     11  C   UNL     1       4.081   2.956  16.751  0.00  0.00    +0.000 A 
ATOM     12  C   UNL     1       4.977   3.954  17.122  0.00  0.00    +0.000 A 
ATOM     13  C   UNL     1       4.599   5.158  17.790  0.00  0.00    +0.000 A 
BRANCH  13  14
ATOM     14  N   UNL     1       5.672   5.998  18.131  0.00  0.00    +0.000 N 
ATOM     15  C   UNL     1       6.626   5.518  19.145  0.00  0.00    +0.000 C 
ATOM     16  C   UNL     1       6.258   6.963  17.212  0.00  0.00    +0.000 C 
ENDBRANCH  13  14
ENDBRANCH   7   8
BRANCH   1  17
ATOM     17  C   UNL     1       2.129   5.144  21.051  0.00  0.00    +0.000 C 
BRANCH  17  19
ATOM     18  C   UNL     1       1.670   2.658  20.958  0.00  0.00    +0.000 C 
ATOM     19  C   UNL     1       1.098   4.051  20.747  0.00  0.00    +0.000 C 
ENDBRANCH  17  19
ENDBRANCH   1  17
TORSDOF 4
ENDMDL
MODEL 7
REMARK VINA RESULT:      -6.3      1.311      4.905
REMARK  Name = 
REMARK  8 active torsions:
REMARK  status: ('A' for Active; 'I' for Inactive)
REMARK    1  A    between atoms: C_1  and  C_2
REMARK    2  A    between atoms: C_2  and  C_3
REMARK    3  A    between atoms: C_3  and  C_4
REMARK    4  A    between atoms: C_7  and  C_8
REMARK    5  A    between atoms: C_10  and  C_11
REMARK    6  A    between atoms: C_16  and  N_17
REMARK    7  A    between atoms: N_17  and  C_18
REMARK    8  A    between atoms: N_17  and  C_19
REMARK                            x       y       z     vdW  Elec       q    Type
REMARK                         _______ _______ _______ _____ _____    ______ ____
ROOT
ATOM      1  C   UNL     1       5.890   5.853  17.050  0.00  0.00    +0.000 A 
ATOM      2  C   UNL     1       7.185   6.353  17.156  0.00  0.00    +0.000 A 
ATOM      3  N   UNL     1       7.957   6.246  18.243  0.00  0.00    +0.000 NA
ATOM      4  C   UNL     1       7.436   5.553  19.263  0.00  0.00    +0.000 A 
ATOM      5  C   UNL     1       8.198   5.521  20.550  0.00  0.00    +0.000 C 
ATOM      6  N   UNL     1       6.226   4.967  19.251  0.00  0.00    +0.000 NA
ATOM      7  C   UNL     1       5.429   5.144  18.169  0.00  0.00    +0.000 A 
ENDROOT
BRANCH   7   8
ATOM      8  C   UNL     1       4.092   4.476  18.271  0.00  0.00    +0.000 A 
ATOM      9  C   UNL     1       4.052   3.106  17.874  0.00  0.00    +0.000 A 
ATOM     10  C   UNL     1       2.880   2.359  17.793  0.00  0.00    +0.000 A 
ATOM     11  C   UNL     1       1.696   2.934  18.201  0.00  0.00    +0.000 A 
ATOM     12  C   UNL     1       1.705   4.239  18.682  0.00  0.00    +0.000 A 
ATOM     13  C   UNL     1       2.873   5.058  18.748  0.00  0.00    +0.000 A 
BRANCH  13  14
ATOM     14  N   UNL     1       2.644   6.367  19.204  0.00  0.00    +0.000 N 
ATOM     15  C   UNL     1       2.568   7.442  18.201  0.00  0.00    +0.000 C 
ATOM     16  C   UNL     1       1.905   6.673  20.421  0.00  0.00    +0.000 C 
ENDBRANCH  13  14
ENDBRANCH   7   8
BRANCH   1  17
ATOM     17  C   UNL     1       5.144   6.046  15.749  0.00  0.00    +0.000 C 
BRANCH  17  19
ATOM     18  C   UNL     1       5.971   3.851  14.803  0.00  0.00    +0.000 C 
ATOM     19  C   UNL     1       5.704   5.321  14.520  0.00  0.00    +0.000 C 
ENDBRANCH  17  19
ENDBRANCH   1  17
TORSDOF 4
ENDMDL
MODEL 8
REMARK VINA RESULT:      -6.3      1.552      5.533
REMARK  Name = 
REMARK  8 active torsions:
REMARK  status: ('A' for Active; 'I' for Inactive)
REMARK    1  A    between atoms: C_1  and  C_2
REMARK    2  A    between atoms: C_2  and  C_3
REMARK    3  A    between atoms: C_3  and  C_4
REMARK    4  A    between atoms: C_7  and  C_8
REMARK    5  A    between atoms: C_10  and  C_11
REMARK    6  A    between atoms: C_16  and  N_17
REMARK    7  A    between atoms: N_17  and  C_18
REMARK    8  A    between atoms: N_17  and  C_19
REMARK                            x       y       z     vdW  Elec       q    Type
REMARK                         _______ _______ _______ _____ _____    ______ ____
ROOT
ATOM      1  C   UNL     1       6.757   6.071  16.741  0.00  0.00    +0.000 A 
ATOM      2  C   UNL     1       7.672   5.618  15.795  0.00  0.00    +0.000 A 
ATOM      3  N   UNL     1       7.358   4.888  14.718  0.00  0.00    +0.000 NA
ATOM      4  C   UNL     1       6.054   4.641  14.541  0.00  0.00    +0.000 A 
ATOM      5  C   UNL     1       5.661   3.716  13.434  0.00  0.00    +0.000 C 
ATOM      6  N   UNL     1       5.075   5.083  15.349  0.00  0.00    +0.000 NA
ATOM      7  C   UNL     1       5.415   5.762  16.471  0.00  0.00    +0.000 A 
ENDROOT
BRANCH   7   8
ATOM      8  C   UNL     1       4.252   6.182  17.317  0.00  0.00    +0.000 A 
ATOM      9  C   UNL     1       3.840   7.540  17.175  0.00  0.00    +0.000 A 
ATOM     10  C   UNL     1       2.856   8.135  17.959  0.00  0.00    +0.000 A 
ATOM     11  C   UNL     1       2.170   7.359  18.867  0.00  0.00    +0.000 A 
ATOM     12  C   UNL     1       2.477   6.006  18.973  0.00  0.00    +0.000 A 
ATOM     13  C   UNL     1       3.503   5.359  18.219  0.00  0.00    +0.000 A 
BRANCH  13  14
ATOM     14  N   UNL     1       3.689   4.002  18.532  0.00  0.00    +0.000 N 
ATOM     15  C   UNL     1       3.137   3.000  17.607  0.00  0.00    +0.000 C 
ATOM     16  C   UNL     1       4.825   3.505  19.296  0.00  0.00    +0.000 C 
ENDBRANCH  13  14
ENDBRANCH   7   8
BRANCH   1  17
ATOM     17  C   UNL     1       7.266   6.896  17.902  0.00  0.00    +0.000 C 
BRANCH  17  19
ATOM     18  C   UNL     1       8.639   8.890  18.632  0.00  0.00    +0.000 C 
ATOM     19  C   UNL     1       7.675   8.341  17.593  0.00  0.00    +0.000 C 
ENDBRANCH  17  19
ENDBRANCH   1  17
TORSDOF 4
ENDMDL
MODEL 9
REMARK VINA RESULT:      -6.3      1.680      5.125
REMARK  Name = 
REMARK  8 active torsions:
REMARK  status: ('A' for Active; 'I' for Inactive)
REMARK    1  A    between atoms: C_1  and  C_2
REMARK    2  A    between atoms: C_2  and  C_3
REMARK    3  A    between atoms: C_3  and  C_4
REMARK    4  A    between atoms: C_7  and  C_8
REMARK    5  A    between atoms: C_10  and  C_11
REMARK    6  A    between atoms: C_16  and  N_17
REMARK    7  A    between atoms: N_17  and  C_18
REMARK    8  A    between atoms: N_17  and  C_19
REMARK                            x       y       z     vdW  Elec       q    Type
REMARK                         _______ _______ _______ _____ _____    ______ ____
ROOT
ATOM      1  C   UNL     1       6.289   4.776  17.350  0.00  0.00    +0.000 A 
ATOM      2  C   UNL     1       7.350   5.008  16.479  0.00  0.00    +0.000 A 
ATOM      3  N   UNL     1       7.337   4.727  15.171  0.00  0.00    +0.000 NA
ATOM      4  C   UNL     1       6.187   4.240  14.689  0.00  0.00    +0.000 A 
ATOM      5  C   UNL     1       6.163   3.780  13.266  0.00  0.00    +0.000 C 
ATOM      6  N   UNL     1       5.077   4.038  15.419  0.00  0.00    +0.000 NA
ATOM      7  C   UNL     1       5.127   4.262  16.755  0.00  0.00    +0.000 A 
ENDROOT
BRANCH   7   8
ATOM      8  C   UNL     1       3.847   3.977  17.479  0.00  0.00    +0.000 A 
ATOM      9  C   UNL     1       3.535   2.597  17.666  0.00  0.00    +0.000 A 
ATOM     10  C   UNL     1       2.339   2.143  18.213  0.00  0.00    +0.000 A 
ATOM     11  C   UNL     1       1.432   3.066  18.687  0.00  0.00    +0.000 A 
ATOM     12  C   UNL     1       1.737   4.421  18.608  0.00  0.00    +0.000 A 
ATOM     13  C   UNL     1       2.933   4.937  18.021  0.00  0.00    +0.000 A 
BRANCH  13  14
ATOM     14  N   UNL     1       3.007   6.339  17.986  0.00  0.00    +0.000 N 
ATOM     15  C   UNL     1       2.698   7.076  19.223  0.00  0.00    +0.000 C 
ATOM     16  C   UNL     1       3.895   7.072  17.095  0.00  0.00    +0.000 C 
ENDBRANCH  13  14
ENDBRANCH   7   8
BRANCH   1  17
ATOM     17  C   UNL     1       6.451   5.157  18.805  0.00  0.00    +0.000 C 
BRANCH  17  19
ATOM     18  C   UNL     1       8.026   7.127  18.622  0.00  0.00    +0.000 C 
ATOM     19  C   UNL     1       7.806   5.744  19.216  0.00  0.00    +0.000 C 
ENDBRANCH  17  19
ENDBRANCH   1  17
TORSDOF 4
ENDMDL
