MODEL 1
REMARK VINA RESULT:      -5.1      0.000      0.000
REMARK  Name = 
REMARK  1 active torsions:
REMARK  status: ('A' for Active; 'I' for Inactive)
REMARK    1  A    between atoms: C_2  and  C_4
REMARK                            x       y       z     vdW  Elec       q    Type
REMARK                         _______ _______ _______ _____ _____    ______ ____
ROOT
ATOM      1  C   UNL     1       6.933   4.896  16.318  0.00  0.00    +0.000 A 
ATOM      2  N   UNL     1       7.586   5.617  15.424  0.00  0.00    +0.000 NA
ATOM      3  N   UNL     1       7.254   5.243  14.129  0.00  0.00    +0.000 NA
ATOM      4  C   UNL     1       6.373   4.271  14.132  0.00  0.00    +0.000 A 
ATOM      5 CL   UNL     1       5.736   3.577  12.703  0.00  0.00    +0.000 Cl
ATOM      6  S   UNL     1       5.875   3.718  15.658  0.00  0.00    +0.000 S 
ENDROOT
BRANCH   1   8
ATOM      7  N   UNL     1       6.431   4.146  18.529  0.00  0.00    +0.000 N 
ATOM      8  C   UNL     1       7.076   5.074  17.751  0.00  0.00    +0.000 C 
ATOM      9  O   UNL     1       7.724   5.964  18.299  0.00  0.00    +0.000 OA
ATOM     10  H   UNL     1       6.541   4.200  19.531  0.00  0.00    +0.000 HD
ATOM     11  H   UNL     1       5.942   3.362  18.116  0.00  0.00    +0.000 HD
ENDBRANCH   1   8
TORSDOF 1
ENDMDL
MODEL 2
REMARK VINA RESULT:      -4.9      1.303      1.402
REMARK  Name = 
REMARK  1 active torsions:
REMARK  status: ('A' for Active; 'I' for Inactive)
REMARK    1  A    between atoms: C_2  and  C_4
REMARK                            x       y       z     vdW  Elec       q    Type
REMARK                         _______ _______ _______ _____ _____    ______ ____
ROOT
ATOM      1  C   UNL     1       6.414   4.499  17.440  0.00  0.00    +0.000 A 
ATOM      2  N   UNL     1       7.552   4.924  16.921  0.00  0.00    +0.000 NA
ATOM      3  N   UNL     1       7.560   4.796  15.539  0.00  0.00    +0.000 NA
ATOM      4  C   UNL     1       6.429   4.289  15.108  0.00  0.00    +0.000 A 
ATOM      5 CL   UNL     1       6.097   4.008  13.453  0.00  0.00    +0.000 Cl
ATOM      6  S   UNL     1       5.275   3.917  16.296  0.00  0.00    +0.000 S 
ENDROOT
BRANCH   1   8
ATOM      7  N   UNL     1       5.288   3.528  19.310  0.00  0.00    +0.000 N 
ATOM      8  C   UNL     1       6.121   4.522  18.861  0.00  0.00    +0.000 C 
ATOM      9  O   UNL     1       6.564   5.338  19.669  0.00  0.00    +0.000 OA
ATOM     10  H   UNL     1       5.094   3.475  20.299  0.00  0.00    +0.000 HD
ATOM     11  H   UNL     1       4.955   2.802  18.689  0.00  0.00    +0.000 HD
ENDBRANCH   1   8
TORSDOF 1
ENDMDL
MODEL 3
REMARK VINA RESULT:      -4.9      1.119      1.119
REMARK  Name = 
REMARK  1 active torsions:
REMARK  status: ('A' for Active; 'I' for Inactive)
REMARK    1  A    between atoms: C_2  and  C_4
REMARK                            x       y       z     vdW  Elec       q    Type
REMARK                         _______ _______ _______ _____ _____    ______ ____
ROOT
ATOM      1  C   UNL     1       6.877   4.983  16.652  0.00  0.00    +0.000 A 
ATOM      2  N   UNL     1       7.577   5.713  15.802  0.00  0.00    +0.000 NA
ATOM      3  N   UNL     1       7.336   5.336  14.488  0.00  0.00    +0.000 NA
ATOM      4  C   UNL     1       6.471   4.351  14.434  0.00  0.00    +0.000 A 
ATOM      5 CL   UNL     1       5.939   3.650  12.966  0.00  0.00    +0.000 Cl
ATOM      6  S   UNL     1       5.881   3.791  15.923  0.00  0.00    +0.000 S 
ENDROOT
BRANCH   1   8
ATOM      7  N   UNL     1       7.704   6.199  18.534  0.00  0.00    +0.000 N 
ATOM      8  C   UNL     1       6.923   5.162  18.091  0.00  0.00    +0.000 C 
ATOM      9  O   UNL     1       6.318   4.476  18.915  0.00  0.00    +0.000 OA
ATOM     10  H   UNL     1       7.728   6.392  19.525  0.00  0.00    +0.000 HD
ATOM     11  H   UNL     1       8.164   6.824  17.885  0.00  0.00    +0.000 HD
ENDBRANCH   1   8
TORSDOF 1
ENDMDL
MODEL 4
REMARK VINA RESULT:      -4.9      3.024      3.970
REMARK  Name = 
REMARK  1 active torsions:
REMARK  status: ('A' for Active; 'I' for Inactive)
REMARK    1  A    between atoms: C_2  and  C_4
REMARK                            x       y       z     vdW  Elec       q    Type
REMARK                         _______ _______ _______ _____ _____    ______ ____
ROOT
ATOM      1  C   UNL     1       6.859   4.713  15.925  0.00  0.00    +0.000 A 
ATOM      2  N   UNL     1       7.807   4.462  16.811  0.00  0.00    +0.000 NA
ATOM      3  N   UNL     1       7.325   4.551  18.109  0.00  0.00    +0.000 NA
ATOM      4  C   UNL     1       6.050   4.859  18.117  0.00  0.00    +0.000 A 
ATOM      5 CL   UNL     1       5.136   5.038  19.554  0.00  0.00    +0.000 Cl
ATOM      6  S   UNL     1       5.323   5.074  16.598  0.00  0.00    +0.000 S 
ENDROOT
BRANCH   1   8
ATOM      7  N   UNL     1       6.403   3.695  13.813  0.00  0.00    +0.000 N 
ATOM      8  C   UNL     1       7.073   4.682  14.490  0.00  0.00    +0.000 C 
ATOM      9  O   UNL     1       7.782   5.463  13.857  0.00  0.00    +0.000 OA
ATOM     10  H   UNL     1       6.483   3.664  12.807  0.00  0.00    +0.000 HD
ATOM     11  H   UNL     1       5.761   3.074  14.289  0.00  0.00    +0.000 HD
ENDBRANCH   1   8
TORSDOF 1
ENDMDL
MODEL 5
REMARK VINA RESULT:      -4.8      3.088      4.086
REMARK  Name = 
REMARK  1 active torsions:
REMARK  status: ('A' for Active; 'I' for Inactive)
REMARK    1  A    between atoms: C_2  and  C_4
REMARK                            x       y       z     vdW  Elec       q    Type
REMARK                         _______ _______ _______ _____ _____    ______ ____
ROOT
ATOM      1  C   UNL     1       6.775   4.602  15.874  0.00  0.00    +0.000 A 
ATOM      2  N   UNL     1       7.778   4.493  16.727  0.00  0.00    +0.000 NA
ATOM      3  N   UNL     1       7.333   4.522  18.041  0.00  0.00    +0.000 NA
ATOM      4  C   UNL     1       6.028   4.648  18.093  0.00  0.00    +0.000 A 
ATOM      5 CL   UNL     1       5.148   4.706  19.560  0.00  0.00    +0.000 Cl
ATOM      6  S   UNL     1       5.227   4.749  16.600  0.00  0.00    +0.000 S 
ENDROOT
BRANCH   1   8
ATOM      7  N   UNL     1       7.834   5.506  13.934  0.00  0.00    +0.000 N 
ATOM      8  C   UNL     1       6.941   4.592  14.433  0.00  0.00    +0.000 C 
ATOM      9  O   UNL     1       6.364   3.836  13.652  0.00  0.00    +0.000 OA
ATOM     10  H   UNL     1       8.019   5.504  12.942  0.00  0.00    +0.000 HD
ATOM     11  H   UNL     1       8.376   6.101  14.549  0.00  0.00    +0.000 HD
ENDBRANCH   1   8
TORSDOF 1
ENDMDL
MODEL 6
REMARK VINA RESULT:      -4.8      1.692      1.831
REMARK  Name = 
REMARK  1 active torsions:
REMARK  status: ('A' for Active; 'I' for Inactive)
REMARK    1  A    between atoms: C_2  and  C_4
REMARK                            x       y       z     vdW  Elec       q    Type
REMARK                         _______ _______ _______ _____ _____    ______ ____
ROOT
ATOM      1  C   UNL     1       6.629   4.937  17.732  0.00  0.00    +0.000 A 
ATOM      2  N   UNL     1       7.794   4.794  17.124  0.00  0.00    +0.000 NA
ATOM      3  N   UNL     1       7.631   4.471  15.784  0.00  0.00    +0.000 NA
ATOM      4  C   UNL     1       6.359   4.394  15.470  0.00  0.00    +0.000 A 
ATOM      5 CL   UNL     1       5.802   4.026  13.894  0.00  0.00    +0.000 Cl
ATOM      6  S   UNL     1       5.260   4.690  16.729  0.00  0.00    +0.000 S 
ENDROOT
BRANCH   1   8
ATOM      7  N   UNL     1       7.667   5.539  19.797  0.00  0.00    +0.000 N 
ATOM      8  C   UNL     1       6.493   5.284  19.134  0.00  0.00    +0.000 C 
ATOM      9  O   UNL     1       5.431   5.375  19.748  0.00  0.00    +0.000 OA
ATOM     10  H   UNL     1       7.619   5.831  20.763  0.00  0.00    +0.000 HD
ATOM     11  H   UNL     1       8.555   5.537  19.313  0.00  0.00    +0.000 HD
ENDBRANCH   1   8
TORSDOF 1
ENDMDL
MODEL 7
REMARK VINA RESULT:      -4.8      2.865      3.992
REMARK  Name = 
REMARK  1 active torsions:
REMARK  status: ('A' for Active; 'I' for Inactive)
REMARK    1  A    between atoms: C_2  and  C_4
REMARK                            x       y       z     vdW  Elec       q    Type
REMARK                         _______ _______ _______ _____ _____    ______ ____
ROOT
ATOM      1  C   UNL     1       5.954   4.604  17.789  0.00  0.00    +0.000 A 
ATOM      2  N   UNL     1       5.674   4.129  18.990  0.00  0.00    +0.000 NA
ATOM      3  N   UNL     1       4.305   4.073  19.209  0.00  0.00    +0.000 NA
ATOM      4  C   UNL     1       3.644   4.505  18.161  0.00  0.00    +0.000 A 
ATOM      5 CL   UNL     1       1.934   4.561  18.088  0.00  0.00    +0.000 Cl
ATOM      6  S   UNL     1       4.583   5.016  16.843  0.00  0.00    +0.000 S 
ENDROOT
BRANCH   1   8
ATOM      7  N   UNL     1       7.458   5.707  16.297  0.00  0.00    +0.000 N 
ATOM      8  C   UNL     1       7.304   4.765  17.283  0.00  0.00    +0.000 C 
ATOM      9  O   UNL     1       8.291   4.144  17.674  0.00  0.00    +0.000 OA
ATOM     10  H   UNL     1       8.387   5.888  15.948  0.00  0.00    +0.000 HD
ATOM     11  H   UNL     1       6.682   6.282  15.995  0.00  0.00    +0.000 HD
ENDBRANCH   1   8
TORSDOF 1
ENDMDL
MODEL 8
REMARK VINA RESULT:      -4.7      2.099      2.503
REMARK  Name = 
REMARK  1 active torsions:
REMARK  status: ('A' for Active; 'I' for Inactive)
REMARK    1  A    between atoms: C_2  and  C_4
REMARK                            x       y       z     vdW  Elec       q    Type
REMARK                         _______ _______ _______ _____ _____    ______ ____
ROOT
ATOM      1  C   UNL     1       5.829   4.324  17.942  0.00  0.00    +0.000 A 
ATOM      2  N   UNL     1       7.139   4.483  18.003  0.00  0.00    +0.000 NA
ATOM      3  N   UNL     1       7.688   4.673  16.742  0.00  0.00    +0.000 NA
ATOM      4  C   UNL     1       6.758   4.648  15.817  0.00  0.00    +0.000 A 
ATOM      5 CL   UNL     1       7.086   4.863  14.151  0.00  0.00    +0.000 Cl
ATOM      6  S   UNL     1       5.170   4.393  16.359  0.00  0.00    +0.000 S 
ENDROOT
BRANCH   1   8
ATOM      7  N   UNL     1       5.013   2.849  19.634  0.00  0.00    +0.000 N 
ATOM      8  C   UNL     1       4.990   4.116  19.107  0.00  0.00    +0.000 C 
ATOM      9  O   UNL     1       4.292   4.973  19.647  0.00  0.00    +0.000 OA
ATOM     10  H   UNL     1       4.482   2.669  20.474  0.00  0.00    +0.000 HD
ATOM     11  H   UNL     1       5.623   2.135  19.258  0.00  0.00    +0.000 HD
ENDBRANCH   1   8
TORSDOF 1
ENDMDL
MODEL 9
REMARK VINA RESULT:      -4.6      3.053      4.067
REMARK  Name = 
REMARK  1 active torsions:
REMARK  status: ('A' for Active; 'I' for Inactive)
REMARK    1  A    between atoms: C_2  and  C_4
REMARK                            x       y       z     vdW  Elec       q    Type
REMARK                         _______ _______ _______ _____ _____    ______ ____
ROOT
ATOM      1  C   UNL     1       6.232   4.411  16.801  0.00  0.00    +0.000 A 
ATOM      2  N   UNL     1       6.931   4.488  17.919  0.00  0.00    +0.000 NA
ATOM      3  N   UNL     1       6.127   4.300  19.035  0.00  0.00    +0.000 NA
ATOM      4  C   UNL     1       4.880   4.091  18.686  0.00  0.00    +0.000 A 
ATOM      5 CL   UNL     1       3.624   3.809  19.814  0.00  0.00    +0.000 Cl
ATOM      6  S   UNL     1       4.557   4.107  17.020  0.00  0.00    +0.000 S 
ENDROOT
BRANCH   1   8
ATOM      7  N   UNL     1       6.375   3.662  14.538  0.00  0.00    +0.000 N 
ATOM      8  C   UNL     1       6.812   4.559  15.480  0.00  0.00    +0.000 C 
ATOM      9  O   UNL     1       7.633   5.415  15.152  0.00  0.00    +0.000 OA
ATOM     10  H   UNL     1       6.715   3.756  13.592  0.00  0.00    +0.000 HD
ATOM     11  H   UNL     1       5.654   2.985  14.751  0.00  0.00    +0.000 HD
ENDBRANCH   1   8
TORSDOF 1
ENDMDL
