MODEL 1
REMARK VINA RESULT:      -8.4      0.000      0.000
REMARK  Name = 
REMARK  2 active torsions:
REMARK  status: ('A' for Active; 'I' for Inactive)
REMARK    1  A    between atoms: C_2  and  C_3
REMARK    2  A    between atoms: C_6  and  N_7
REMARK                            x       y       z     vdW  Elec       q    Type
REMARK                         _______ _______ _______ _____ _____    ______ ____
ROOT
ATOM      1  C   UNL     1       2.602   7.123  18.775  0.00  0.00    +0.000 A 
ATOM      2  C   UNL     1       2.148   7.009  20.094  0.00  0.00    +0.000 A 
ATOM      3  C   UNL     1       1.411   8.046  20.701  0.00  0.00    +0.000 A 
ATOM      4  C   UNL     1       0.992   9.147  19.949  0.00  0.00    +0.000 A 
ATOM      5  C   UNL     1       1.407   9.216  18.605  0.00  0.00    +0.000 A 
ATOM      6  C   UNL     1       2.205   8.230  18.027  0.00  0.00    +0.000 A 
ENDROOT
BRANCH   4   7
ATOM      7  N   UNL     1       0.133  10.157  20.474  0.00  0.00    +0.000 N 
ATOM      8  S   UNL     1      -0.982  10.933  19.402  0.00  0.00    +0.000 S 
ATOM      9  C   UNL     1      -1.530  12.000  20.673  0.00  0.00    +0.000 A 
ATOM     10  C   UNL     1      -2.426  13.044  20.517  0.00  0.00    +0.000 A 
ATOM     11  C   UNL     1      -2.710  13.842  21.620  0.00  0.00    +0.000 A 
ATOM     12  C   UNL     1      -2.103  13.578  22.857  0.00  0.00    +0.000 A 
ATOM     13  C   UNL     1      -1.207  12.509  23.006  0.00  0.00    +0.000 A 
ATOM     14  C   UNL     1      -0.926  11.723  21.895  0.00  0.00    +0.000 A 
ATOM     15  C   UNL     1       0.035  10.583  21.809  0.00  0.00    +0.000 A 
ATOM     16  O   UNL     1       0.648  10.187  22.791  0.00  0.00    +0.000 OA
ENDBRANCH   4   7
BRANCH   1  18
ATOM     17  O   UNL     1       4.668   6.380  18.022  0.00  0.00    +0.000 OA
ATOM     18  C   UNL     1       3.462   6.123  18.078  0.00  0.00    +0.000 C 
ATOM     19  N   UNL     1       2.934   4.923  17.601  0.00  0.00    +0.000 N 
ATOM     20  C   UNL     1       1.545   4.473  17.671  0.00  0.00    +0.000 C 
ATOM     21  C   UNL     1       1.405   3.229  18.535  0.00  0.00    +0.000 C 
ATOM     22  C   UNL     1       2.351   2.127  18.077  0.00  0.00    +0.000 C 
ATOM     23  C   UNL     1       3.786   2.643  17.974  0.00  0.00    +0.000 C 
ATOM     24  C   UNL     1       3.867   3.905  17.112  0.00  0.00    +0.000 C 
ENDBRANCH   1  18
TORSDOF 2
ENDMDL
MODEL 2
REMARK VINA RESULT:      -8.4      1.051      1.443
REMARK  Name = 
REMARK  2 active torsions:
REMARK  status: ('A' for Active; 'I' for Inactive)
REMARK    1  A    between atoms: C_2  and  C_3
REMARK    2  A    between atoms: C_6  and  N_7
REMARK                            x       y       z     vdW  Elec       q    Type
REMARK                         _______ _______ _______ _____ _____    ______ ____
ROOT
ATOM      1  C   UNL     1       2.821   6.917  18.471  0.00  0.00    +0.000 A 
ATOM      2  C   UNL     1       2.489   8.087  17.777  0.00  0.00    +0.000 A 
ATOM      3  C   UNL     1       1.703   9.090  18.379  0.00  0.00    +0.000 A 
ATOM      4  C   UNL     1       1.364   9.004  19.732  0.00  0.00    +0.000 A 
ATOM      5  C   UNL     1       1.760   7.847  20.432  0.00  0.00    +0.000 A 
ATOM      6  C   UNL     1       2.467   6.817  19.815  0.00  0.00    +0.000 A 
ENDROOT
BRANCH   4   7
ATOM      7  N   UNL     1       0.689  10.050  20.426  0.00  0.00    +0.000 N 
ATOM      8  S   UNL     1       0.963  11.685  19.927  0.00  0.00    +0.000 S 
ATOM      9  C   UNL     1      -0.048  12.295  21.214  0.00  0.00    +0.000 A 
ATOM     10  C   UNL     1      -0.240  13.631  21.523  0.00  0.00    +0.000 A 
ATOM     11  C   UNL     1      -1.029  13.949  22.624  0.00  0.00    +0.000 A 
ATOM     12  C   UNL     1      -1.619  12.930  23.387  0.00  0.00    +0.000 A 
ATOM     13  C   UNL     1      -1.428  11.580  23.056  0.00  0.00    +0.000 A 
ATOM     14  C   UNL     1      -0.633  11.275  21.959  0.00  0.00    +0.000 A 
ATOM     15  C   UNL     1      -0.247   9.919  21.466  0.00  0.00    +0.000 A 
ATOM     16  O   UNL     1      -0.678   8.901  21.989  0.00  0.00    +0.000 OA
ENDBRANCH   4   7
BRANCH   1  18
ATOM     17  O   UNL     1       4.791   5.899  17.786  0.00  0.00    +0.000 OA
ATOM     18  C   UNL     1       3.568   5.764  17.891  0.00  0.00    +0.000 C 
ATOM     19  N   UNL     1       2.922   4.568  17.576  0.00  0.00    +0.000 N 
ATOM     20  C   UNL     1       1.500   4.261  17.723  0.00  0.00    +0.000 C 
ATOM     21  C   UNL     1       1.271   3.152  18.738  0.00  0.00    +0.000 C 
ATOM     22  C   UNL     1       2.101   1.918  18.406  0.00  0.00    +0.000 C 
ATOM     23  C   UNL     1       3.574   2.282  18.217  0.00  0.00    +0.000 C 
ATOM     24  C   UNL     1       3.746   3.416  17.204  0.00  0.00    +0.000 C 
ENDBRANCH   1  18
TORSDOF 2
ENDMDL
MODEL 3
REMARK VINA RESULT:      -8.3      0.391      1.054
REMARK  Name = 
REMARK  2 active torsions:
REMARK  status: ('A' for Active; 'I' for Inactive)
REMARK    1  A    between atoms: C_2  and  C_3
REMARK    2  A    between atoms: C_6  and  N_7
REMARK                            x       y       z     vdW  Elec       q    Type
REMARK                         _______ _______ _______ _____ _____    ______ ____
ROOT
ATOM      1  C   UNL     1       2.783   7.024  18.590  0.00  0.00    +0.000 A 
ATOM      2  C   UNL     1       2.484   8.149  17.812  0.00  0.00    +0.000 A 
ATOM      3  C   UNL     1       1.577   9.127  18.268  0.00  0.00    +0.000 A 
ATOM      4  C   UNL     1       1.069   9.066  19.569  0.00  0.00    +0.000 A 
ATOM      5  C   UNL     1       1.430   7.958  20.359  0.00  0.00    +0.000 A 
ATOM      6  C   UNL     1       2.263   6.949  19.880  0.00  0.00    +0.000 A 
ENDROOT
BRANCH   4   7
ATOM      7  N   UNL     1       0.256  10.096  20.127  0.00  0.00    +0.000 N 
ATOM      8  S   UNL     1      -0.999  10.779  19.150  0.00  0.00    +0.000 S 
ATOM      9  C   UNL     1      -1.415  11.921  20.406  0.00  0.00    +0.000 A 
ATOM     10  C   UNL     1      -2.349  12.937  20.292  0.00  0.00    +0.000 A 
ATOM     11  C   UNL     1      -2.517  13.804  21.367  0.00  0.00    +0.000 A 
ATOM     12  C   UNL     1      -1.759  13.635  22.536  0.00  0.00    +0.000 A 
ATOM     13  C   UNL     1      -0.826  12.592  22.643  0.00  0.00    +0.000 A 
ATOM     14  C   UNL     1      -0.662  11.737  21.561  0.00  0.00    +0.000 A 
ATOM     15  C   UNL     1       0.309  10.610  21.434  0.00  0.00    +0.000 A 
ATOM     16  O   UNL     1       1.045  10.292  22.357  0.00  0.00    +0.000 OA
ENDBRANCH   4   7
BRANCH   1  18
ATOM     17  O   UNL     1       4.874   6.067  18.278  0.00  0.00    +0.000 OA
ATOM     18  C   UNL     1       3.658   5.896  18.158  0.00  0.00    +0.000 C 
ATOM     19  N   UNL     1       3.116   4.684  17.730  0.00  0.00    +0.000 N 
ATOM     20  C   UNL     1       1.701   4.335  17.614  0.00  0.00    +0.000 C 
ATOM     21  C   UNL     1       1.323   3.214  18.570  0.00  0.00    +0.000 C 
ATOM     22  C   UNL     1       2.236   2.007  18.396  0.00  0.00    +0.000 C 
ATOM     23  C   UNL     1       3.707   2.414  18.481  0.00  0.00    +0.000 C 
ATOM     24  C   UNL     1       4.028   3.558  17.516  0.00  0.00    +0.000 C 
ENDBRANCH   1  18
TORSDOF 2
ENDMDL
MODEL 4
REMARK VINA RESULT:      -8.3      1.212      1.853
REMARK  Name = 
REMARK  2 active torsions:
REMARK  status: ('A' for Active; 'I' for Inactive)
REMARK    1  A    between atoms: C_2  and  C_3
REMARK    2  A    between atoms: C_6  and  N_7
REMARK                            x       y       z     vdW  Elec       q    Type
REMARK                         _______ _______ _______ _____ _____    ______ ____
ROOT
ATOM      1  C   UNL     1       2.732   7.122  18.523  0.00  0.00    +0.000 A 
ATOM      2  C   UNL     1       2.341   8.255  17.800  0.00  0.00    +0.000 A 
ATOM      3  C   UNL     1       1.452   9.199  18.354  0.00  0.00    +0.000 A 
ATOM      4  C   UNL     1       1.058   9.097  19.691  0.00  0.00    +0.000 A 
ATOM      5  C   UNL     1       1.510   7.981  20.421  0.00  0.00    +0.000 A 
ATOM      6  C   UNL     1       2.323   7.005  19.850  0.00  0.00    +0.000 A 
ENDROOT
BRANCH   4   7
ATOM      7  N   UNL     1       0.271  10.093  20.340  0.00  0.00    +0.000 N 
ATOM      8  S   UNL     1       0.105  10.022  22.061  0.00  0.00    +0.000 S 
ATOM      9  C   UNL     1      -0.983  11.391  22.057  0.00  0.00    +0.000 A 
ATOM     10  C   UNL     1      -1.651  11.891  23.161  0.00  0.00    +0.000 A 
ATOM     11  C   UNL     1      -2.534  12.950  22.976  0.00  0.00    +0.000 A 
ATOM     12  C   UNL     1      -2.723  13.496  21.697  0.00  0.00    +0.000 A 
ATOM     13  C   UNL     1      -2.029  12.988  20.588  0.00  0.00    +0.000 A 
ATOM     14  C   UNL     1      -1.156  11.926  20.784  0.00  0.00    +0.000 A 
ATOM     15  C   UNL     1      -0.368  11.195  19.747  0.00  0.00    +0.000 A 
ATOM     16  O   UNL     1      -0.385  11.535  18.573  0.00  0.00    +0.000 OA
ENDBRANCH   4   7
BRANCH   1  18
ATOM     17  O   UNL     1       4.810   6.229  18.006  0.00  0.00    +0.000 OA
ATOM     18  C   UNL     1       3.593   6.026  17.992  0.00  0.00    +0.000 C 
ATOM     19  N   UNL     1       3.047   4.806  17.591  0.00  0.00    +0.000 N 
ATOM     20  C   UNL     1       1.637   4.419  17.596  0.00  0.00    +0.000 C 
ATOM     21  C   UNL     1       1.377   3.273  18.560  0.00  0.00    +0.000 C 
ATOM     22  C   UNL     1       2.302   2.095  18.281  0.00  0.00    +0.000 C 
ATOM     23  C   UNL     1       3.763   2.542  18.241  0.00  0.00    +0.000 C 
ATOM     24  C   UNL     1       3.965   3.710  17.274  0.00  0.00    +0.000 C 
ENDBRANCH   1  18
TORSDOF 2
ENDMDL
MODEL 5
REMARK VINA RESULT:      -8.2      1.411      1.679
REMARK  Name = 
REMARK  2 active torsions:
REMARK  status: ('A' for Active; 'I' for Inactive)
REMARK    1  A    between atoms: C_2  and  C_3
REMARK    2  A    between atoms: C_6  and  N_7
REMARK                            x       y       z     vdW  Elec       q    Type
REMARK                         _______ _______ _______ _____ _____    ______ ____
ROOT
ATOM      1  C   UNL     1       2.704   7.122  18.576  0.00  0.00    +0.000 A 
ATOM      2  C   UNL     1       2.192   7.213  19.876  0.00  0.00    +0.000 A 
ATOM      3  C   UNL     1       1.474   8.350  20.295  0.00  0.00    +0.000 A 
ATOM      4  C   UNL     1       1.131   9.347  19.377  0.00  0.00    +0.000 A 
ATOM      5  C   UNL     1       1.603   9.208  18.057  0.00  0.00    +0.000 A 
ATOM      6  C   UNL     1       2.383   8.123  17.662  0.00  0.00    +0.000 A 
ENDROOT
BRANCH   4   7
ATOM      7  N   UNL     1       0.294  10.450  19.714  0.00  0.00    +0.000 N 
ATOM      8  S   UNL     1       0.946  11.710  20.707  0.00  0.00    +0.000 S 
ATOM      9  C   UNL     1      -0.591  12.542  20.736  0.00  0.00    +0.000 A 
ATOM     10  C   UNL     1      -0.877  13.678  21.474  0.00  0.00    +0.000 A 
ATOM     11  C   UNL     1      -2.173  14.182  21.436  0.00  0.00    +0.000 A 
ATOM     12  C   UNL     1      -3.153  13.552  20.655  0.00  0.00    +0.000 A 
ATOM     13  C   UNL     1      -2.847  12.409  19.900  0.00  0.00    +0.000 A 
ATOM     14  C   UNL     1      -1.551  11.911  19.952  0.00  0.00    +0.000 A 
ATOM     15  C   UNL     1      -1.024  10.683  19.285  0.00  0.00    +0.000 A 
ATOM     16  O   UNL     1      -1.723  10.006  18.544  0.00  0.00    +0.000 OA
ENDBRANCH   4   7
BRANCH   1  18
ATOM     17  O   UNL     1       4.771   6.187  18.085  0.00  0.00    +0.000 OA
ATOM     18  C   UNL     1       3.550   6.003  18.068  0.00  0.00    +0.000 C 
ATOM     19  N   UNL     1       2.986   4.786  17.684  0.00  0.00    +0.000 N 
ATOM     20  C   UNL     1       1.570   4.422  17.687  0.00  0.00    +0.000 C 
ATOM     21  C   UNL     1       1.286   3.296  18.669  0.00  0.00    +0.000 C 
ATOM     22  C   UNL     1       2.194   2.099  18.415  0.00  0.00    +0.000 C 
ATOM     23  C   UNL     1       3.662   2.521  18.376  0.00  0.00    +0.000 C 
ATOM     24  C   UNL     1       3.888   3.670  17.390  0.00  0.00    +0.000 C 
ENDBRANCH   1  18
TORSDOF 2
ENDMDL
MODEL 6
REMARK VINA RESULT:      -8.2      1.416      1.957
REMARK  Name = 
REMARK  2 active torsions:
REMARK  status: ('A' for Active; 'I' for Inactive)
REMARK    1  A    between atoms: C_2  and  C_3
REMARK    2  A    between atoms: C_6  and  N_7
REMARK                            x       y       z     vdW  Elec       q    Type
REMARK                         _______ _______ _______ _____ _____    ______ ____
ROOT
ATOM      1  C   UNL     1       2.806   7.079  18.544  0.00  0.00    +0.000 A 
ATOM      2  C   UNL     1       2.534   8.106  17.632  0.00  0.00    +0.000 A 
ATOM      3  C   UNL     1       1.649   9.152  17.960  0.00  0.00    +0.000 A 
ATOM      4  C   UNL     1       1.137   9.264  19.255  0.00  0.00    +0.000 A 
ATOM      5  C   UNL     1       1.471   8.254  20.178  0.00  0.00    +0.000 A 
ATOM      6  C   UNL     1       2.281   7.175  19.831  0.00  0.00    +0.000 A 
ENDROOT
BRANCH   4   7
ATOM      7  N   UNL     1       0.347  10.373  19.679  0.00  0.00    +0.000 N 
ATOM      8  S   UNL     1       1.053  11.528  20.757  0.00  0.00    +0.000 S 
ATOM      9  C   UNL     1      -0.448  12.417  20.858  0.00  0.00    +0.000 A 
ATOM     10  C   UNL     1      -0.684  13.506  21.681  0.00  0.00    +0.000 A 
ATOM     11  C   UNL     1      -1.958  14.064  21.689  0.00  0.00    +0.000 A 
ATOM     12  C   UNL     1      -2.967  13.533  20.871  0.00  0.00    +0.000 A 
ATOM     13  C   UNL     1      -2.711  12.438  20.031  0.00  0.00    +0.000 A 
ATOM     14  C   UNL     1      -1.436  11.885  20.037  0.00  0.00    +0.000 A 
ATOM     15  C   UNL     1      -0.962  10.689  19.278  0.00  0.00    +0.000 A 
ATOM     16  O   UNL     1      -1.691  10.099  18.493  0.00  0.00    +0.000 OA
ENDBRANCH   4   7
BRANCH   1  18
ATOM     17  O   UNL     1       4.867   6.016  18.454  0.00  0.00    +0.000 OA
ATOM     18  C   UNL     1       3.655   5.886  18.258  0.00  0.00    +0.000 C 
ATOM     19  N   UNL     1       3.089   4.669  17.881  0.00  0.00    +0.000 N 
ATOM     20  C   UNL     1       1.671   4.370  17.687  0.00  0.00    +0.000 C 
ATOM     21  C   UNL     1       1.175   3.341  18.692  0.00  0.00    +0.000 C 
ATOM     22  C   UNL     1       2.042   2.088  18.672  0.00  0.00    +0.000 C 
ATOM     23  C   UNL     1       3.520   2.439  18.833  0.00  0.00    +0.000 C 
ATOM     24  C   UNL     1       3.960   3.494  17.814  0.00  0.00    +0.000 C 
ENDBRANCH   1  18
TORSDOF 2
ENDMDL
MODEL 7
REMARK VINA RESULT:      -8.1      1.198      1.552
REMARK  Name = 
REMARK  2 active torsions:
REMARK  status: ('A' for Active; 'I' for Inactive)
REMARK    1  A    between atoms: C_2  and  C_3
REMARK    2  A    between atoms: C_6  and  N_7
REMARK                            x       y       z     vdW  Elec       q    Type
REMARK                         _______ _______ _______ _____ _____    ______ ____
ROOT
ATOM      1  C   UNL     1       2.653   7.000  18.805  0.00  0.00    +0.000 A 
ATOM      2  C   UNL     1       2.194   6.874  20.122  0.00  0.00    +0.000 A 
ATOM      3  C   UNL     1       1.471   7.914  20.741  0.00  0.00    +0.000 A 
ATOM      4  C   UNL     1       1.071   9.031  20.003  0.00  0.00    +0.000 A 
ATOM      5  C   UNL     1       1.490   9.112  18.661  0.00  0.00    +0.000 A 
ATOM      6  C   UNL     1       2.274   8.122  18.072  0.00  0.00    +0.000 A 
ENDROOT
BRANCH   4   7
ATOM      7  N   UNL     1       0.226  10.047  20.539  0.00  0.00    +0.000 N 
ATOM      8  S   UNL     1      -0.073  10.058  22.244  0.00  0.00    +0.000 S 
ATOM      9  C   UNL     1      -1.170  11.410  22.088  0.00  0.00    +0.000 A 
ATOM     10  C   UNL     1      -1.927  11.954  23.112  0.00  0.00    +0.000 A 
ATOM     11  C   UNL     1      -2.802  12.991  22.806  0.00  0.00    +0.000 A 
ATOM     12  C   UNL     1      -2.897  13.472  21.491  0.00  0.00    +0.000 A 
ATOM     13  C   UNL     1      -2.114  12.920  20.466  0.00  0.00    +0.000 A 
ATOM     14  C   UNL     1      -1.249  11.880  20.781  0.00  0.00    +0.000 A 
ATOM     15  C   UNL     1      -0.375  11.110  19.846  0.00  0.00    +0.000 A 
ATOM     16  O   UNL     1      -0.304  11.393  18.658  0.00  0.00    +0.000 OA
ENDBRANCH   4   7
BRANCH   1  18
ATOM     17  O   UNL     1       4.711   6.232  18.055  0.00  0.00    +0.000 OA
ATOM     18  C   UNL     1       3.500   5.996  18.097  0.00  0.00    +0.000 C 
ATOM     19  N   UNL     1       2.954   4.814  17.595  0.00  0.00    +0.000 N 
ATOM     20  C   UNL     1       1.556   4.389  17.646  0.00  0.00    +0.000 C 
ATOM     21  C   UNL     1       1.386   3.134  18.487  0.00  0.00    +0.000 C 
ATOM     22  C   UNL     1       2.315   2.022  18.016  0.00  0.00    +0.000 C 
ATOM     23  C   UNL     1       3.761   2.513  17.933  0.00  0.00    +0.000 C 
ATOM     24  C   UNL     1       3.872   3.789  17.095  0.00  0.00    +0.000 C 
ENDBRANCH   1  18
TORSDOF 2
ENDMDL
MODEL 8
REMARK VINA RESULT:      -8.0      1.754      2.535
REMARK  Name = 
REMARK  2 active torsions:
REMARK  status: ('A' for Active; 'I' for Inactive)
REMARK    1  A    between atoms: C_2  and  C_3
REMARK    2  A    between atoms: C_6  and  N_7
REMARK                            x       y       z     vdW  Elec       q    Type
REMARK                         _______ _______ _______ _____ _____    ______ ____
ROOT
ATOM      1  C   UNL     1       2.569   6.217  18.665  0.00  0.00    +0.000 A 
ATOM      2  C   UNL     1       2.160   6.165  20.003  0.00  0.00    +0.000 A 
ATOM      3  C   UNL     1       1.674   7.314  20.659  0.00  0.00    +0.000 A 
ATOM      4  C   UNL     1       1.452   8.494  19.943  0.00  0.00    +0.000 A 
ATOM      5  C   UNL     1       1.812   8.509  18.582  0.00  0.00    +0.000 A 
ATOM      6  C   UNL     1       2.369   7.398  17.953  0.00  0.00    +0.000 A 
ENDROOT
BRANCH   4   7
ATOM      7  N   UNL     1       0.837   9.642  20.523  0.00  0.00    +0.000 N 
ATOM      8  S   UNL     1       1.218  11.200  19.871  0.00  0.00    +0.000 S 
ATOM      9  C   UNL     1       0.236  11.994  21.080  0.00  0.00    +0.000 A 
ATOM     10  C   UNL     1       0.126  13.364  21.255  0.00  0.00    +0.000 A 
ATOM     11  C   UNL     1      -0.650  13.835  22.309  0.00  0.00    +0.000 A 
ATOM     12  C   UNL     1      -1.309  12.934  23.159  0.00  0.00    +0.000 A 
ATOM     13  C   UNL     1      -1.200  11.548  22.963  0.00  0.00    +0.000 A 
ATOM     14  C   UNL     1      -0.417  11.090  21.912  0.00  0.00    +0.000 A 
ATOM     15  C   UNL     1      -0.112   9.671  21.558  0.00  0.00    +0.000 A 
ATOM     16  O   UNL     1      -0.610   8.737  22.172  0.00  0.00    +0.000 OA
ENDBRANCH   4   7
BRANCH   1  18
ATOM     17  O   UNL     1       2.394   4.281  17.397  0.00  0.00    +0.000 OA
ATOM     18  C   UNL     1       3.179   5.081  17.914  0.00  0.00    +0.000 C 
ATOM     19  N   UNL     1       4.559   4.991  17.736  0.00  0.00    +0.000 N 
ATOM     20  C   UNL     1       5.582   5.909  18.234  0.00  0.00    +0.000 C 
ATOM     21  C   UNL     1       6.316   6.599  17.095  0.00  0.00    +0.000 C 
ATOM     22  C   UNL     1       6.876   5.585  16.104  0.00  0.00    +0.000 C 
ATOM     23  C   UNL     1       5.791   4.616  15.637  0.00  0.00    +0.000 C 
ATOM     24  C   UNL     1       5.071   3.967  16.822  0.00  0.00    +0.000 C 
ENDBRANCH   1  18
TORSDOF 2
ENDMDL
MODEL 9
REMARK VINA RESULT:      -7.8      1.625      2.145
REMARK  Name = 
REMARK  2 active torsions:
REMARK  status: ('A' for Active; 'I' for Inactive)
REMARK    1  A    between atoms: C_2  and  C_3
REMARK    2  A    between atoms: C_6  and  N_7
REMARK                            x       y       z     vdW  Elec       q    Type
REMARK                         _______ _______ _______ _____ _____    ______ ____
ROOT
ATOM      1  C   UNL     1       2.972   6.779  18.454  0.00  0.00    +0.000 A 
ATOM      2  C   UNL     1       2.844   7.797  17.502  0.00  0.00    +0.000 A 
ATOM      3  C   UNL     1       2.073   8.947  17.767  0.00  0.00    +0.000 A 
ATOM      4  C   UNL     1       1.540   9.160  19.041  0.00  0.00    +0.000 A 
ATOM      5  C   UNL     1       1.730   8.152  20.006  0.00  0.00    +0.000 A 
ATOM      6  C   UNL     1       2.424   6.978  19.720  0.00  0.00    +0.000 A 
ENDROOT
BRANCH   4   7
ATOM      7  N   UNL     1       0.867  10.364  19.403  0.00  0.00    +0.000 N 
ATOM      8  S   UNL     1      -0.548  10.254  20.395  0.00  0.00    +0.000 S 
ATOM      9  C   UNL     1      -0.800  11.981  20.303  0.00  0.00    +0.000 A 
ATOM     10  C   UNL     1      -1.886  12.665  20.824  0.00  0.00    +0.000 A 
ATOM     11  C   UNL     1      -1.968  14.036  20.608  0.00  0.00    +0.000 A 
ATOM     12  C   UNL     1      -0.963  14.700  19.889  0.00  0.00    +0.000 A 
ATOM     13  C   UNL     1       0.140  13.998  19.378  0.00  0.00    +0.000 A 
ATOM     14  C   UNL     1       0.208  12.628  19.594  0.00  0.00    +0.000 A 
ATOM     15  C   UNL     1       1.248  11.680  19.093  0.00  0.00    +0.000 A 
ATOM     16  O   UNL     1       2.219  12.072  18.460  0.00  0.00    +0.000 OA
ENDBRANCH   4   7
BRANCH   1  18
ATOM     17  O   UNL     1       4.912   5.507  18.403  0.00  0.00    +0.000 OA
ATOM     18  C   UNL     1       3.690   5.490  18.235  0.00  0.00    +0.000 C 
ATOM     19  N   UNL     1       2.995   4.315  17.946  0.00  0.00    +0.000 N 
ATOM     20  C   UNL     1       1.550   4.152  17.793  0.00  0.00    +0.000 C 
ATOM     21  C   UNL     1       0.975   3.245  18.870  0.00  0.00    +0.000 C 
ATOM     22  C   UNL     1       1.709   1.911  18.919  0.00  0.00    +0.000 C 
ATOM     23  C   UNL     1       3.219   2.118  19.035  0.00  0.00    +0.000 C 
ATOM     24  C   UNL     1       3.741   3.055  17.943  0.00  0.00    +0.000 C 
ENDBRANCH   1  18
TORSDOF 2
ENDMDL
