MODEL 1
REMARK VINA RESULT:      -7.8      0.000      0.000
REMARK  Name = 
REMARK  4 active torsions:
REMARK  status: ('A' for Active; 'I' for Inactive)
REMARK    1  A    between atoms: C_2  and  C_3
REMARK    2  A    between atoms: C_7  and  C_8
REMARK    3  A    between atoms: C_8  and  O_9
REMARK    4  A    between atoms: O_9  and  C_10
REMARK                            x       y       z     vdW  Elec       q    Type
REMARK                         _______ _______ _______ _____ _____    ______ ____
ROOT
ATOM      1  C   UNL     1       2.416   5.462  19.228  0.00  0.00    +0.000 A 
ATOM      2  C   UNL     1       1.613   4.881  18.255  0.00  0.00    +0.000 A 
ATOM      3  C   UNL     1       2.139   3.834  17.499  0.00  0.00    +0.000 A 
ATOM      4  C   UNL     1       3.443   3.395  17.736  0.00  0.00    +0.000 A 
ATOM      5  C   UNL     1       4.202   4.059  18.691  0.00  0.00    +0.000 A 
ATOM      6  N   UNL     1       3.708   5.104  19.405  0.00  0.00    +0.000 NA
ENDROOT
BRANCH   1   8
ATOM      7  O   UNL     1       1.371   6.124  21.199  0.00  0.00    +0.000 OA
ATOM      8  C   UNL     1       1.844   6.526  20.131  0.00  0.00    +0.000 C 
ATOM      9  N   UNL     1       1.905   7.887  19.768  0.00  0.00    +0.000 N 
ATOM     10  C   UNL     1       2.536   8.385  18.538  0.00  0.00    +0.000 C 
ATOM     11  C   UNL     1       1.470   8.983  17.624  0.00  0.00    +0.000 C 
ATOM     12  C   UNL     1       0.786  10.146  18.338  0.00  0.00    +0.000 C 
ATOM     13  C   UNL     1       0.217   9.713  19.704  0.00  0.00    +0.000 C 
ATOM     14  C   UNL     1      -0.348  10.941  20.434  0.00  0.00    +0.000 C 
ATOM     15  C   UNL     1      -0.865  10.591  21.824  0.00  0.00    +0.000 C 
ATOM     16  C   UNL     1       0.216   9.911  22.656  0.00  0.00    +0.000 C 
ATOM     17  C   UNL     1       0.748   8.657  21.956  0.00  0.00    +0.000 C 
ATOM     18  C   UNL     1       1.290   8.985  20.558  0.00  0.00    +0.000 C 
ENDBRANCH   1   8
BRANCH   5  19
ATOM     19  C   UNL     1       5.634   3.679  19.002  0.00  0.00    +0.000 C 
BRANCH  19  20
ATOM     20  O   UNL     1       6.524   4.132  17.982  0.00  0.00    +0.000 OA
BRANCH  20  21
ATOM     21  C   UNL     1       6.991   5.427  18.007  0.00  0.00    +0.000 A 
ATOM     22  C   UNL     1       7.865   6.028  18.934  0.00  0.00    +0.000 A 
ATOM     23 CL   UNL     1       8.586   5.260  20.306  0.00  0.00    +0.000 Cl
ATOM     24  C   UNL     1       8.274   7.365  18.772  0.00  0.00    +0.000 A 
ATOM     25  C   UNL     1       7.840   8.128  17.695  0.00  0.00    +0.000 A 
ATOM     26  C   UNL     1       6.989   7.553  16.762  0.00  0.00    +0.000 A 
ATOM     27  C   UNL     1       6.574   6.222  16.914  0.00  0.00    +0.000 A 
ATOM     28 CL   UNL     1       5.507   5.598  15.696  0.00  0.00    +0.000 Cl
ENDBRANCH  20  21
ENDBRANCH  19  20
ENDBRANCH   5  19
TORSDOF 4
ENDMDL
MODEL 2
REMARK VINA RESULT:      -7.6      0.226      1.751
REMARK  Name = 
REMARK  4 active torsions:
REMARK  status: ('A' for Active; 'I' for Inactive)
REMARK    1  A    between atoms: C_2  and  C_3
REMARK    2  A    between atoms: C_7  and  C_8
REMARK    3  A    between atoms: C_8  and  O_9
REMARK    4  A    between atoms: O_9  and  C_10
REMARK                            x       y       z     vdW  Elec       q    Type
REMARK                         _______ _______ _______ _____ _____    ______ ____
ROOT
ATOM      1  C   UNL     1       2.469   5.673  19.283  0.00  0.00    +0.000 A 
ATOM      2  C   UNL     1       1.724   5.104  18.258  0.00  0.00    +0.000 A 
ATOM      3  C   UNL     1       2.295   4.066  17.521  0.00  0.00    +0.000 A 
ATOM      4  C   UNL     1       3.584   3.626  17.827  0.00  0.00    +0.000 A 
ATOM      5  C   UNL     1       4.285   4.279  18.833  0.00  0.00    +0.000 A 
ATOM      6  N   UNL     1       3.750   5.315  19.529  0.00  0.00    +0.000 NA
ENDROOT
BRANCH   1   8
ATOM      7  O   UNL     1       1.393   6.322  21.242  0.00  0.00    +0.000 OA
ATOM      8  C   UNL     1       1.845   6.726  20.165  0.00  0.00    +0.000 C 
ATOM      9  N   UNL     1       1.835   8.080  19.774  0.00  0.00    +0.000 N 
ATOM     10  C   UNL     1       2.439   8.583  18.532  0.00  0.00    +0.000 C 
ATOM     11  C   UNL     1       1.343   9.107  17.607  0.00  0.00    +0.000 C 
ATOM     12  C   UNL     1       0.601  10.248  18.299  0.00  0.00    +0.000 C 
ATOM     13  C   UNL     1       0.056   9.816  19.674  0.00  0.00    +0.000 C 
ATOM     14  C   UNL     1      -0.571  11.028  20.380  0.00  0.00    +0.000 C 
ATOM     15  C   UNL     1      -1.067  10.681  21.777  0.00  0.00    +0.000 C 
ATOM     16  C   UNL     1       0.047  10.075  22.622  0.00  0.00    +0.000 C 
ATOM     17  C   UNL     1       0.642   8.835  21.947  0.00  0.00    +0.000 C 
ATOM     18  C   UNL     1       1.166   9.161  20.541  0.00  0.00    +0.000 C 
ENDBRANCH   1   8
BRANCH   5  19
ATOM     19  C   UNL     1       5.698   3.897  19.220  0.00  0.00    +0.000 C 
BRANCH  19  20
ATOM     20  O   UNL     1       6.622   4.196  18.174  0.00  0.00    +0.000 OA
BRANCH  20  21
ATOM     21  C   UNL     1       6.944   5.506  17.900  0.00  0.00    +0.000 A 
ATOM     22  C   UNL     1       6.443   6.341  16.882  0.00  0.00    +0.000 A 
ATOM     23 CL   UNL     1       5.264   5.907  15.693  0.00  0.00    +0.000 Cl
ATOM     24  C   UNL     1       6.859   7.682  16.783  0.00  0.00    +0.000 A 
ATOM     25  C   UNL     1       7.762   8.227  17.688  0.00  0.00    +0.000 A 
ATOM     26  C   UNL     1       8.259   7.427  18.707  0.00  0.00    +0.000 A 
ATOM     27  C   UNL     1       7.854   6.089  18.814  0.00  0.00    +0.000 A 
ATOM     28 CL   UNL     1       8.536   5.174  20.121  0.00  0.00    +0.000 Cl
ENDBRANCH  20  21
ENDBRANCH  19  20
ENDBRANCH   5  19
TORSDOF 4
ENDMDL
MODEL 3
REMARK VINA RESULT:      -7.4      2.879      7.248
REMARK  Name = 
REMARK  4 active torsions:
REMARK  status: ('A' for Active; 'I' for Inactive)
REMARK    1  A    between atoms: C_2  and  C_3
REMARK    2  A    between atoms: C_7  and  C_8
REMARK    3  A    between atoms: C_8  and  O_9
REMARK    4  A    between atoms: O_9  and  C_10
REMARK                            x       y       z     vdW  Elec       q    Type
REMARK                         _______ _______ _______ _____ _____    ______ ____
ROOT
ATOM      1  C   UNL     1       3.184   4.087  18.930  0.00  0.00    +0.000 A 
ATOM      2  C   UNL     1       3.394   2.995  19.762  0.00  0.00    +0.000 A 
ATOM      3  C   UNL     1       2.821   3.010  21.034  0.00  0.00    +0.000 A 
ATOM      4  C   UNL     1       2.056   4.106  21.436  0.00  0.00    +0.000 A 
ATOM      5  C   UNL     1       1.932   5.182  20.566  0.00  0.00    +0.000 A 
ATOM      6  N   UNL     1       2.519   5.190  19.341  0.00  0.00    +0.000 NA
ENDROOT
BRANCH   1   8
ATOM      7  O   UNL     1       3.252   3.158  16.797  0.00  0.00    +0.000 OA
ATOM      8  C   UNL     1       3.703   4.058  17.514  0.00  0.00    +0.000 C 
ATOM      9  N   UNL     1       4.608   5.038  17.058  0.00  0.00    +0.000 N 
ATOM     10  C   UNL     1       5.090   6.159  17.878  0.00  0.00    +0.000 C 
ATOM     11  C   UNL     1       6.586   5.999  18.133  0.00  0.00    +0.000 C 
ATOM     12  C   UNL     1       7.330   6.001  16.799  0.00  0.00    +0.000 C 
ATOM     13  C   UNL     1       6.776   4.927  15.843  0.00  0.00    +0.000 C 
ATOM     14  C   UNL     1       7.469   5.052  14.478  0.00  0.00    +0.000 C 
ATOM     15  C   UNL     1       6.914   4.061  13.462  0.00  0.00    +0.000 C 
ATOM     16  C   UNL     1       5.404   4.205  13.322  0.00  0.00    +0.000 C 
ATOM     17  C   UNL     1       4.702   4.031  14.672  0.00  0.00    +0.000 C 
ATOM     18  C   UNL     1       5.231   5.031  15.711  0.00  0.00    +0.000 C 
ENDBRANCH   1   8
BRANCH   5  19
ATOM     19  C   UNL     1       1.149   6.428  20.919  0.00  0.00    +0.000 C 
BRANCH  19  20
ATOM     20  O   UNL     1       1.887   7.611  20.610  0.00  0.00    +0.000 OA
BRANCH  20  21
ATOM     21  C   UNL     1       1.218   8.790  20.369  0.00  0.00    +0.000 A 
ATOM     22  C   UNL     1       0.546   9.622  21.286  0.00  0.00    +0.000 A 
ATOM     23 CL   UNL     1       0.392   9.354  22.988  0.00  0.00    +0.000 Cl
ATOM     24  C   UNL     1      -0.046  10.826  20.861  0.00  0.00    +0.000 A 
ATOM     25  C   UNL     1       0.023  11.238  19.536  0.00  0.00    +0.000 A 
ATOM     26  C   UNL     1       0.692  10.441  18.618  0.00  0.00    +0.000 A 
ATOM     27  C   UNL     1       1.284   9.238  19.029  0.00  0.00    +0.000 A 
ATOM     28 CL   UNL     1       2.093   8.313  17.804  0.00  0.00    +0.000 Cl
ENDBRANCH  20  21
ENDBRANCH  19  20
ENDBRANCH   5  19
TORSDOF 4
ENDMDL
MODEL 4
REMARK VINA RESULT:      -7.4      4.180      8.940
REMARK  Name = 
REMARK  4 active torsions:
REMARK  status: ('A' for Active; 'I' for Inactive)
REMARK    1  A    between atoms: C_2  and  C_3
REMARK    2  A    between atoms: C_7  and  C_8
REMARK    3  A    between atoms: C_8  and  O_9
REMARK    4  A    between atoms: O_9  and  C_10
REMARK                            x       y       z     vdW  Elec       q    Type
REMARK                         _______ _______ _______ _____ _____    ______ ____
ROOT
ATOM      1  C   UNL     1       0.705   9.992  18.655  0.00  0.00    +0.000 A 
ATOM      2  C   UNL     1      -0.584   9.895  18.147  0.00  0.00    +0.000 A 
ATOM      3  C   UNL     1      -1.492  10.911  18.445  0.00  0.00    +0.000 A 
ATOM      4  C   UNL     1      -1.091  11.990  19.234  0.00  0.00    +0.000 A 
ATOM      5  C   UNL     1       0.200  11.992  19.747  0.00  0.00    +0.000 A 
ATOM      6  N   UNL     1       1.078  10.987  19.491  0.00  0.00    +0.000 NA
ENDROOT
BRANCH   1   8
ATOM      7  O   UNL     1       2.190   9.065  17.121  0.00  0.00    +0.000 OA
ATOM      8  C   UNL     1       1.740   8.965  18.268  0.00  0.00    +0.000 C 
ATOM      9  N   UNL     1       2.175   7.997  19.195  0.00  0.00    +0.000 N 
ATOM     10  C   UNL     1       1.706   7.918  20.586  0.00  0.00    +0.000 C 
ATOM     11  C   UNL     1       0.909   6.632  20.783  0.00  0.00    +0.000 C 
ATOM     12  C   UNL     1       1.806   5.430  20.491  0.00  0.00    +0.000 C 
ATOM     13  C   UNL     1       2.436   5.525  19.087  0.00  0.00    +0.000 C 
ATOM     14  C   UNL     1       3.422   4.364  18.891  0.00  0.00    +0.000 C 
ATOM     15  C   UNL     1       4.133   4.440  17.545  0.00  0.00    +0.000 C 
ATOM     16  C   UNL     1       4.830   5.783  17.367  0.00  0.00    +0.000 C 
ATOM     17  C   UNL     1       3.842   6.944  17.512  0.00  0.00    +0.000 C 
ATOM     18  C   UNL     1       3.123   6.901  18.868  0.00  0.00    +0.000 C 
ENDBRANCH   1   8
BRANCH   5  19
ATOM     19  C   UNL     1       0.723  13.100  20.635  0.00  0.00    +0.000 C 
BRANCH  19  20
ATOM     20  O   UNL     1       0.461  12.830  22.012  0.00  0.00    +0.000 OA
BRANCH  20  21
ATOM     21  C   UNL     1      -0.789  13.081  22.532  0.00  0.00    +0.000 A 
ATOM     22  C   UNL     1      -1.464  14.312  22.642  0.00  0.00    +0.000 A 
ATOM     23 CL   UNL     1      -0.868  15.855  22.134  0.00  0.00    +0.000 Cl
ATOM     24  C   UNL     1      -2.770  14.371  23.164  0.00  0.00    +0.000 A 
ATOM     25  C   UNL     1      -3.437  13.223  23.574  0.00  0.00    +0.000 A 
ATOM     26  C   UNL     1      -2.796  11.997  23.462  0.00  0.00    +0.000 A 
ATOM     27  C   UNL     1      -1.494  11.926  22.946  0.00  0.00    +0.000 A 
ATOM     28 CL   UNL     1      -0.781  10.347  22.851  0.00  0.00    +0.000 Cl
ENDBRANCH  20  21
ENDBRANCH  19  20
ENDBRANCH   5  19
TORSDOF 4
ENDMDL
MODEL 5
REMARK VINA RESULT:      -7.4      0.841      1.933
REMARK  Name = 
REMARK  4 active torsions:
REMARK  status: ('A' for Active; 'I' for Inactive)
REMARK    1  A    between atoms: C_2  and  C_3
REMARK    2  A    between atoms: C_7  and  C_8
REMARK    3  A    between atoms: C_8  and  O_9
REMARK    4  A    between atoms: O_9  and  C_10
REMARK                            x       y       z     vdW  Elec       q    Type
REMARK                         _______ _______ _______ _____ _____    ______ ____
ROOT
ATOM      1  C   UNL     1       2.326   4.636  19.147  0.00  0.00    +0.000 A 
ATOM      2  C   UNL     1       1.488   3.546  18.946  0.00  0.00    +0.000 A 
ATOM      3  C   UNL     1       1.978   2.456  18.228  0.00  0.00    +0.000 A 
ATOM      4  C   UNL     1       3.284   2.481  17.736  0.00  0.00    +0.000 A 
ATOM      5  C   UNL     1       4.045   3.626  17.935  0.00  0.00    +0.000 A 
ATOM      6  N   UNL     1       3.560   4.706  18.600  0.00  0.00    +0.000 NA
ENDROOT
BRANCH   1   8
ATOM      7  O   UNL     1       1.222   5.477  21.015  0.00  0.00    +0.000 OA
ATOM      8  C   UNL     1       1.863   5.786  20.005  0.00  0.00    +0.000 C 
ATOM      9  N   UNL     1       2.197   7.115  19.671  0.00  0.00    +0.000 N 
ATOM     10  C   UNL     1       3.026   7.489  18.516  0.00  0.00    +0.000 C 
ATOM     11  C   UNL     1       2.179   8.263  17.510  0.00  0.00    +0.000 C 
ATOM     12  C   UNL     1       1.642   9.532  18.171  0.00  0.00    +0.000 C 
ATOM     13  C   UNL     1       0.872   9.210  19.466  0.00  0.00    +0.000 C 
ATOM     14  C   UNL     1       0.462  10.520  20.156  0.00  0.00    +0.000 C 
ATOM     15  C   UNL     1      -0.244  10.270  21.482  0.00  0.00    +0.000 C 
ATOM     16  C   UNL     1       0.611   9.413  22.407  0.00  0.00    +0.000 C 
ATOM     17  C   UNL     1       0.981   8.083  21.745  0.00  0.00    +0.000 C 
ATOM     18  C   UNL     1       1.710   8.305  20.412  0.00  0.00    +0.000 C 
ENDBRANCH   1   8
BRANCH   5  19
ATOM     19  C   UNL     1       5.460   3.763  17.417  0.00  0.00    +0.000 C 
BRANCH  19  20
ATOM     20  O   UNL     1       6.293   4.443  18.356  0.00  0.00    +0.000 OA
BRANCH  20  21
ATOM     21  C   UNL     1       6.792   5.689  18.051  0.00  0.00    +0.000 A 
ATOM     22  C   UNL     1       6.396   6.566  17.022  0.00  0.00    +0.000 A 
ATOM     23 CL   UNL     1       5.150   6.280  15.857  0.00  0.00    +0.000 Cl
ATOM     24  C   UNL     1       6.994   7.834  16.890  0.00  0.00    +0.000 A 
ATOM     25  C   UNL     1       7.979   8.264  17.771  0.00  0.00    +0.000 A 
ATOM     26  C   UNL     1       8.374   7.422  18.801  0.00  0.00    +0.000 A 
ATOM     27  C   UNL     1       7.787   6.156  18.941  0.00  0.00    +0.000 A 
ATOM     28 CL   UNL     1       8.355   5.179  20.258  0.00  0.00    +0.000 Cl
ENDBRANCH  20  21
ENDBRANCH  19  20
ENDBRANCH   5  19
TORSDOF 4
ENDMDL
MODEL 6
REMARK VINA RESULT:      -7.2      4.018      8.685
REMARK  Name = 
REMARK  4 active torsions:
REMARK  status: ('A' for Active; 'I' for Inactive)
REMARK    1  A    between atoms: C_2  and  C_3
REMARK    2  A    between atoms: C_7  and  C_8
REMARK    3  A    between atoms: C_8  and  O_9
REMARK    4  A    between atoms: O_9  and  C_10
REMARK                            x       y       z     vdW  Elec       q    Type
REMARK                         _______ _______ _______ _____ _____    ______ ____
ROOT
ATOM      1  C   UNL     1       0.832   9.844  18.556  0.00  0.00    +0.000 A 
ATOM      2  C   UNL     1      -0.474   9.686  18.113  0.00  0.00    +0.000 A 
ATOM      3  C   UNL     1      -1.384  10.717  18.348  0.00  0.00    +0.000 A 
ATOM      4  C   UNL     1      -0.967  11.871  19.012  0.00  0.00    +0.000 A 
ATOM      5  C   UNL     1       0.343  11.936  19.469  0.00  0.00    +0.000 A 
ATOM      6  N   UNL     1       1.224  10.920  19.277  0.00  0.00    +0.000 NA
ENDROOT
BRANCH   1   8
ATOM      7  O   UNL     1       2.363   8.868  17.100  0.00  0.00    +0.000 OA
ATOM      8  C   UNL     1       1.865   8.795  18.229  0.00  0.00    +0.000 C 
ATOM      9  N   UNL     1       2.247   7.836  19.189  0.00  0.00    +0.000 N 
ATOM     10  C   UNL     1       1.721   7.788  20.560  0.00  0.00    +0.000 C 
ATOM     11  C   UNL     1       0.896   6.519  20.746  0.00  0.00    +0.000 C 
ATOM     12  C   UNL     1       1.784   5.299  20.511  0.00  0.00    +0.000 C 
ATOM     13  C   UNL     1       2.472   5.360  19.133  0.00  0.00    +0.000 C 
ATOM     14  C   UNL     1       3.447   4.180  18.996  0.00  0.00    +0.000 C 
ATOM     15  C   UNL     1       4.213   4.222  17.679  0.00  0.00    +0.000 C 
ATOM     16  C   UNL     1       4.938   5.551  17.508  0.00  0.00    +0.000 C 
ATOM     17  C   UNL     1       3.964   6.730  17.593  0.00  0.00    +0.000 C 
ATOM     18  C   UNL     1       3.190   6.721  18.919  0.00  0.00    +0.000 C 
ENDBRANCH   1   8
BRANCH   5  19
ATOM     19  C   UNL     1       0.884  13.130  20.224  0.00  0.00    +0.000 C 
BRANCH  19  20
ATOM     20  O   UNL     1       0.808  12.931  21.636  0.00  0.00    +0.000 OA
BRANCH  20  21
ATOM     21  C   UNL     1      -0.422  12.828  22.247  0.00  0.00    +0.000 A 
ATOM     22  C   UNL     1      -1.095  11.669  22.678  0.00  0.00    +0.000 A 
ATOM     23 CL   UNL     1      -0.523  10.043  22.540  0.00  0.00    +0.000 Cl
ATOM     24  C   UNL     1      -2.338  11.762  23.331  0.00  0.00    +0.000 A 
ATOM     25  C   UNL     1      -2.933  12.993  23.582  0.00  0.00    +0.000 A 
ATOM     26  C   UNL     1      -2.280  14.149  23.178  0.00  0.00    +0.000 A 
ATOM     27  C   UNL     1      -1.043  14.069  22.524  0.00  0.00    +0.000 A 
ATOM     28 CL   UNL     1      -0.312  15.572  22.057  0.00  0.00    +0.000 Cl
ENDBRANCH  20  21
ENDBRANCH  19  20
ENDBRANCH   5  19
TORSDOF 4
ENDMDL
MODEL 7
REMARK VINA RESULT:      -7.2      4.244      9.077
REMARK  Name = 
REMARK  4 active torsions:
REMARK  status: ('A' for Active; 'I' for Inactive)
REMARK    1  A    between atoms: C_2  and  C_3
REMARK    2  A    between atoms: C_7  and  C_8
REMARK    3  A    between atoms: C_8  and  O_9
REMARK    4  A    between atoms: O_9  and  C_10
REMARK                            x       y       z     vdW  Elec       q    Type
REMARK                         _______ _______ _______ _____ _____    ______ ____
ROOT
ATOM      1  C   UNL     1       1.434   8.488  19.924  0.00  0.00    +0.000 A 
ATOM      2  C   UNL     1       1.224   8.243  21.275  0.00  0.00    +0.000 A 
ATOM      3  C   UNL     1       0.278   9.014  21.950  0.00  0.00    +0.000 A 
ATOM      4  C   UNL     1      -0.431   9.999  21.262  0.00  0.00    +0.000 A 
ATOM      5  C   UNL     1      -0.131  10.220  19.924  0.00  0.00    +0.000 A 
ATOM      6  N   UNL     1       0.817   9.498  19.270  0.00  0.00    +0.000 NA
ENDROOT
BRANCH   1   8
ATOM      7  O   UNL     1       2.935   8.141  18.180  0.00  0.00    +0.000 OA
ATOM      8  C   UNL     1       2.374   7.605  19.141  0.00  0.00    +0.000 C 
ATOM      9  N   UNL     1       2.607   6.272  19.537  0.00  0.00    +0.000 N 
ATOM     10  C   UNL     1       2.007   5.648  20.724  0.00  0.00    +0.000 C 
ATOM     11  C   UNL     1       1.051   4.540  20.290  0.00  0.00    +0.000 C 
ATOM     12  C   UNL     1       1.826   3.481  19.509  0.00  0.00    +0.000 C 
ATOM     13  C   UNL     1       2.588   4.102  18.321  0.00  0.00    +0.000 C 
ATOM     14  C   UNL     1       3.447   3.022  17.646  0.00  0.00    +0.000 C 
ATOM     15  C   UNL     1       4.282   3.589  16.504  0.00  0.00    +0.000 C 
ATOM     16  C   UNL     1       5.144   4.753  16.978  0.00  0.00    +0.000 C 
ATOM     17  C   UNL     1       4.288   5.856  17.608  0.00  0.00    +0.000 C 
ATOM     18  C   UNL     1       3.447   5.315  18.774  0.00  0.00    +0.000 C 
ENDBRANCH   1   8
BRANCH   5  19
ATOM     19  C   UNL     1      -0.822  11.283  19.098  0.00  0.00    +0.000 C 
BRANCH  19  20
ATOM     20  O   UNL     1      -2.106  11.603  19.633  0.00  0.00    +0.000 OA
BRANCH  20  21
ATOM     21  C   UNL     1      -3.195  11.686  18.795  0.00  0.00    +0.000 A 
ATOM     22  C   UNL     1      -3.353  11.147  17.504  0.00  0.00    +0.000 A 
ATOM     23 CL   UNL     1      -2.181  10.221  16.632  0.00  0.00    +0.000 Cl
ATOM     24  C   UNL     1      -4.568  11.294  16.808  0.00  0.00    +0.000 A 
ATOM     25  C   UNL     1      -5.648  11.962  17.373  0.00  0.00    +0.000 A 
ATOM     26  C   UNL     1      -5.519  12.490  18.650  0.00  0.00    +0.000 A 
ATOM     27  C   UNL     1      -4.313  12.351  19.352  0.00  0.00    +0.000 A 
ATOM     28 CL   UNL     1      -4.254  13.050  20.939  0.00  0.00    +0.000 Cl
ENDBRANCH  20  21
ENDBRANCH  19  20
ENDBRANCH   5  19
TORSDOF 4
ENDMDL
MODEL 8
REMARK VINA RESULT:      -7.2      2.844      7.328
REMARK  Name = 
REMARK  4 active torsions:
REMARK  status: ('A' for Active; 'I' for Inactive)
REMARK    1  A    between atoms: C_2  and  C_3
REMARK    2  A    between atoms: C_7  and  C_8
REMARK    3  A    between atoms: C_8  and  O_9
REMARK    4  A    between atoms: O_9  and  C_10
REMARK                            x       y       z     vdW  Elec       q    Type
REMARK                         _______ _______ _______ _____ _____    ______ ____
ROOT
ATOM      1  C   UNL     1       3.162   4.108  18.962  0.00  0.00    +0.000 A 
ATOM      2  C   UNL     1       3.396   3.032  19.809  0.00  0.00    +0.000 A 
ATOM      3  C   UNL     1       2.815   3.047  21.077  0.00  0.00    +0.000 A 
ATOM      4  C   UNL     1       2.019   4.126  21.462  0.00  0.00    +0.000 A 
ATOM      5  C   UNL     1       1.871   5.189  20.579  0.00  0.00    +0.000 A 
ATOM      6  N   UNL     1       2.465   5.198  19.357  0.00  0.00    +0.000 NA
ENDROOT
BRANCH   1   8
ATOM      7  O   UNL     1       3.234   3.183  16.828  0.00  0.00    +0.000 OA
ATOM      8  C   UNL     1       3.689   4.077  17.550  0.00  0.00    +0.000 C 
ATOM      9  N   UNL     1       4.608   5.048  17.102  0.00  0.00    +0.000 N 
ATOM     10  C   UNL     1       5.096   6.162  17.927  0.00  0.00    +0.000 C 
ATOM     11  C   UNL     1       6.588   5.985  18.192  0.00  0.00    +0.000 C 
ATOM     12  C   UNL     1       7.341   5.983  16.863  0.00  0.00    +0.000 C 
ATOM     13  C   UNL     1       6.782   4.916  15.900  0.00  0.00    +0.000 C 
ATOM     14  C   UNL     1       7.485   5.037  14.540  0.00  0.00    +0.000 C 
ATOM     15  C   UNL     1       6.927   4.053  13.519  0.00  0.00    +0.000 C 
ATOM     16  C   UNL     1       5.419   4.214  13.369  0.00  0.00    +0.000 C 
ATOM     17  C   UNL     1       4.707   4.045  14.715  0.00  0.00    +0.000 C 
ATOM     18  C   UNL     1       5.240   5.036  15.759  0.00  0.00    +0.000 C 
ENDBRANCH   1   8
BRANCH   5  19
ATOM     19  C   UNL     1       1.052   6.417  20.912  0.00  0.00    +0.000 C 
BRANCH  19  20
ATOM     20  O   UNL     1       1.848   7.601  20.862  0.00  0.00    +0.000 OA
BRANCH  20  21
ATOM     21  C   UNL     1       1.344   8.740  20.275  0.00  0.00    +0.000 A 
ATOM     22  C   UNL     1       1.404   9.133  18.924  0.00  0.00    +0.000 A 
ATOM     23 CL   UNL     1       2.150   8.252  17.635  0.00  0.00    +0.000 Cl
ATOM     24  C   UNL     1       0.785  10.321  18.493  0.00  0.00    +0.000 A 
ATOM     25  C   UNL     1       0.088  11.134  19.378  0.00  0.00    +0.000 A 
ATOM     26  C   UNL     1       0.004  10.760  20.712  0.00  0.00    +0.000 A 
ATOM     27  C   UNL     1       0.619   9.580  21.153  0.00  0.00    +0.000 A 
ATOM     28 CL   UNL     1       0.458   9.203  22.839  0.00  0.00    +0.000 Cl
ENDBRANCH  20  21
ENDBRANCH  19  20
ENDBRANCH   5  19
TORSDOF 4
ENDMDL
MODEL 9
REMARK VINA RESULT:      -7.2      4.013      8.745
REMARK  Name = 
REMARK  4 active torsions:
REMARK  status: ('A' for Active; 'I' for Inactive)
REMARK    1  A    between atoms: C_2  and  C_3
REMARK    2  A    between atoms: C_7  and  C_8
REMARK    3  A    between atoms: C_8  and  O_9
REMARK    4  A    between atoms: O_9  and  C_10
REMARK                            x       y       z     vdW  Elec       q    Type
REMARK                         _______ _______ _______ _____ _____    ______ ____
ROOT
ATOM      1  C   UNL     1       1.471   8.452  19.892  0.00  0.00    +0.000 A 
ATOM      2  C   UNL     1       1.082   8.080  21.172  0.00  0.00    +0.000 A 
ATOM      3  C   UNL     1       0.132   8.861  21.830  0.00  0.00    +0.000 A 
ATOM      4  C   UNL     1      -0.403   9.983  21.195  0.00  0.00    +0.000 A 
ATOM      5  C   UNL     1       0.073  10.320  19.934  0.00  0.00    +0.000 A 
ATOM      6  N   UNL     1       1.025   9.585  19.303  0.00  0.00    +0.000 NA
ENDROOT
BRANCH   1   8
ATOM      7  O   UNL     1       2.997   8.117  18.167  0.00  0.00    +0.000 OA
ATOM      8  C   UNL     1       2.418   7.573  19.113  0.00  0.00    +0.000 C 
ATOM      9  N   UNL     1       2.637   6.234  19.496  0.00  0.00    +0.000 N 
ATOM     10  C   UNL     1       2.015   5.599  20.667  0.00  0.00    +0.000 C 
ATOM     11  C   UNL     1       1.060   4.503  20.205  0.00  0.00    +0.000 C 
ATOM     12  C   UNL     1       1.840   3.448  19.423  0.00  0.00    +0.000 C 
ATOM     13  C   UNL     1       2.625   4.078  18.255  0.00  0.00    +0.000 C 
ATOM     14  C   UNL     1       3.488   3.002  17.580  0.00  0.00    +0.000 C 
ATOM     15  C   UNL     1       4.343   3.577  16.458  0.00  0.00    +0.000 C 
ATOM     16  C   UNL     1       5.204   4.730  16.959  0.00  0.00    +0.000 C 
ATOM     17  C   UNL     1       4.345   5.831  17.589  0.00  0.00    +0.000 C 
ATOM     18  C   UNL     1       3.484   5.281  18.735  0.00  0.00    +0.000 C 
ENDBRANCH   1   8
BRANCH   5  19
ATOM     19  C   UNL     1      -0.421  11.532  19.175  0.00  0.00    +0.000 C 
BRANCH  19  20
ATOM     20  O   UNL     1      -1.271  11.155  18.091  0.00  0.00    +0.000 OA
BRANCH  20  21
ATOM     21  C   UNL     1      -2.622  11.411  18.160  0.00  0.00    +0.000 A 
ATOM     22  C   UNL     1      -3.347  12.029  19.197  0.00  0.00    +0.000 A 
ATOM     23 CL   UNL     1      -2.695  12.637  20.679  0.00  0.00    +0.000 Cl
ATOM     24  C   UNL     1      -4.731  12.251  19.071  0.00  0.00    +0.000 A 
ATOM     25  C   UNL     1      -5.422  11.879  17.924  0.00  0.00    +0.000 A 
ATOM     26  C   UNL     1      -4.725  11.280  16.884  0.00  0.00    +0.000 A 
ATOM     27  C   UNL     1      -3.346  11.053  16.998  0.00  0.00    +0.000 A 
ATOM     28 CL   UNL     1      -2.569  10.295  15.645  0.00  0.00    +0.000 Cl
ENDBRANCH  20  21
ENDBRANCH  19  20
ENDBRANCH   5  19
TORSDOF 4
ENDMDL
