MODEL 1
REMARK VINA RESULT:      -8.0      0.000      0.000
REMARK  Name = 
REMARK  11 active torsions:
REMARK  status: ('A' for Active; 'I' for Inactive)
REMARK    1  A    between atoms: C_1  and  O_2
REMARK    2  A    between atoms: O_2  and  C_3
REMARK    3  A    between atoms: C_5  and  O_6
REMARK    4  A    between atoms: O_6  and  C_7
REMARK    5  A    between atoms: C_12  and  C_13
REMARK    6  A    between atoms: C_16  and  O_17
REMARK    7  A    between atoms: O_17  and  C_18
REMARK    8  A    between atoms: C_18  and  C_19
REMARK    9  A    between atoms: C_19  and  O_20
REMARK   10  A    between atoms: C_19  and  C_21
REMARK   11  A    between atoms: C_21  and  N_22
REMARK                            x       y       z     vdW  Elec       q    Type
REMARK                         _______ _______ _______ _____ _____    ______ ____
ROOT
ATOM      1  C   UNL     1       1.676   8.732  19.084  0.00  0.00    +0.000 A 
ATOM      2  C   UNL     1       1.877   7.636  19.927  0.00  0.00    +0.000 A 
ATOM      3  C   UNL     1       2.785   6.641  19.579  0.00  0.00    +0.000 A 
ATOM      4  C   UNL     1       3.507   6.725  18.387  0.00  0.00    +0.000 A 
ATOM      5  C   UNL     1       3.313   7.826  17.548  0.00  0.00    +0.000 A 
ATOM      6  C   UNL     1       2.401   8.828  17.893  0.00  0.00    +0.000 A 
ENDROOT
BRANCH   1  14
ATOM      7  C   UNL     1      -3.473  11.671  18.371  0.00  0.00    +0.000 A 
ATOM      8  C   UNL     1      -3.531  12.341  19.588  0.00  0.00    +0.000 A 
ATOM      9  C   UNL     1      -2.496  12.267  20.553  0.00  0.00    +0.000 A 
ATOM     10  C   UNL     1      -1.360  11.489  20.268  0.00  0.00    +0.000 A 
ATOM     11  C   UNL     1      -0.142  11.327  21.116  0.00  0.00    +0.000 A 
ATOM     12  O   UNL     1       0.098  11.927  22.153  0.00  0.00    +0.000 OA
ATOM     13  C   UNL     1       0.877  10.366  20.676  0.00  0.00    +0.000 A 
ATOM     14  C   UNL     1       0.729   9.756  19.502  0.00  0.00    +0.000 A 
ATOM     15  O   UNL     1      -0.313   9.959  18.640  0.00  0.00    +0.000 OA
ATOM     16  C   UNL     1      -1.337  10.784  19.043  0.00  0.00    +0.000 A 
ATOM     17  C   UNL     1      -2.378  10.868  18.112  0.00  0.00    +0.000 A 
BRANCH   7  19
ATOM     18  C   UNL     1      -5.627  12.400  17.742  0.00  0.00    +0.000 C 
ATOM     19  O   UNL     1      -4.433  11.703  17.401  0.00  0.00    +0.000 OA
ENDBRANCH   7  19
BRANCH   9  20
ATOM     20  O   UNL     1      -2.869  13.025  21.626  0.00  0.00    +0.000 OA
ATOM     21  C   UNL     1      -3.384  12.481  22.820  0.00  0.00    +0.000 C 
ENDBRANCH   9  20
ENDBRANCH   1  14
BRANCH   4  22
ATOM     22  O   UNL     1       4.418   5.796  17.953  0.00  0.00    +0.000 OA
BRANCH  22  23
ATOM     23  C   UNL     1       3.900   4.836  17.019  0.00  0.00    +0.000 C 
BRANCH  23  24
ATOM     24  C   UNL     1       4.663   3.515  17.136  0.00  0.00    +0.000 C 
BRANCH  24  25
ATOM     25  O   UNL     1       5.937   3.737  17.756  0.00  0.00    +0.000 OA
ATOM     26  H   UNL     1       6.580   3.830  17.028  0.00  0.00    +0.000 HD
ENDBRANCH  24  25
BRANCH  24  27
ATOM     27  C   UNL     1       3.881   2.450  17.931  0.00  0.00    +0.000 C 
BRANCH  27  28
ATOM     28  N   UNL     1       2.980   2.989  18.969  0.00  0.00    +0.000 NA
ATOM     29  C   UNL     1       1.590   2.542  18.788  0.00  0.00    +0.000 C 
ATOM     30  C   UNL     1       0.668   3.161  19.839  0.00  0.00    +0.000 C 
ATOM     31  C   UNL     1       1.150   2.848  21.249  0.00  0.00    +0.000 C 
ATOM     32  C   UNL     1       2.613   3.243  21.407  0.00  0.00    +0.000 C 
ATOM     33  C   UNL     1       3.479   2.629  20.306  0.00  0.00    +0.000 C 
ENDBRANCH  27  28
ENDBRANCH  24  27
ENDBRANCH  23  24
ENDBRANCH  22  23
ENDBRANCH   4  22
TORSDOF 9
ENDMDL
MODEL 2
REMARK VINA RESULT:      -7.9      2.577      9.363
REMARK  Name = 
REMARK  11 active torsions:
REMARK  status: ('A' for Active; 'I' for Inactive)
REMARK    1  A    between atoms: C_1  and  O_2
REMARK    2  A    between atoms: O_2  and  C_3
REMARK    3  A    between atoms: C_5  and  O_6
REMARK    4  A    between atoms: O_6  and  C_7
REMARK    5  A    between atoms: C_12  and  C_13
REMARK    6  A    between atoms: C_16  and  O_17
REMARK    7  A    between atoms: O_17  and  C_18
REMARK    8  A    between atoms: C_18  and  C_19
REMARK    9  A    between atoms: C_19  and  O_20
REMARK   10  A    between atoms: C_19  and  C_21
REMARK   11  A    between atoms: C_21  and  N_22
REMARK                            x       y       z     vdW  Elec       q    Type
REMARK                         _______ _______ _______ _____ _____    ______ ____
ROOT
ATOM      1  C   UNL     1       1.240   9.170  19.575  0.00  0.00    +0.000 A 
ATOM      2  C   UNL     1       0.700   9.158  20.863  0.00  0.00    +0.000 A 
ATOM      3  C   UNL     1      -0.141  10.185  21.281  0.00  0.00    +0.000 A 
ATOM      4  C   UNL     1      -0.456  11.238  20.419  0.00  0.00    +0.000 A 
ATOM      5  C   UNL     1       0.077  11.246  19.127  0.00  0.00    +0.000 A 
ATOM      6  C   UNL     1       0.924  10.216  18.703  0.00  0.00    +0.000 A 
ENDROOT
BRANCH   1  14
ATOM      7  C   UNL     1       3.124   3.542  20.232  0.00  0.00    +0.000 A 
ATOM      8  C   UNL     1       3.857   3.401  19.058  0.00  0.00    +0.000 A 
ATOM      9  C   UNL     1       4.043   4.464  18.140  0.00  0.00    +0.000 A 
ATOM     10  C   UNL     1       3.469   5.715  18.428  0.00  0.00    +0.000 A 
ATOM     11  C   UNL     1       3.595   6.970  17.629  0.00  0.00    +0.000 A 
ATOM     12  O   UNL     1       4.301   7.129  16.645  0.00  0.00    +0.000 OA
ATOM     13  C   UNL     1       2.809   8.135  18.054  0.00  0.00    +0.000 A 
ATOM     14  C   UNL     1       2.099   8.064  19.179  0.00  0.00    +0.000 A 
ATOM     15  O   UNL     1       2.046   6.974  20.003  0.00  0.00    +0.000 OA
ATOM     16  C   UNL     1       2.695   5.827  19.606  0.00  0.00    +0.000 A 
ATOM     17  C   UNL     1       2.520   4.758  20.490  0.00  0.00    +0.000 A 
BRANCH   7  19
ATOM     18  C   UNL     1       1.608   2.537  21.736  0.00  0.00    +0.000 C 
ATOM     19  O   UNL     1       2.910   2.561  21.156  0.00  0.00    +0.000 OA
ENDBRANCH   7  19
BRANCH   9  20
ATOM     20  O   UNL     1       4.794   3.994  17.102  0.00  0.00    +0.000 OA
ATOM     21  C   UNL     1       6.175   4.246  16.965  0.00  0.00    +0.000 C 
ENDBRANCH   9  20
ENDBRANCH   1  14
BRANCH   4  22
ATOM     22  O   UNL     1      -1.268  12.297  20.737  0.00  0.00    +0.000 OA
BRANCH  22  23
ATOM     23  C   UNL     1      -2.079  12.780  19.655  0.00  0.00    +0.000 C 
BRANCH  23  24
ATOM     24  C   UNL     1      -3.562  12.661  20.009  0.00  0.00    +0.000 C 
BRANCH  24  25
ATOM     25  O   UNL     1      -4.153  13.965  20.093  0.00  0.00    +0.000 OA
ATOM     26  H   UNL     1      -3.412  14.592  20.197  0.00  0.00    +0.000 HD
ENDBRANCH  24  25
BRANCH  24  27
ATOM     27  C   UNL     1      -4.346  11.805  18.992  0.00  0.00    +0.000 C 
BRANCH  27  28
ATOM     28  N   UNL     1      -3.566  11.372  17.816  0.00  0.00    +0.000 NA
ATOM     29  C   UNL     1      -3.049  10.002  17.963  0.00  0.00    +0.000 C 
ATOM     30  C   UNL     1      -2.197   9.600  16.759  0.00  0.00    +0.000 C 
ATOM     31  C   UNL     1      -2.977   9.738  15.460  0.00  0.00    +0.000 C 
ATOM     32  C   UNL     1      -3.576  11.135  15.349  0.00  0.00    +0.000 C 
ATOM     33  C   UNL     1      -4.381  11.499  16.597  0.00  0.00    +0.000 C 
ENDBRANCH  27  28
ENDBRANCH  24  27
ENDBRANCH  23  24
ENDBRANCH  22  23
ENDBRANCH   4  22
TORSDOF 9
ENDMDL
MODEL 3
REMARK VINA RESULT:      -7.9      1.042      1.476
REMARK  Name = 
REMARK  11 active torsions:
REMARK  status: ('A' for Active; 'I' for Inactive)
REMARK    1  A    between atoms: C_1  and  O_2
REMARK    2  A    between atoms: O_2  and  C_3
REMARK    3  A    between atoms: C_5  and  O_6
REMARK    4  A    between atoms: O_6  and  C_7
REMARK    5  A    between atoms: C_12  and  C_13
REMARK    6  A    between atoms: C_16  and  O_17
REMARK    7  A    between atoms: O_17  and  C_18
REMARK    8  A    between atoms: C_18  and  C_19
REMARK    9  A    between atoms: C_19  and  O_20
REMARK   10  A    between atoms: C_19  and  C_21
REMARK   11  A    between atoms: C_21  and  N_22
REMARK                            x       y       z     vdW  Elec       q    Type
REMARK                         _______ _______ _______ _____ _____    ______ ____
ROOT
ATOM      1  C   UNL     1       1.766   8.536  18.853  0.00  0.00    +0.000 A 
ATOM      2  C   UNL     1       1.956   7.563  19.837  0.00  0.00    +0.000 A 
ATOM      3  C   UNL     1       2.946   6.597  19.687  0.00  0.00    +0.000 A 
ATOM      4  C   UNL     1       3.761   6.588  18.554  0.00  0.00    +0.000 A 
ATOM      5  C   UNL     1       3.578   7.567  17.573  0.00  0.00    +0.000 A 
ATOM      6  C   UNL     1       2.583   8.539  17.719  0.00  0.00    +0.000 A 
ENDROOT
BRANCH   1  14
ATOM      7  C   UNL     1      -3.277  11.256  17.170  0.00  0.00    +0.000 A 
ATOM      8  C   UNL     1      -3.563  11.961  18.334  0.00  0.00    +0.000 A 
ATOM      9  C   UNL     1      -2.706  11.956  19.462  0.00  0.00    +0.000 A 
ATOM     10  C   UNL     1      -1.513  11.213  19.403  0.00  0.00    +0.000 A 
ATOM     11  C   UNL     1      -0.453  11.124  20.450  0.00  0.00    +0.000 A 
ATOM     12  O   UNL     1      -0.412  11.765  21.489  0.00  0.00    +0.000 OA
ATOM     13  C   UNL     1       0.656  10.188  20.224  0.00  0.00    +0.000 A 
ATOM     14  C   UNL     1       0.730   9.536  19.066  0.00  0.00    +0.000 A 
ATOM     15  O   UNL     1      -0.156   9.673  18.033  0.00  0.00    +0.000 OA
ATOM     16  C   UNL     1      -1.260  10.471  18.226  0.00  0.00    +0.000 A 
ATOM     17  C   UNL     1      -2.129  10.487  17.131  0.00  0.00    +0.000 A 
BRANCH   7  19
ATOM     18  C   UNL     1      -3.515  10.504  14.946  0.00  0.00    +0.000 C 
ATOM     19  O   UNL     1      -4.058  11.221  16.051  0.00  0.00    +0.000 OA
ENDBRANCH   7  19
BRANCH   9  20
ATOM     20  O   UNL     1      -3.279  12.733  20.427  0.00  0.00    +0.000 OA
ATOM     21  C   UNL     1      -2.846  14.041  20.730  0.00  0.00    +0.000 C 
ENDBRANCH   9  20
ENDBRANCH   1  14
BRANCH   4  22
ATOM     22  O   UNL     1       4.758   5.677  18.310  0.00  0.00    +0.000 OA
BRANCH  22  23
ATOM     23  C   UNL     1       4.757   5.125  16.985  0.00  0.00    +0.000 C 
BRANCH  23  24
ATOM     24  C   UNL     1       4.569   3.608  17.041  0.00  0.00    +0.000 C 
BRANCH  24  25
ATOM     25  O   UNL     1       5.558   2.960  16.229  0.00  0.00    +0.000 OA
ATOM     26  H   UNL     1       6.357   2.885  16.784  0.00  0.00    +0.000 HD
ENDBRANCH  24  25
BRANCH  24  27
ATOM     27  C   UNL     1       4.643   3.056  18.480  0.00  0.00    +0.000 C 
BRANCH  27  28
ATOM     28  N   UNL     1       3.343   2.662  19.059  0.00  0.00    +0.000 NA
ATOM     29  C   UNL     1       3.169   3.161  20.431  0.00  0.00    +0.000 C 
ATOM     30  C   UNL     1       1.843   2.690  21.028  0.00  0.00    +0.000 C 
ATOM     31  C   UNL     1       0.666   3.107  20.157  0.00  0.00    +0.000 C 
ATOM     32  C   UNL     1       0.887   2.655  18.719  0.00  0.00    +0.000 C 
ATOM     33  C   UNL     1       2.246   3.118  18.190  0.00  0.00    +0.000 C 
ENDBRANCH  27  28
ENDBRANCH  24  27
ENDBRANCH  23  24
ENDBRANCH  22  23
ENDBRANCH   4  22
TORSDOF 9
ENDMDL
MODEL 4
REMARK VINA RESULT:      -7.8      2.082      2.478
REMARK  Name = 
REMARK  11 active torsions:
REMARK  status: ('A' for Active; 'I' for Inactive)
REMARK    1  A    between atoms: C_1  and  O_2
REMARK    2  A    between atoms: O_2  and  C_3
REMARK    3  A    between atoms: C_5  and  O_6
REMARK    4  A    between atoms: O_6  and  C_7
REMARK    5  A    between atoms: C_12  and  C_13
REMARK    6  A    between atoms: C_16  and  O_17
REMARK    7  A    between atoms: O_17  and  C_18
REMARK    8  A    between atoms: C_18  and  C_19
REMARK    9  A    between atoms: C_19  and  O_20
REMARK   10  A    between atoms: C_19  and  C_21
REMARK   11  A    between atoms: C_21  and  N_22
REMARK                            x       y       z     vdW  Elec       q    Type
REMARK                         _______ _______ _______ _____ _____    ______ ____
ROOT
ATOM      1  C   UNL     1       1.420   9.107  19.692  0.00  0.00    +0.000 A 
ATOM      2  C   UNL     1       1.749   9.331  18.353  0.00  0.00    +0.000 A 
ATOM      3  C   UNL     1       2.430   8.360  17.626  0.00  0.00    +0.000 A 
ATOM      4  C   UNL     1       2.793   7.151  18.224  0.00  0.00    +0.000 A 
ATOM      5  C   UNL     1       2.456   6.923  19.562  0.00  0.00    +0.000 A 
ATOM      6  C   UNL     1       1.772   7.897  20.296  0.00  0.00    +0.000 A 
ENDROOT
BRANCH   1  14
ATOM      7  C   UNL     1      -0.866  14.617  19.963  0.00  0.00    +0.000 A 
ATOM      8  C   UNL     1      -1.667  14.484  21.092  0.00  0.00    +0.000 A 
ATOM      9  C   UNL     1      -1.711  13.296  21.864  0.00  0.00    +0.000 A 
ATOM     10  C   UNL     1      -0.907  12.209  21.478  0.00  0.00    +0.000 A 
ATOM     11  C   UNL     1      -0.762  10.900  22.182  0.00  0.00    +0.000 A 
ATOM     12  O   UNL     1      -1.249  10.606  23.263  0.00  0.00    +0.000 OA
ATOM     13  C   UNL     1       0.044   9.858  21.532  0.00  0.00    +0.000 A 
ATOM     14  C   UNL     1       0.690  10.146  20.404  0.00  0.00    +0.000 A 
ATOM     15  O   UNL     1       0.678  11.365  19.785  0.00  0.00    +0.000 OA
ATOM     16  C   UNL     1      -0.130  12.350  20.305  0.00  0.00    +0.000 A 
ATOM     17  C   UNL     1      -0.114  13.532  19.557  0.00  0.00    +0.000 A 
BRANCH   7  19
ATOM     18  C   UNL     1       0.481  16.399  19.204  0.00  0.00    +0.000 C 
ATOM     19  O   UNL     1      -0.777  15.732  19.180  0.00  0.00    +0.000 OA
ENDBRANCH   7  19
BRANCH   9  20
ATOM     20  O   UNL     1      -2.595  13.493  22.885  0.00  0.00    +0.000 OA
ATOM     21  C   UNL     1      -2.264  14.164  24.081  0.00  0.00    +0.000 C 
ENDBRANCH   9  20
ENDBRANCH   1  14
BRANCH   4  22
ATOM     22  O   UNL     1       3.470   6.136  17.597  0.00  0.00    +0.000 OA
BRANCH  22  23
ATOM     23  C   UNL     1       4.582   5.608  18.335  0.00  0.00    +0.000 C 
BRANCH  23  24
ATOM     24  C   UNL     1       5.018   4.264  17.750  0.00  0.00    +0.000 C 
BRANCH  24  25
ATOM     25  O   UNL     1       6.325   3.920  18.231  0.00  0.00    +0.000 OA
ATOM     26  H   UNL     1       6.211   3.117  18.774  0.00  0.00    +0.000 HD
ENDBRANCH  24  25
BRANCH  24  27
ATOM     27  C   UNL     1       4.032   3.126  18.082  0.00  0.00    +0.000 C 
BRANCH  27  28
ATOM     28  N   UNL     1       3.153   3.386  19.240  0.00  0.00    +0.000 NA
ATOM     29  C   UNL     1       1.728   3.264  18.897  0.00  0.00    +0.000 C 
ATOM     30  C   UNL     1       0.840   3.596  20.097  0.00  0.00    +0.000 C 
ATOM     31  C   UNL     1       1.177   2.718  21.293  0.00  0.00    +0.000 C 
ATOM     32  C   UNL     1       2.669   2.787  21.596  0.00  0.00    +0.000 C 
ATOM     33  C   UNL     1       3.506   2.488  20.352  0.00  0.00    +0.000 C 
ENDBRANCH  27  28
ENDBRANCH  24  27
ENDBRANCH  23  24
ENDBRANCH  22  23
ENDBRANCH   4  22
TORSDOF 9
ENDMDL
MODEL 5
REMARK VINA RESULT:      -7.8      2.003      2.254
REMARK  Name = 
REMARK  11 active torsions:
REMARK  status: ('A' for Active; 'I' for Inactive)
REMARK    1  A    between atoms: C_1  and  O_2
REMARK    2  A    between atoms: O_2  and  C_3
REMARK    3  A    between atoms: C_5  and  O_6
REMARK    4  A    between atoms: O_6  and  C_7
REMARK    5  A    between atoms: C_12  and  C_13
REMARK    6  A    between atoms: C_16  and  O_17
REMARK    7  A    between atoms: O_17  and  C_18
REMARK    8  A    between atoms: C_18  and  C_19
REMARK    9  A    between atoms: C_19  and  O_20
REMARK   10  A    between atoms: C_19  and  C_21
REMARK   11  A    between atoms: C_21  and  N_22
REMARK                            x       y       z     vdW  Elec       q    Type
REMARK                         _______ _______ _______ _____ _____    ______ ____
ROOT
ATOM      1  C   UNL     1       1.360   9.253  19.536  0.00  0.00    +0.000 A 
ATOM      2  C   UNL     1       1.652   8.078  20.232  0.00  0.00    +0.000 A 
ATOM      3  C   UNL     1       2.359   7.052  19.611  0.00  0.00    +0.000 A 
ATOM      4  C   UNL     1       2.784   7.185  18.287  0.00  0.00    +0.000 A 
ATOM      5  C   UNL     1       2.500   8.365  17.593  0.00  0.00    +0.000 A 
ATOM      6  C   UNL     1       1.789   9.397  18.213  0.00  0.00    +0.000 A 
ENDROOT
BRANCH   1  14
ATOM      7  C   UNL     1      -0.837  14.801  19.773  0.00  0.00    +0.000 A 
ATOM      8  C   UNL     1      -1.660  14.680  20.887  0.00  0.00    +0.000 A 
ATOM      9  C   UNL     1      -1.738  13.492  21.656  0.00  0.00    +0.000 A 
ATOM     10  C   UNL     1      -0.946  12.392  21.283  0.00  0.00    +0.000 A 
ATOM     11  C   UNL     1      -0.835  11.080  21.988  0.00  0.00    +0.000 A 
ATOM     12  O   UNL     1      -1.347  10.794  23.060  0.00  0.00    +0.000 OA
ATOM     13  C   UNL     1      -0.036  10.025  21.351  0.00  0.00    +0.000 A 
ATOM     14  C   UNL     1       0.635  10.304  20.235  0.00  0.00    +0.000 A 
ATOM     15  O   UNL     1       0.655  11.524  19.618  0.00  0.00    +0.000 OA
ATOM     16  C   UNL     1      -0.145  12.522  20.125  0.00  0.00    +0.000 A 
ATOM     17  C   UNL     1      -0.096  13.703  19.379  0.00  0.00    +0.000 A 
BRANCH   7  19
ATOM     18  C   UNL     1      -1.091  17.142  19.613  0.00  0.00    +0.000 C 
ATOM     19  O   UNL     1      -0.716  15.915  18.993  0.00  0.00    +0.000 OA
ENDBRANCH   7  19
BRANCH   9  20
ATOM     20  O   UNL     1      -2.636  13.703  22.662  0.00  0.00    +0.000 OA
ATOM     21  C   UNL     1      -3.946  13.179  22.656  0.00  0.00    +0.000 C 
ENDBRANCH   9  20
ENDBRANCH   1  14
BRANCH   4  22
ATOM     22  O   UNL     1       3.479   6.232  17.586  0.00  0.00    +0.000 OA
BRANCH  22  23
ATOM     23  C   UNL     1       4.632   5.709  18.263  0.00  0.00    +0.000 C 
BRANCH  23  24
ATOM     24  C   UNL     1       5.019   4.348  17.681  0.00  0.00    +0.000 C 
BRANCH  24  25
ATOM     25  O   UNL     1       6.292   3.936  18.198  0.00  0.00    +0.000 OA
ATOM     26  H   UNL     1       6.151   3.054  18.591  0.00  0.00    +0.000 HD
ENDBRANCH  24  25
BRANCH  24  27
ATOM     27  C   UNL     1       3.967   3.259  17.975  0.00  0.00    +0.000 C 
BRANCH  27  28
ATOM     28  N   UNL     1       3.162   3.487  19.192  0.00  0.00    +0.000 NA
ATOM     29  C   UNL     1       1.719   3.514  18.909  0.00  0.00    +0.000 C 
ATOM     30  C   UNL     1       0.913   3.811  20.174  0.00  0.00    +0.000 C 
ATOM     31  C   UNL     1       1.222   2.806  21.274  0.00  0.00    +0.000 C 
ATOM     32  C   UNL     1       2.725   2.725  21.509  0.00  0.00    +0.000 C 
ATOM     33  C   UNL     1       3.482   2.469  20.205  0.00  0.00    +0.000 C 
ENDBRANCH  27  28
ENDBRANCH  24  27
ENDBRANCH  23  24
ENDBRANCH  22  23
ENDBRANCH   4  22
TORSDOF 9
ENDMDL
MODEL 6
REMARK VINA RESULT:      -7.8      0.969      1.335
REMARK  Name = 
REMARK  11 active torsions:
REMARK  status: ('A' for Active; 'I' for Inactive)
REMARK    1  A    between atoms: C_1  and  O_2
REMARK    2  A    between atoms: O_2  and  C_3
REMARK    3  A    between atoms: C_5  and  O_6
REMARK    4  A    between atoms: O_6  and  C_7
REMARK    5  A    between atoms: C_12  and  C_13
REMARK    6  A    between atoms: C_16  and  O_17
REMARK    7  A    between atoms: O_17  and  C_18
REMARK    8  A    between atoms: C_18  and  C_19
REMARK    9  A    between atoms: C_19  and  O_20
REMARK   10  A    between atoms: C_19  and  C_21
REMARK   11  A    between atoms: C_21  and  N_22
REMARK                            x       y       z     vdW  Elec       q    Type
REMARK                         _______ _______ _______ _____ _____    ______ ____
ROOT
ATOM      1  C   UNL     1       1.246   9.081  19.247  0.00  0.00    +0.000 A 
ATOM      2  C   UNL     1       1.527   8.047  20.143  0.00  0.00    +0.000 A 
ATOM      3  C   UNL     1       2.390   7.018  19.779  0.00  0.00    +0.000 A 
ATOM      4  C   UNL     1       2.986   7.006  18.516  0.00  0.00    +0.000 A 
ATOM      5  C   UNL     1       2.712   8.046  17.622  0.00  0.00    +0.000 A 
ATOM      6  C   UNL     1       1.844   9.081  17.984  0.00  0.00    +0.000 A 
ENDROOT
BRANCH   1  14
ATOM      7  C   UNL     1      -3.913  12.057  18.810  0.00  0.00    +0.000 A 
ATOM      8  C   UNL     1      -3.855  12.800  19.984  0.00  0.00    +0.000 A 
ATOM      9  C   UNL     1      -2.739  12.767  20.856  0.00  0.00    +0.000 A 
ATOM     10  C   UNL     1      -1.642  11.955  20.521  0.00  0.00    +0.000 A 
ATOM     11  C   UNL     1      -0.355  11.824  21.267  0.00  0.00    +0.000 A 
ATOM     12  O   UNL     1      -0.017  12.482  22.239  0.00  0.00    +0.000 OA
ATOM     13  C   UNL     1       0.610  10.821  20.799  0.00  0.00    +0.000 A 
ATOM     14  C   UNL     1       0.351  10.143  19.682  0.00  0.00    +0.000 A 
ATOM     15  O   UNL     1      -0.761  10.311  18.904  0.00  0.00    +0.000 OA
ATOM     16  C   UNL     1      -1.736  11.177  19.344  0.00  0.00    +0.000 A 
ATOM     17  C   UNL     1      -2.855  11.222  18.506  0.00  0.00    +0.000 A 
BRANCH   7  19
ATOM     18  C   UNL     1      -4.712  11.365  16.700  0.00  0.00    +0.000 C 
ATOM     19  O   UNL     1      -4.955  12.046  17.928  0.00  0.00    +0.000 OA
ENDBRANCH   7  19
BRANCH   9  20
ATOM     20  O   UNL     1      -3.006  13.595  21.909  0.00  0.00    +0.000 OA
ATOM     21  C   UNL     1      -2.694  14.970  21.914  0.00  0.00    +0.000 C 
ENDBRANCH   9  20
ENDBRANCH   1  14
BRANCH   4  22
ATOM     22  O   UNL     1       3.844   6.037  18.061  0.00  0.00    +0.000 OA
BRANCH  22  23
ATOM     23  C   UNL     1       4.608   5.381  19.085  0.00  0.00    +0.000 C 
BRANCH  23  24
ATOM     24  C   UNL     1       5.041   3.991  18.617  0.00  0.00    +0.000 C 
BRANCH  24  25
ATOM     25  O   UNL     1       6.445   3.987  18.324  0.00  0.00    +0.000 OA
ATOM     26  H   UNL     1       6.765   4.887  18.523  0.00  0.00    +0.000 HD
ENDBRANCH  24  25
BRANCH  24  27
ATOM     27  C   UNL     1       4.728   2.893  19.654  0.00  0.00    +0.000 C 
BRANCH  27  28
ATOM     28  N   UNL     1       3.293   2.588  19.819  0.00  0.00    +0.000 NA
ATOM     29  C   UNL     1       2.673   3.384  20.890  0.00  0.00    +0.000 C 
ATOM     30  C   UNL     1       1.204   3.007  21.079  0.00  0.00    +0.000 C 
ATOM     31  C   UNL     1       0.423   3.160  19.782  0.00  0.00    +0.000 C 
ATOM     32  C   UNL     1       1.112   2.397  18.658  0.00  0.00    +0.000 C 
ATOM     33  C   UNL     1       2.587   2.783  18.543  0.00  0.00    +0.000 C 
ENDBRANCH  27  28
ENDBRANCH  24  27
ENDBRANCH  23  24
ENDBRANCH  22  23
ENDBRANCH   4  22
TORSDOF 9
ENDMDL
MODEL 7
REMARK VINA RESULT:      -7.7      0.941      1.076
REMARK  Name = 
REMARK  11 active torsions:
REMARK  status: ('A' for Active; 'I' for Inactive)
REMARK    1  A    between atoms: C_1  and  O_2
REMARK    2  A    between atoms: O_2  and  C_3
REMARK    3  A    between atoms: C_5  and  O_6
REMARK    4  A    between atoms: O_6  and  C_7
REMARK    5  A    between atoms: C_12  and  C_13
REMARK    6  A    between atoms: C_16  and  O_17
REMARK    7  A    between atoms: O_17  and  C_18
REMARK    8  A    between atoms: C_18  and  C_19
REMARK    9  A    between atoms: C_19  and  O_20
REMARK   10  A    between atoms: C_19  and  C_21
REMARK   11  A    between atoms: C_21  and  N_22
REMARK                            x       y       z     vdW  Elec       q    Type
REMARK                         _______ _______ _______ _____ _____    ______ ____
ROOT
ATOM      1  C   UNL     1       1.424   9.089  18.983  0.00  0.00    +0.000 A 
ATOM      2  C   UNL     1       1.724   8.006  19.814  0.00  0.00    +0.000 A 
ATOM      3  C   UNL     1       2.611   7.022  19.389  0.00  0.00    +0.000 A 
ATOM      4  C   UNL     1       3.211   7.103  18.131  0.00  0.00    +0.000 A 
ATOM      5  C   UNL     1       2.917   8.190  17.303  0.00  0.00    +0.000 A 
ATOM      6  C   UNL     1       2.026   9.182  17.726  0.00  0.00    +0.000 A 
ENDROOT
BRANCH   1  14
ATOM      7  C   UNL     1      -3.811  11.951  18.736  0.00  0.00    +0.000 A 
ATOM      8  C   UNL     1      -3.766  12.629  19.948  0.00  0.00    +0.000 A 
ATOM      9  C   UNL     1      -2.644  12.577  20.813  0.00  0.00    +0.000 A 
ATOM     10  C   UNL     1      -1.528  11.812  20.429  0.00  0.00    +0.000 A 
ATOM     11  C   UNL     1      -0.235  11.674  21.160  0.00  0.00    +0.000 A 
ATOM     12  O   UNL     1       0.093  12.285  22.166  0.00  0.00    +0.000 OA
ATOM     13  C   UNL     1       0.753  10.723  20.633  0.00  0.00    +0.000 A 
ATOM     14  C   UNL     1       0.505  10.102  19.481  0.00  0.00    +0.000 A 
ATOM     15  O   UNL     1      -0.615  10.285  18.719  0.00  0.00    +0.000 OA
ATOM     16  C   UNL     1      -1.610  11.099  19.210  0.00  0.00    +0.000 A 
ATOM     17  C   UNL     1      -2.734  11.162  18.381  0.00  0.00    +0.000 A 
BRANCH   7  19
ATOM     18  C   UNL     1      -6.145  11.766  18.437  0.00  0.00    +0.000 C 
ATOM     19  O   UNL     1      -4.857  11.963  17.859  0.00  0.00    +0.000 OA
ENDBRANCH   7  19
BRANCH   9  20
ATOM     20  O   UNL     1      -2.926  13.338  21.911  0.00  0.00    +0.000 OA
ATOM     21  C   UNL     1      -2.573  14.698  22.025  0.00  0.00    +0.000 C 
ENDBRANCH   9  20
ENDBRANCH   1  14
BRANCH   4  22
ATOM     22  O   UNL     1       4.091   6.182  17.619  0.00  0.00    +0.000 OA
BRANCH  22  23
ATOM     23  C   UNL     1       5.166   5.824  18.500  0.00  0.00    +0.000 C 
BRANCH  23  24
ATOM     24  C   UNL     1       5.488   4.335  18.367  0.00  0.00    +0.000 C 
BRANCH  24  25
ATOM     25  O   UNL     1       6.909   4.136  18.391  0.00  0.00    +0.000 OA
ATOM     26  H   UNL     1       7.114   3.563  17.628  0.00  0.00    +0.000 HD
ENDBRANCH  24  25
BRANCH  24  27
ATOM     27  C   UNL     1       4.831   3.486  19.475  0.00  0.00    +0.000 C 
BRANCH  27  28
ATOM     28  N   UNL     1       3.359   3.581  19.537  0.00  0.00    +0.000 NA
ATOM     29  C   UNL     1       2.722   3.189  18.270  0.00  0.00    +0.000 C 
ATOM     30  C   UNL     1       1.203   3.352  18.341  0.00  0.00    +0.000 C 
ATOM     31  C   UNL     1       0.616   2.560  19.500  0.00  0.00    +0.000 C 
ATOM     32  C   UNL     1       1.333   2.912  20.798  0.00  0.00    +0.000 C 
ATOM     33  C   UNL     1       2.849   2.772  20.655  0.00  0.00    +0.000 C 
ENDBRANCH  27  28
ENDBRANCH  24  27
ENDBRANCH  23  24
ENDBRANCH  22  23
ENDBRANCH   4  22
TORSDOF 9
ENDMDL
MODEL 8
REMARK VINA RESULT:      -7.6      2.580      9.216
REMARK  Name = 
REMARK  11 active torsions:
REMARK  status: ('A' for Active; 'I' for Inactive)
REMARK    1  A    between atoms: C_1  and  O_2
REMARK    2  A    between atoms: O_2  and  C_3
REMARK    3  A    between atoms: C_5  and  O_6
REMARK    4  A    between atoms: O_6  and  C_7
REMARK    5  A    between atoms: C_12  and  C_13
REMARK    6  A    between atoms: C_16  and  O_17
REMARK    7  A    between atoms: O_17  and  C_18
REMARK    8  A    between atoms: C_18  and  C_19
REMARK    9  A    between atoms: C_19  and  O_20
REMARK   10  A    between atoms: C_19  and  C_21
REMARK   11  A    between atoms: C_21  and  N_22
REMARK                            x       y       z     vdW  Elec       q    Type
REMARK                         _______ _______ _______ _____ _____    ______ ____
ROOT
ATOM      1  C   UNL     1       1.435   8.596  19.977  0.00  0.00    +0.000 A 
ATOM      2  C   UNL     1       0.939   8.888  21.250  0.00  0.00    +0.000 A 
ATOM      3  C   UNL     1       0.499  10.173  21.553  0.00  0.00    +0.000 A 
ATOM      4  C   UNL     1       0.547  11.184  20.591  0.00  0.00    +0.000 A 
ATOM      5  C   UNL     1       1.035  10.889  19.314  0.00  0.00    +0.000 A 
ATOM      6  C   UNL     1       1.479   9.600  19.006  0.00  0.00    +0.000 A 
ENDROOT
BRANCH   1  14
ATOM      7  C   UNL     1       4.632   4.676  16.802  0.00  0.00    +0.000 A 
ATOM      8  C   UNL     1       4.513   3.559  17.620  0.00  0.00    +0.000 A 
ATOM      9  C   UNL     1       3.727   3.553  18.799  0.00  0.00    +0.000 A 
ATOM     10  C   UNL     1       3.032   4.723  19.155  0.00  0.00    +0.000 A 
ATOM     11  C   UNL     1       2.110   4.907  20.314  0.00  0.00    +0.000 A 
ATOM     12  O   UNL     1       1.737   4.035  21.083  0.00  0.00    +0.000 OA
ATOM     13  C   UNL     1       1.585   6.256  20.565  0.00  0.00    +0.000 A 
ATOM     14  C   UNL     1       1.866   7.232  19.703  0.00  0.00    +0.000 A 
ATOM     15  O   UNL     1       2.612   7.083  18.567  0.00  0.00    +0.000 OA
ATOM     16  C   UNL     1       3.198   5.861  18.331  0.00  0.00    +0.000 A 
ATOM     17  C   UNL     1       3.989   5.840  17.178  0.00  0.00    +0.000 A 
BRANCH   7  19
ATOM     18  C   UNL     1       6.678   5.291  15.799  0.00  0.00    +0.000 C 
ATOM     19  O   UNL     1       5.370   4.746  15.655  0.00  0.00    +0.000 OA
ENDBRANCH   7  19
BRANCH   9  20
ATOM     20  O   UNL     1       3.832   2.317  19.367  0.00  0.00    +0.000 OA
ATOM     21  C   UNL     1       4.562   2.064  20.548  0.00  0.00    +0.000 C 
ENDBRANCH   9  20
ENDBRANCH   1  14
BRANCH   4  22
ATOM     22  O   UNL     1       0.144  12.480  20.793  0.00  0.00    +0.000 OA
BRANCH  22  23
ATOM     23  C   UNL     1      -1.207  12.624  21.257  0.00  0.00    +0.000 C 
BRANCH  23  24
ATOM     24  C   UNL     1      -2.113  13.095  20.118  0.00  0.00    +0.000 C 
BRANCH  24  25
ATOM     25  O   UNL     1      -1.318  13.582  19.028  0.00  0.00    +0.000 OA
ATOM     26  H   UNL     1      -1.858  14.262  18.582  0.00  0.00    +0.000 HD
ENDBRANCH  24  25
BRANCH  24  27
ATOM     27  C   UNL     1      -3.053  11.981  19.611  0.00  0.00    +0.000 C 
BRANCH  27  28
ATOM     28  N   UNL     1      -2.787  11.525  18.233  0.00  0.00    +0.000 NA
ATOM     29  C   UNL     1      -2.214  10.171  18.194  0.00  0.00    +0.000 C 
ATOM     30  C   UNL     1      -1.893   9.746  16.761  0.00  0.00    +0.000 C 
ATOM     31  C   UNL     1      -3.125   9.829  15.871  0.00  0.00    +0.000 C 
ATOM     32  C   UNL     1      -3.760  11.211  15.975  0.00  0.00    +0.000 C 
ATOM     33  C   UNL     1      -4.019  11.599  17.431  0.00  0.00    +0.000 C 
ENDBRANCH  27  28
ENDBRANCH  24  27
ENDBRANCH  23  24
ENDBRANCH  22  23
ENDBRANCH   4  22
TORSDOF 9
ENDMDL
MODEL 9
REMARK VINA RESULT:      -7.5      1.952      2.297
REMARK  Name = 
REMARK  11 active torsions:
REMARK  status: ('A' for Active; 'I' for Inactive)
REMARK    1  A    between atoms: C_1  and  O_2
REMARK    2  A    between atoms: O_2  and  C_3
REMARK    3  A    between atoms: C_5  and  O_6
REMARK    4  A    between atoms: O_6  and  C_7
REMARK    5  A    between atoms: C_12  and  C_13
REMARK    6  A    between atoms: C_16  and  O_17
REMARK    7  A    between atoms: O_17  and  C_18
REMARK    8  A    between atoms: C_18  and  C_19
REMARK    9  A    between atoms: C_19  and  O_20
REMARK   10  A    between atoms: C_19  and  C_21
REMARK   11  A    between atoms: C_21  and  N_22
REMARK                            x       y       z     vdW  Elec       q    Type
REMARK                         _______ _______ _______ _____ _____    ______ ____
ROOT
ATOM      1  C   UNL     1       1.692   8.556  19.577  0.00  0.00    +0.000 A 
ATOM      2  C   UNL     1       2.113   7.314  20.057  0.00  0.00    +0.000 A 
ATOM      3  C   UNL     1       2.883   6.476  19.256  0.00  0.00    +0.000 A 
ATOM      4  C   UNL     1       3.243   6.866  17.964  0.00  0.00    +0.000 A 
ATOM      5  C   UNL     1       2.829   8.113  17.486  0.00  0.00    +0.000 A 
ATOM      6  C   UNL     1       2.055   8.957  18.288  0.00  0.00    +0.000 A 
ENDROOT
BRANCH   1  14
ATOM      7  C   UNL     1      -1.326  13.599  20.639  0.00  0.00    +0.000 A 
ATOM      8  C   UNL     1      -1.965  13.245  21.823  0.00  0.00    +0.000 A 
ATOM      9  C   UNL     1      -1.746  12.003  22.469  0.00  0.00    +0.000 A 
ATOM     10  C   UNL     1      -0.842  11.091  21.895  0.00  0.00    +0.000 A 
ATOM     11  C   UNL     1      -0.429   9.766  22.443  0.00  0.00    +0.000 A 
ATOM     12  O   UNL     1      -0.741   9.307  23.531  0.00  0.00    +0.000 OA
ATOM     13  C   UNL     1       0.440   8.922  21.612  0.00  0.00    +0.000 A 
ATOM     14  C   UNL     1       0.904   9.404  20.461  0.00  0.00    +0.000 A 
ATOM     15  O   UNL     1       0.644  10.655  19.974  0.00  0.00    +0.000 OA
ATOM     16  C   UNL     1      -0.233  11.453  20.671  0.00  0.00    +0.000 A 
ATOM     17  C   UNL     1      -0.475  12.683  20.050  0.00  0.00    +0.000 A 
BRANCH   7  19
ATOM     18  C   UNL     1      -1.587  15.939  20.789  0.00  0.00    +0.000 C 
ATOM     19  O   UNL     1      -1.491  14.777  19.970  0.00  0.00    +0.000 OA
ENDBRANCH   7  19
BRANCH   9  20
ATOM     20  O   UNL     1      -2.527  11.970  23.589  0.00  0.00    +0.000 OA
ATOM     21  C   UNL     1      -3.580  12.877  23.828  0.00  0.00    +0.000 C 
ENDBRANCH   9  20
ENDBRANCH   1  14
BRANCH   4  22
ATOM     22  O   UNL     1       3.992   6.112  17.096  0.00  0.00    +0.000 OA
BRANCH  22  23
ATOM     23  C   UNL     1       4.981   5.279  17.721  0.00  0.00    +0.000 C 
BRANCH  23  24
ATOM     24  C   UNL     1       4.633   3.803  17.526  0.00  0.00    +0.000 C 
BRANCH  24  25
ATOM     25  O   UNL     1       5.554   3.199  16.606  0.00  0.00    +0.000 OA
ATOM     26  H   UNL     1       6.200   3.893  16.376  0.00  0.00    +0.000 HD
ENDBRANCH  24  25
BRANCH  24  27
ATOM     27  C   UNL     1       4.636   3.013  18.851  0.00  0.00    +0.000 C 
BRANCH  27  28
ATOM     28  N   UNL     1       3.299   2.644  19.355  0.00  0.00    +0.000 NA
ATOM     29  C   UNL     1       3.002   3.264  20.656  0.00  0.00    +0.000 C 
ATOM     30  C   UNL     1       1.638   2.819  21.183  0.00  0.00    +0.000 C 
ATOM     31  C   UNL     1       0.533   3.126  20.183  0.00  0.00    +0.000 C 
ATOM     32  C   UNL     1       0.881   2.548  18.816  0.00  0.00    +0.000 C 
ATOM     33  C   UNL     1       2.272   2.992  18.360  0.00  0.00    +0.000 C 
ENDBRANCH  27  28
ENDBRANCH  24  27
ENDBRANCH  23  24
ENDBRANCH  22  23
ENDBRANCH   4  22
TORSDOF 9
ENDMDL
