MODEL 1
REMARK VINA RESULT:      -7.3      0.000      0.000
REMARK  Name = 
REMARK  5 active torsions:
REMARK  status: ('A' for Active; 'I' for Inactive)
REMARK    1  A    between atoms: C_1  and  N_2
REMARK    2  A    between atoms: C_5  and  C_6
REMARK    3  A    between atoms: C_6  and  S_7
REMARK    4  A    between atoms: S_7  and  C_10
REMARK    5  A    between atoms: C_10  and  C_11
REMARK                            x       y       z     vdW  Elec       q    Type
REMARK                         _______ _______ _______ _____ _____    ______ ____
ROOT
ATOM      1  S   UNL     1       6.234   6.131  16.502  0.00  0.00    +0.000 S 
ATOM      2  O   UNL     1       5.186   6.770  15.727  0.00  0.00    +0.000 OA
ATOM      3  O   UNL     1       7.589   6.656  16.526  0.00  0.00    +0.000 OA
ENDROOT
BRANCH   1   4
ATOM      4  C   UNL     1       5.667   6.050  18.204  0.00  0.00    +0.000 C 
BRANCH   4   9
ATOM      5  C   UNL     1       1.610   1.990  18.683  0.00  0.00    +0.000 C 
ATOM      6  N   UNL     1       2.625   3.022  18.552  0.00  0.00    +0.000 N 
ATOM      7  C   UNL     1       3.867   2.851  19.132  0.00  0.00    +0.000 A 
ATOM      8  C   UNL     1       4.818   3.791  19.026  0.00  0.00    +0.000 A 
ATOM      9  C   UNL     1       4.563   5.024  18.302  0.00  0.00    +0.000 A 
ATOM     10  C   UNL     1       3.360   5.200  17.725  0.00  0.00    +0.000 A 
ATOM     11  C   UNL     1       2.288   4.172  17.842  0.00  0.00    +0.000 A 
ATOM     12  O   UNL     1       1.198   4.373  17.312  0.00  0.00    +0.000 OA
ENDBRANCH   4   9
ENDBRANCH   1   4
BRANCH   1  13
ATOM     13  C   UNL     1       6.313   4.404  16.005  0.00  0.00    +0.000 C 
BRANCH  13  14
ATOM     14  C   UNL     1       6.483   4.348  14.506  0.00  0.00    +0.000 A 
ATOM     15  C   UNL     1       5.661   3.520  13.727  0.00  0.00    +0.000 A 
ATOM     16  C   UNL     1       5.873   3.396  12.353  0.00  0.00    +0.000 A 
ATOM     17  C   UNL     1       6.906   4.101  11.739  0.00  0.00    +0.000 A 
ATOM     18  C   UNL     1       7.720   4.939  12.498  0.00  0.00    +0.000 A 
ATOM     19  C   UNL     1       7.510   5.065  13.872  0.00  0.00    +0.000 A 
ENDBRANCH  13  14
ENDBRANCH   1  13
TORSDOF 4
ENDMDL
MODEL 2
REMARK VINA RESULT:      -7.2      1.235      2.030
REMARK  Name = 
REMARK  5 active torsions:
REMARK  status: ('A' for Active; 'I' for Inactive)
REMARK    1  A    between atoms: C_1  and  N_2
REMARK    2  A    between atoms: C_5  and  C_6
REMARK    3  A    between atoms: C_6  and  S_7
REMARK    4  A    between atoms: S_7  and  C_10
REMARK    5  A    between atoms: C_10  and  C_11
REMARK                            x       y       z     vdW  Elec       q    Type
REMARK                         _______ _______ _______ _____ _____    ______ ____
ROOT
ATOM      1  S   UNL     1       7.005   5.481  16.851  0.00  0.00    +0.000 S 
ATOM      2  O   UNL     1       7.580   6.765  16.491  0.00  0.00    +0.000 OA
ATOM      3  O   UNL     1       7.814   4.275  16.909  0.00  0.00    +0.000 OA
ENDROOT
BRANCH   1   4
ATOM      4  C   UNL     1       6.228   5.677  18.459  0.00  0.00    +0.000 C 
BRANCH   4   9
ATOM      5  C   UNL     1       1.175   2.914  18.505  0.00  0.00    +0.000 C 
ATOM      6  N   UNL     1       2.457   3.597  18.498  0.00  0.00    +0.000 N 
ATOM      7  C   UNL     1       2.512   4.966  18.322  0.00  0.00    +0.000 A 
ATOM      8  C   UNL     1       3.684   5.619  18.309  0.00  0.00    +0.000 A 
ATOM      9  C   UNL     1       4.934   4.898  18.473  0.00  0.00    +0.000 A 
ATOM     10  C   UNL     1       4.895   3.565  18.654  0.00  0.00    +0.000 A 
ATOM     11  C   UNL     1       3.603   2.822  18.659  0.00  0.00    +0.000 A 
ATOM     12  O   UNL     1       3.608   1.604  18.815  0.00  0.00    +0.000 OA
ENDBRANCH   4   9
ENDBRANCH   1   4
BRANCH   1  13
ATOM     13  C   UNL     1       5.616   5.170  15.752  0.00  0.00    +0.000 C 
BRANCH  13  14
ATOM     14  C   UNL     1       6.157   4.701  14.423  0.00  0.00    +0.000 A 
ATOM     15  C   UNL     1       7.308   5.288  13.876  0.00  0.00    +0.000 A 
ATOM     16  C   UNL     1       7.762   4.920  12.608  0.00  0.00    +0.000 A 
ATOM     17  C   UNL     1       7.073   3.959  11.872  0.00  0.00    +0.000 A 
ATOM     18  C   UNL     1       5.938   3.355  12.409  0.00  0.00    +0.000 A 
ATOM     19  C   UNL     1       5.483   3.721  13.677  0.00  0.00    +0.000 A 
ENDBRANCH  13  14
ENDBRANCH   1  13
TORSDOF 4
ENDMDL
MODEL 3
REMARK VINA RESULT:      -7.1      0.796      1.479
REMARK  Name = 
REMARK  5 active torsions:
REMARK  status: ('A' for Active; 'I' for Inactive)
REMARK    1  A    between atoms: C_1  and  N_2
REMARK    2  A    between atoms: C_5  and  C_6
REMARK    3  A    between atoms: C_6  and  S_7
REMARK    4  A    between atoms: S_7  and  C_10
REMARK    5  A    between atoms: C_10  and  C_11
REMARK                            x       y       z     vdW  Elec       q    Type
REMARK                         _______ _______ _______ _____ _____    ______ ____
ROOT
ATOM      1  S   UNL     1       6.695   5.595  16.796  0.00  0.00    +0.000 S 
ATOM      2  O   UNL     1       7.671   6.657  16.635  0.00  0.00    +0.000 OA
ATOM      3  O   UNL     1       7.095   4.202  16.897  0.00  0.00    +0.000 OA
ENDROOT
BRANCH   1   4
ATOM      4  C   UNL     1       5.728   5.976  18.261  0.00  0.00    +0.000 C 
BRANCH   4   9
ATOM      5  C   UNL     1       1.610   1.990  18.840  0.00  0.00    +0.000 C 
ATOM      6  N   UNL     1       2.640   3.003  18.683  0.00  0.00    +0.000 N 
ATOM      7  C   UNL     1       3.866   2.847  19.300  0.00  0.00    +0.000 A 
ATOM      8  C   UNL     1       4.831   3.769  19.171  0.00  0.00    +0.000 A 
ATOM      9  C   UNL     1       4.608   4.969  18.382  0.00  0.00    +0.000 A 
ATOM     10  C   UNL     1       3.422   5.130  17.769  0.00  0.00    +0.000 A 
ATOM     11  C   UNL     1       2.334   4.121  17.910  0.00  0.00    +0.000 A 
ATOM     12  O   UNL     1       1.259   4.309  17.345  0.00  0.00    +0.000 OA
ENDBRANCH   4   9
ENDBRANCH   1   4
BRANCH   1  13
ATOM     13  C   UNL     1       5.499   5.737  15.459  0.00  0.00    +0.000 C 
BRANCH  13  14
ATOM     14  C   UNL     1       6.022   4.965  14.271  0.00  0.00    +0.000 A 
ATOM     15  C   UNL     1       7.240   5.320  13.672  0.00  0.00    +0.000 A 
ATOM     16  C   UNL     1       7.683   4.668  12.520  0.00  0.00    +0.000 A 
ATOM     17  C   UNL     1       6.917   3.652  11.954  0.00  0.00    +0.000 A 
ATOM     18  C   UNL     1       5.713   3.278  12.547  0.00  0.00    +0.000 A 
ATOM     19  C   UNL     1       5.268   3.928  13.700  0.00  0.00    +0.000 A 
ENDBRANCH  13  14
ENDBRANCH   1  13
TORSDOF 4
ENDMDL
MODEL 4
REMARK VINA RESULT:      -7.0      1.220      1.639
REMARK  Name = 
REMARK  5 active torsions:
REMARK  status: ('A' for Active; 'I' for Inactive)
REMARK    1  A    between atoms: C_1  and  N_2
REMARK    2  A    between atoms: C_5  and  C_6
REMARK    3  A    between atoms: C_6  and  S_7
REMARK    4  A    between atoms: S_7  and  C_10
REMARK    5  A    between atoms: C_10  and  C_11
REMARK                            x       y       z     vdW  Elec       q    Type
REMARK                         _______ _______ _______ _____ _____    ______ ____
ROOT
ATOM      1  S   UNL     1       6.156   6.439  16.372  0.00  0.00    +0.000 S 
ATOM      2  O   UNL     1       5.222   7.070  15.458  0.00  0.00    +0.000 OA
ATOM      3  O   UNL     1       7.537   6.880  16.472  0.00  0.00    +0.000 OA
ENDROOT
BRANCH   1   4
ATOM      4  C   UNL     1       5.446   6.544  18.019  0.00  0.00    +0.000 C 
BRANCH   4   9
ATOM      5  C   UNL     1       2.307   1.808  18.963  0.00  0.00    +0.000 C 
ATOM      6  N   UNL     1       3.109   2.998  18.736  0.00  0.00    +0.000 N 
ATOM      7  C   UNL     1       2.635   4.009  17.923  0.00  0.00    +0.000 A 
ATOM      8  C   UNL     1       3.359   5.116  17.697  0.00  0.00    +0.000 A 
ATOM      9  C   UNL     1       4.672   5.277  18.297  0.00  0.00    +0.000 A 
ATOM     10  C   UNL     1       5.143   4.304  19.098  0.00  0.00    +0.000 A 
ATOM     11  C   UNL     1       4.358   3.062  19.351  0.00  0.00    +0.000 A 
ATOM     12  O   UNL     1       4.825   2.190  20.078  0.00  0.00    +0.000 OA
ENDBRANCH   4   9
ENDBRANCH   1   4
BRANCH   1  13
ATOM     13  C   UNL     1       6.157   4.673  16.030  0.00  0.00    +0.000 C 
BRANCH  13  14
ATOM     14  C   UNL     1       6.385   4.477  14.550  0.00  0.00    +0.000 A 
ATOM     15  C   UNL     1       5.552   3.624  13.809  0.00  0.00    +0.000 A 
ATOM     16  C   UNL     1       5.813   3.369  12.462  0.00  0.00    +0.000 A 
ATOM     17  C   UNL     1       6.906   3.966  11.837  0.00  0.00    +0.000 A 
ATOM     18  C   UNL     1       7.732   4.827  12.556  0.00  0.00    +0.000 A 
ATOM     19  C   UNL     1       7.473   5.084  13.904  0.00  0.00    +0.000 A 
ENDBRANCH  13  14
ENDBRANCH   1  13
TORSDOF 4
ENDMDL
MODEL 5
REMARK VINA RESULT:      -7.0      1.281      1.721
REMARK  Name = 
REMARK  5 active torsions:
REMARK  status: ('A' for Active; 'I' for Inactive)
REMARK    1  A    between atoms: C_1  and  N_2
REMARK    2  A    between atoms: C_5  and  C_6
REMARK    3  A    between atoms: C_6  and  S_7
REMARK    4  A    between atoms: S_7  and  C_10
REMARK    5  A    between atoms: C_10  and  C_11
REMARK                            x       y       z     vdW  Elec       q    Type
REMARK                         _______ _______ _______ _____ _____    ______ ____
ROOT
ATOM      1  S   UNL     1       7.117   5.389  16.978  0.00  0.00    +0.000 S 
ATOM      2  O   UNL     1       7.597   6.679  16.517  0.00  0.00    +0.000 OA
ATOM      3  O   UNL     1       7.999   4.237  17.065  0.00  0.00    +0.000 OA
ENDROOT
BRANCH   1   4
ATOM      4  C   UNL     1       6.402   5.634  18.607  0.00  0.00    +0.000 C 
BRANCH   4   9
ATOM      5  C   UNL     1       1.099   3.393  18.755  0.00  0.00    +0.000 C 
ATOM      6  N   UNL     1       2.443   3.944  18.721  0.00  0.00    +0.000 N 
ATOM      7  C   UNL     1       2.630   5.309  18.619  0.00  0.00    +0.000 A 
ATOM      8  C   UNL     1       3.861   5.841  18.584  0.00  0.00    +0.000 A 
ATOM      9  C   UNL     1       5.037   4.989  18.643  0.00  0.00    +0.000 A 
ATOM     10  C   UNL     1       4.869   3.659  18.752  0.00  0.00    +0.000 A 
ATOM     11  C   UNL     1       3.509   3.050  18.780  0.00  0.00    +0.000 A 
ATOM     12  O   UNL     1       3.396   1.830  18.868  0.00  0.00    +0.000 OA
ENDBRANCH   4   9
ENDBRANCH   1   4
BRANCH   1  13
ATOM     13  C   UNL     1       5.701   4.933  15.966  0.00  0.00    +0.000 C 
BRANCH  13  14
ATOM     14  C   UNL     1       6.185   4.682  14.558  0.00  0.00    +0.000 A 
ATOM     15  C   UNL     1       5.507   3.782  13.723  0.00  0.00    +0.000 A 
ATOM     16  C   UNL     1       6.000   3.479  12.452  0.00  0.00    +0.000 A 
ATOM     17  C   UNL     1       7.175   4.076  11.999  0.00  0.00    +0.000 A 
ATOM     18  C   UNL     1       7.850   4.984  12.811  0.00  0.00    +0.000 A 
ATOM     19  C   UNL     1       7.358   5.289  14.082  0.00  0.00    +0.000 A 
ENDBRANCH  13  14
ENDBRANCH   1  13
TORSDOF 4
ENDMDL
MODEL 6
REMARK VINA RESULT:      -7.0      1.569      1.661
REMARK  Name = 
REMARK  5 active torsions:
REMARK  status: ('A' for Active; 'I' for Inactive)
REMARK    1  A    between atoms: C_1  and  N_2
REMARK    2  A    between atoms: C_5  and  C_6
REMARK    3  A    between atoms: C_6  and  S_7
REMARK    4  A    between atoms: S_7  and  C_10
REMARK    5  A    between atoms: C_10  and  C_11
REMARK                            x       y       z     vdW  Elec       q    Type
REMARK                         _______ _______ _______ _____ _____    ______ ____
ROOT
ATOM      1  S   UNL     1       5.396   5.394  16.628  0.00  0.00    +0.000 S 
ATOM      2  O   UNL     1       4.295   4.458  16.497  0.00  0.00    +0.000 OA
ATOM      3  O   UNL     1       5.355   6.707  16.007  0.00  0.00    +0.000 OA
ENDROOT
BRANCH   1   4
ATOM      4  C   UNL     1       5.676   5.647  18.384  0.00  0.00    +0.000 C 
BRANCH   4   9
ATOM      5  C   UNL     1       1.570   2.840  21.289  0.00  0.00    +0.000 C 
ATOM      6  N   UNL     1       2.597   3.561  20.555  0.00  0.00    +0.000 N 
ATOM      7  C   UNL     1       3.709   2.892  20.080  0.00  0.00    +0.000 A 
ATOM      8  C   UNL     1       4.670   3.537  19.402  0.00  0.00    +0.000 A 
ATOM      9  C   UNL     1       4.572   4.966  19.157  0.00  0.00    +0.000 A 
ATOM     10  C   UNL     1       3.491   5.628  19.607  0.00  0.00    +0.000 A 
ATOM     11  C   UNL     1       2.418   4.931  20.372  0.00  0.00    +0.000 A 
ATOM     12  O   UNL     1       1.451   5.571  20.777  0.00  0.00    +0.000 OA
ENDBRANCH   4   9
ENDBRANCH   1   4
BRANCH   1  13
ATOM     13  C   UNL     1       6.895   4.564  16.082  0.00  0.00    +0.000 C 
BRANCH  13  14
ATOM     14  C   UNL     1       6.880   4.500  14.573  0.00  0.00    +0.000 A 
ATOM     15  C   UNL     1       6.054   3.582  13.908  0.00  0.00    +0.000 A 
ATOM     16  C   UNL     1       6.102   3.457  12.519  0.00  0.00    +0.000 A 
ATOM     17  C   UNL     1       6.974   4.250  11.776  0.00  0.00    +0.000 A 
ATOM     18  C   UNL     1       7.788   5.178  12.421  0.00  0.00    +0.000 A 
ATOM     19  C   UNL     1       7.742   5.305  13.811  0.00  0.00    +0.000 A 
ENDBRANCH  13  14
ENDBRANCH   1  13
TORSDOF 4
ENDMDL
MODEL 7
REMARK VINA RESULT:      -7.0      1.109      1.828
REMARK  Name = 
REMARK  5 active torsions:
REMARK  status: ('A' for Active; 'I' for Inactive)
REMARK    1  A    between atoms: C_1  and  N_2
REMARK    2  A    between atoms: C_5  and  C_6
REMARK    3  A    between atoms: C_6  and  S_7
REMARK    4  A    between atoms: S_7  and  C_10
REMARK    5  A    between atoms: C_10  and  C_11
REMARK                            x       y       z     vdW  Elec       q    Type
REMARK                         _______ _______ _______ _____ _____    ______ ____
ROOT
ATOM      1  S   UNL     1       6.067   6.133  16.769  0.00  0.00    +0.000 S 
ATOM      2  O   UNL     1       4.846   6.104  15.985  0.00  0.00    +0.000 OA
ATOM      3  O   UNL     1       6.954   7.284  16.752  0.00  0.00    +0.000 OA
ENDROOT
BRANCH   1   4
ATOM      4  C   UNL     1       5.611   5.841  18.481  0.00  0.00    +0.000 C 
BRANCH   4   9
ATOM      5  C   UNL     1       0.934   2.485  18.679  0.00  0.00    +0.000 C 
ATOM      6  N   UNL     1       2.123   3.319  18.629  0.00  0.00    +0.000 N 
ATOM      7  C   UNL     1       2.017   4.688  18.784  0.00  0.00    +0.000 A 
ATOM      8  C   UNL     1       3.100   5.478  18.739  0.00  0.00    +0.000 A 
ATOM      9  C   UNL     1       4.420   4.912  18.517  0.00  0.00    +0.000 A 
ATOM     10  C   UNL     1       4.539   3.580  18.374  0.00  0.00    +0.000 A 
ATOM     11  C   UNL     1       3.345   2.688  18.409  0.00  0.00    +0.000 A 
ATOM     12  O   UNL     1       3.491   1.477  18.262  0.00  0.00    +0.000 OA
ENDBRANCH   4   9
ENDBRANCH   1   4
BRANCH   1  13
ATOM     13  C   UNL     1       7.033   4.677  16.341  0.00  0.00    +0.000 C 
BRANCH  13  14
ATOM     14  C   UNL     1       6.997   4.508  14.841  0.00  0.00    +0.000 A 
ATOM     15  C   UNL     1       7.836   5.274  14.018  0.00  0.00    +0.000 A 
ATOM     16  C   UNL     1       7.744   5.185  12.628  0.00  0.00    +0.000 A 
ATOM     17  C   UNL     1       6.815   4.328  12.043  0.00  0.00    +0.000 A 
ATOM     18  C   UNL     1       5.987   3.549  12.848  0.00  0.00    +0.000 A 
ATOM     19  C   UNL     1       6.078   3.635  14.238  0.00  0.00    +0.000 A 
ENDBRANCH  13  14
ENDBRANCH   1  13
TORSDOF 4
ENDMDL
MODEL 8
REMARK VINA RESULT:      -6.9      3.921      6.072
REMARK  Name = 
REMARK  5 active torsions:
REMARK  status: ('A' for Active; 'I' for Inactive)
REMARK    1  A    between atoms: C_1  and  N_2
REMARK    2  A    between atoms: C_5  and  C_6
REMARK    3  A    between atoms: C_6  and  S_7
REMARK    4  A    between atoms: S_7  and  C_10
REMARK    5  A    between atoms: C_10  and  C_11
REMARK                            x       y       z     vdW  Elec       q    Type
REMARK                         _______ _______ _______ _____ _____    ______ ____
ROOT
ATOM      1  S   UNL     1       4.132   3.732  17.207  0.00  0.00    +0.000 S 
ATOM      2  O   UNL     1       2.827   4.239  16.823  0.00  0.00    +0.000 OA
ATOM      3  O   UNL     1       5.196   3.557  16.234  0.00  0.00    +0.000 OA
ENDROOT
BRANCH   1   4
ATOM      4  C   UNL     1       4.765   4.810  18.497  0.00  0.00    +0.000 C 
BRANCH   4   9
ATOM      5  C   UNL     1       1.247   9.347  18.962  0.00  0.00    +0.000 C 
ATOM      6  N   UNL     1       2.131   8.198  18.860  0.00  0.00    +0.000 N 
ATOM      7  C   UNL     1       2.967   8.062  17.769  0.00  0.00    +0.000 A 
ATOM      8  C   UNL     1       3.790   7.009  17.651  0.00  0.00    +0.000 A 
ATOM      9  C   UNL     1       3.817   5.973  18.670  0.00  0.00    +0.000 A 
ATOM     10  C   UNL     1       3.014   6.097  19.742  0.00  0.00    +0.000 A 
ATOM     11  C   UNL     1       2.085   7.254  19.884  0.00  0.00    +0.000 A 
ATOM     12  O   UNL     1       1.357   7.327  20.871  0.00  0.00    +0.000 OA
ENDBRANCH   4   9
ENDBRANCH   1   4
BRANCH   1  13
ATOM     13  C   UNL     1       3.888   2.165  18.057  0.00  0.00    +0.000 C 
BRANCH  13  14
ATOM     14  C   UNL     1       2.945   2.394  19.214  0.00  0.00    +0.000 A 
ATOM     15  C   UNL     1       1.586   2.655  18.983  0.00  0.00    +0.000 A 
ATOM     16  C   UNL     1       0.729   2.956  20.044  0.00  0.00    +0.000 A 
ATOM     17  C   UNL     1       1.218   2.995  21.348  0.00  0.00    +0.000 A 
ATOM     18  C   UNL     1       2.562   2.722  21.593  0.00  0.00    +0.000 A 
ATOM     19  C   UNL     1       3.421   2.421  20.534  0.00  0.00    +0.000 A 
ENDBRANCH  13  14
ENDBRANCH   1  13
TORSDOF 4
ENDMDL
MODEL 9
REMARK VINA RESULT:      -6.9      1.746      2.146
REMARK  Name = 
REMARK  5 active torsions:
REMARK  status: ('A' for Active; 'I' for Inactive)
REMARK    1  A    between atoms: C_1  and  N_2
REMARK    2  A    between atoms: C_5  and  C_6
REMARK    3  A    between atoms: C_6  and  S_7
REMARK    4  A    between atoms: S_7  and  C_10
REMARK    5  A    between atoms: C_10  and  C_11
REMARK                            x       y       z     vdW  Elec       q    Type
REMARK                         _______ _______ _______ _____ _____    ______ ____
ROOT
ATOM      1  S   UNL     1       5.471   5.682  16.607  0.00  0.00    +0.000 S 
ATOM      2  O   UNL     1       5.219   6.710  15.612  0.00  0.00    +0.000 OA
ATOM      3  O   UNL     1       5.602   6.005  18.017  0.00  0.00    +0.000 OA
ENDROOT
BRANCH   1   4
ATOM      4  C   UNL     1       4.158   4.464  16.461  0.00  0.00    +0.000 C 
BRANCH   4   9
ATOM      5  C   UNL     1       2.116   3.292  21.717  0.00  0.00    +0.000 C 
ATOM      6  N   UNL     1       2.644   3.579  20.395  0.00  0.00    +0.000 N 
ATOM      7  C   UNL     1       2.018   4.506  19.584  0.00  0.00    +0.000 A 
ATOM      8  C   UNL     1       2.486   4.786  18.358  0.00  0.00    +0.000 A 
ATOM      9  C   UNL     1       3.666   4.111  17.844  0.00  0.00    +0.000 A 
ATOM     10  C   UNL     1       4.290   3.212  18.626  0.00  0.00    +0.000 A 
ATOM     11  C   UNL     1       3.778   2.880  19.986  0.00  0.00    +0.000 A 
ATOM     12  O   UNL     1       4.368   2.045  20.666  0.00  0.00    +0.000 OA
ENDBRANCH   4   9
ENDBRANCH   1   4
BRANCH   1  13
ATOM     13  C   UNL     1       6.940   4.775  16.102  0.00  0.00    +0.000 C 
BRANCH  13  14
ATOM     14  C   UNL     1       6.914   4.626  14.600  0.00  0.00    +0.000 A 
ATOM     15  C   UNL     1       6.076   3.679  13.993  0.00  0.00    +0.000 A 
ATOM     16  C   UNL     1       6.113   3.475  12.612  0.00  0.00    +0.000 A 
ATOM     17  C   UNL     1       6.986   4.219  11.821  0.00  0.00    +0.000 A 
ATOM     18  C   UNL     1       7.812   5.174  12.408  0.00  0.00    +0.000 A 
ATOM     19  C   UNL     1       7.776   5.380  13.788  0.00  0.00    +0.000 A 
ENDBRANCH  13  14
ENDBRANCH   1  13
TORSDOF 4
ENDMDL
