MODEL 1
REMARK VINA RESULT:      -8.6      0.000      0.000
REMARK  Name = 
REMARK  4 active torsions:
REMARK  status: ('A' for Active; 'I' for Inactive)
REMARK    1  A    between atoms: C_5  and  C_7
REMARK    2  A    between atoms: C_9  and  N_10
REMARK    3  A    between atoms: C_11  and  C_13
REMARK    4  A    between atoms: C_16  and  N_17
REMARK                            x       y       z     vdW  Elec       q    Type
REMARK                         _______ _______ _______ _____ _____    ______ ____
ROOT
ATOM      1  C   UNL     1       6.349   4.518  16.005  0.00  0.00    +0.000 A 
ATOM      2  C   UNL     1       5.074   4.082  16.387  0.00  0.00    +0.000 A 
ATOM      3  C   UNL     1       4.641   4.184  17.713  0.00  0.00    +0.000 A 
ATOM      4  C   UNL     1       5.492   4.756  18.664  0.00  0.00    +0.000 A 
ATOM      5  C   UNL     1       6.766   5.205  18.281  0.00  0.00    +0.000 A 
ATOM      6  C   UNL     1       7.201   5.087  16.957  0.00  0.00    +0.000 A 
ENDROOT
BRANCH   1  11
ATOM      7  N   UNL     1       7.070   4.329  11.783  0.00  0.00    +0.000 N 
ATOM      8  C   UNL     1       6.332   3.394  12.418  0.00  0.00    +0.000 C 
ATOM      9  O   UNL     1       5.787   2.480  11.809  0.00  0.00    +0.000 OA
ATOM     10  N   UNL     1       6.195   3.529  13.768  0.00  0.00    +0.000 N 
ATOM     11  C   UNL     1       6.796   4.472  14.588  0.00  0.00    +0.000 C 
ATOM     12  O   UNL     1       7.684   5.238  14.223  0.00  0.00    +0.000 OA
ATOM     13  H   UNL     1       7.282   4.188  10.806  0.00  0.00    +0.000 HD
ATOM     14  H   UNL     1       7.685   4.924  12.334  0.00  0.00    +0.000 HD
ATOM     15  H   UNL     1       5.588   2.824  14.160  0.00  0.00    +0.000 HD
ENDBRANCH   1  11
BRANCH   3  16
ATOM     16  N   UNL     1       3.355   3.773  18.124  0.00  0.00    +0.000 N 
ATOM     17  C   UNL     1       2.929   2.462  18.308  0.00  0.00    +0.000 C 
ATOM     18  O   UNL     1       3.642   1.465  18.215  0.00  0.00    +0.000 OA
ATOM     19  H   UNL     1       2.709   4.498  18.422  0.00  0.00    +0.000 HD
BRANCH  17  20
ATOM     20  C   UNL     1       1.449   2.322  18.578  0.00  0.00    +0.000 C 
ATOM     21 BR   UNL     1       1.004   3.339  20.168  0.00  0.00    +0.000 Br
ENDBRANCH  17  20
ENDBRANCH   3  16
BRANCH   5  22
ATOM     22  N   UNL     1       7.652   5.825  19.278  0.00  0.00    +0.000 N 
ATOM     23  O   UNL     1       8.280   6.835  18.933  0.00  0.00    +0.000 OA
ATOM     24  O   UNL     1       7.718   5.302  20.396  0.00  0.00    +0.000 OA
ENDBRANCH   5  22
TORSDOF 4
ENDMDL
MODEL 2
REMARK VINA RESULT:      -8.4      1.064      1.270
REMARK  Name = 
REMARK  4 active torsions:
REMARK  status: ('A' for Active; 'I' for Inactive)
REMARK    1  A    between atoms: C_5  and  C_7
REMARK    2  A    between atoms: C_9  and  N_10
REMARK    3  A    between atoms: C_11  and  C_13
REMARK    4  A    between atoms: C_16  and  N_17
REMARK                            x       y       z     vdW  Elec       q    Type
REMARK                         _______ _______ _______ _____ _____    ______ ____
ROOT
ATOM      1  C   UNL     1       6.397   4.437  16.014  0.00  0.00    +0.000 A 
ATOM      2  C   UNL     1       5.164   3.902  16.408  0.00  0.00    +0.000 A 
ATOM      3  C   UNL     1       4.743   3.958  17.741  0.00  0.00    +0.000 A 
ATOM      4  C   UNL     1       5.562   4.585  18.687  0.00  0.00    +0.000 A 
ATOM      5  C   UNL     1       6.793   5.134  18.290  0.00  0.00    +0.000 A 
ATOM      6  C   UNL     1       7.217   5.060  16.959  0.00  0.00    +0.000 A 
ENDROOT
BRANCH   1  11
ATOM      7  N   UNL     1       7.065   4.370  11.780  0.00  0.00    +0.000 N 
ATOM      8  C   UNL     1       6.360   3.401  12.400  0.00  0.00    +0.000 C 
ATOM      9  O   UNL     1       5.830   2.489  11.775  0.00  0.00    +0.000 OA
ATOM     10  N   UNL     1       6.237   3.499  13.755  0.00  0.00    +0.000 N 
ATOM     11  C   UNL     1       6.825   4.437  14.590  0.00  0.00    +0.000 C 
ATOM     12  O   UNL     1       7.688   5.234  14.233  0.00  0.00    +0.000 OA
ATOM     13  H   UNL     1       7.267   4.259  10.796  0.00  0.00    +0.000 HD
ATOM     14  H   UNL     1       7.672   4.967  12.336  0.00  0.00    +0.000 HD
ATOM     15  H   UNL     1       5.654   2.769  14.137  0.00  0.00    +0.000 HD
ENDBRANCH   1  11
BRANCH   3  16
ATOM     16  N   UNL     1       3.499   3.447  18.166  0.00  0.00    +0.000 N 
ATOM     17  C   UNL     1       2.303   4.151  18.243  0.00  0.00    +0.000 C 
ATOM     18  O   UNL     1       2.137   5.311  17.873  0.00  0.00    +0.000 OA
ATOM     19  H   UNL     1       3.439   2.445  18.324  0.00  0.00    +0.000 HD
BRANCH  17  20
ATOM     20  C   UNL     1       1.175   3.389  18.902  0.00  0.00    +0.000 C 
ATOM     21 BR   UNL     1       1.448   3.405  20.822  0.00  0.00    +0.000 Br
ENDBRANCH  17  20
ENDBRANCH   3  16
BRANCH   5  22
ATOM     22  N   UNL     1       7.643   5.810  19.280  0.00  0.00    +0.000 N 
ATOM     23  O   UNL     1       7.693   5.322  20.418  0.00  0.00    +0.000 OA
ATOM     24  O   UNL     1       8.253   6.824  18.921  0.00  0.00    +0.000 OA
ENDBRANCH   5  22
TORSDOF 4
ENDMDL
MODEL 3
REMARK VINA RESULT:      -8.2      2.680      6.125
REMARK  Name = 
REMARK  4 active torsions:
REMARK  status: ('A' for Active; 'I' for Inactive)
REMARK    1  A    between atoms: C_5  and  C_7
REMARK    2  A    between atoms: C_9  and  N_10
REMARK    3  A    between atoms: C_11  and  C_13
REMARK    4  A    between atoms: C_16  and  N_17
REMARK                            x       y       z     vdW  Elec       q    Type
REMARK                         _______ _______ _______ _____ _____    ______ ____
ROOT
ATOM      1  C   UNL     1       4.217   4.132  18.201  0.00  0.00    +0.000 A 
ATOM      2  C   UNL     1       4.506   3.718  16.894  0.00  0.00    +0.000 A 
ATOM      3  C   UNL     1       5.749   3.980  16.310  0.00  0.00    +0.000 A 
ATOM      4  C   UNL     1       6.726   4.644  17.058  0.00  0.00    +0.000 A 
ATOM      5  C   UNL     1       6.442   5.049  18.374  0.00  0.00    +0.000 A 
ATOM      6  C   UNL     1       5.192   4.799  18.948  0.00  0.00    +0.000 A 
ENDROOT
BRANCH   1  11
ATOM      7  N   UNL     1       0.664   3.524  20.522  0.00  0.00    +0.000 N 
ATOM      8  C   UNL     1       1.893   3.326  21.044  0.00  0.00    +0.000 C 
ATOM      9  O   UNL     1       2.053   3.020  22.221  0.00  0.00    +0.000 OA
ATOM     10  N   UNL     1       2.955   3.513  20.209  0.00  0.00    +0.000 N 
ATOM     11  C   UNL     1       2.922   3.803  18.853  0.00  0.00    +0.000 C 
ATOM     12  O   UNL     1       1.905   3.773  18.166  0.00  0.00    +0.000 OA
ATOM     13  H   UNL     1      -0.138   3.281  21.086  0.00  0.00    +0.000 HD
ATOM     14  H   UNL     1       0.560   3.548  19.511  0.00  0.00    +0.000 HD
ATOM     15  H   UNL     1       3.838   3.398  20.685  0.00  0.00    +0.000 HD
ENDBRANCH   1  11
BRANCH   3  16
ATOM     16  N   UNL     1       6.077   3.558  15.004  0.00  0.00    +0.000 N 
ATOM     17  C   UNL     1       6.595   4.352  13.988  0.00  0.00    +0.000 C 
ATOM     18  O   UNL     1       6.921   5.531  14.105  0.00  0.00    +0.000 OA
ATOM     19  H   UNL     1       6.038   2.560  14.815  0.00  0.00    +0.000 HD
BRANCH  17  20
ATOM     20  C   UNL     1       6.678   3.666  12.644  0.00  0.00    +0.000 C 
ATOM     21 BR   UNL     1       4.879   3.349  11.991  0.00  0.00    +0.000 Br
ENDBRANCH  17  20
ENDBRANCH   3  16
BRANCH   5  22
ATOM     22  N   UNL     1       7.477   5.729  19.166  0.00  0.00    +0.000 N 
ATOM     23  O   UNL     1       7.688   5.306  20.311  0.00  0.00    +0.000 OA
ATOM     24  O   UNL     1       8.070   6.681  18.646  0.00  0.00    +0.000 OA
ENDBRANCH   5  22
TORSDOF 4
ENDMDL
MODEL 4
REMARK VINA RESULT:      -8.2      1.098      1.470
REMARK  Name = 
REMARK  4 active torsions:
REMARK  status: ('A' for Active; 'I' for Inactive)
REMARK    1  A    between atoms: C_5  and  C_7
REMARK    2  A    between atoms: C_9  and  N_10
REMARK    3  A    between atoms: C_11  and  C_13
REMARK    4  A    between atoms: C_16  and  N_17
REMARK                            x       y       z     vdW  Elec       q    Type
REMARK                         _______ _______ _______ _____ _____    ______ ____
ROOT
ATOM      1  C   UNL     1       6.087   4.478  16.178  0.00  0.00    +0.000 A 
ATOM      2  C   UNL     1       4.887   3.978  16.699  0.00  0.00    +0.000 A 
ATOM      3  C   UNL     1       4.608   4.044  18.068  0.00  0.00    +0.000 A 
ATOM      4  C   UNL     1       5.537   4.646  18.922  0.00  0.00    +0.000 A 
ATOM      5  C   UNL     1       6.736   5.160  18.400  0.00  0.00    +0.000 A 
ATOM      6  C   UNL     1       7.018   5.077  17.033  0.00  0.00    +0.000 A 
ENDROOT
BRANCH   1  11
ATOM      7  N   UNL     1       7.457   4.444  12.116  0.00  0.00    +0.000 N 
ATOM      8  C   UNL     1       7.918   5.344  13.010  0.00  0.00    +0.000 C 
ATOM      9  O   UNL     1       8.790   6.155  12.719  0.00  0.00    +0.000 OA
ATOM     10  N   UNL     1       7.389   5.290  14.267  0.00  0.00    +0.000 N 
ATOM     11  C   UNL     1       6.366   4.469  14.718  0.00  0.00    +0.000 C 
ATOM     12  O   UNL     1       5.668   3.772  13.987  0.00  0.00    +0.000 OA
ATOM     13  H   UNL     1       7.747   4.537  11.152  0.00  0.00    +0.000 HD
ATOM     14  H   UNL     1       6.590   3.952  12.318  0.00  0.00    +0.000 HD
ATOM     15  H   UNL     1       7.821   5.957  14.889  0.00  0.00    +0.000 HD
ENDBRANCH   1  11
BRANCH   3  16
ATOM     16  N   UNL     1       3.400   3.567  18.619  0.00  0.00    +0.000 N 
ATOM     17  C   UNL     1       3.001   2.238  18.702  0.00  0.00    +0.000 C 
ATOM     18  O   UNL     1       3.685   1.271  18.377  0.00  0.00    +0.000 OA
ATOM     19  H   UNL     1       2.813   4.241  19.102  0.00  0.00    +0.000 HD
BRANCH  17  20
ATOM     20  C   UNL     1       1.580   2.046  19.179  0.00  0.00    +0.000 C 
ATOM     21 BR   UNL     1       1.041   3.612  20.188  0.00  0.00    +0.000 Br
ENDBRANCH  17  20
ENDBRANCH   3  16
BRANCH   5  22
ATOM     22  N   UNL     1       7.702   5.811  19.297  0.00  0.00    +0.000 N 
ATOM     23  O   UNL     1       8.288   6.816  18.871  0.00  0.00    +0.000 OA
ATOM     24  O   UNL     1       7.873   5.317  20.417  0.00  0.00    +0.000 OA
ENDBRANCH   5  22
TORSDOF 4
ENDMDL
MODEL 5
REMARK VINA RESULT:      -8.1      1.463      1.775
REMARK  Name = 
REMARK  4 active torsions:
REMARK  status: ('A' for Active; 'I' for Inactive)
REMARK    1  A    between atoms: C_5  and  C_7
REMARK    2  A    between atoms: C_9  and  N_10
REMARK    3  A    between atoms: C_11  and  C_13
REMARK    4  A    between atoms: C_16  and  N_17
REMARK                            x       y       z     vdW  Elec       q    Type
REMARK                         _______ _______ _______ _____ _____    ______ ____
ROOT
ATOM      1  C   UNL     1       6.053   4.452  16.092  0.00  0.00    +0.000 A 
ATOM      2  C   UNL     1       4.888   3.838  16.568  0.00  0.00    +0.000 A 
ATOM      3  C   UNL     1       4.589   3.813  17.935  0.00  0.00    +0.000 A 
ATOM      4  C   UNL     1       5.460   4.437  18.833  0.00  0.00    +0.000 A 
ATOM      5  C   UNL     1       6.623   5.065  18.356  0.00  0.00    +0.000 A 
ATOM      6  C   UNL     1       6.926   5.074  16.991  0.00  0.00    +0.000 A 
ENDROOT
BRANCH   1  11
ATOM      7  N   UNL     1       7.464   4.610  12.047  0.00  0.00    +0.000 N 
ATOM      8  C   UNL     1       8.022   5.359  13.021  0.00  0.00    +0.000 C 
ATOM      9  O   UNL     1       8.994   6.076  12.807  0.00  0.00    +0.000 OA
ATOM     10  N   UNL     1       7.474   5.260  14.266  0.00  0.00    +0.000 N 
ATOM     11  C   UNL     1       6.349   4.539  14.638  0.00  0.00    +0.000 C 
ATOM     12  O   UNL     1       5.578   4.005  13.845  0.00  0.00    +0.000 OA
ATOM     13  H   UNL     1       7.776   4.751  11.097  0.00  0.00    +0.000 HD
ATOM     14  H   UNL     1       6.539   4.216  12.201  0.00  0.00    +0.000 HD
ATOM     15  H   UNL     1       7.978   5.809  14.947  0.00  0.00    +0.000 HD
ENDBRANCH   1  11
BRANCH   3  16
ATOM     16  N   UNL     1       3.413   3.220  18.442  0.00  0.00    +0.000 N 
ATOM     17  C   UNL     1       2.136   3.769  18.414  0.00  0.00    +0.000 C 
ATOM     18  O   UNL     1       1.830   4.825  17.867  0.00  0.00    +0.000 OA
ATOM     19  H   UNL     1       3.479   2.256  18.758  0.00  0.00    +0.000 HD
BRANCH  17  20
ATOM     20  C   UNL     1       1.106   2.983  19.193  0.00  0.00    +0.000 C 
ATOM     21 BR   UNL     1       1.504   3.132  21.085  0.00  0.00    +0.000 Br
ENDBRANCH  17  20
ENDBRANCH   3  16
BRANCH   5  22
ATOM     22  N   UNL     1       7.527   5.739  19.299  0.00  0.00    +0.000 N 
ATOM     23  O   UNL     1       8.140   6.734  18.890  0.00  0.00    +0.000 OA
ATOM     24  O   UNL     1       7.624   5.272  20.440  0.00  0.00    +0.000 OA
ENDBRANCH   5  22
TORSDOF 4
ENDMDL
MODEL 6
REMARK VINA RESULT:      -8.0      2.575      5.716
REMARK  Name = 
REMARK  4 active torsions:
REMARK  status: ('A' for Active; 'I' for Inactive)
REMARK    1  A    between atoms: C_5  and  C_7
REMARK    2  A    between atoms: C_9  and  N_10
REMARK    3  A    between atoms: C_11  and  C_13
REMARK    4  A    between atoms: C_16  and  N_17
REMARK                            x       y       z     vdW  Elec       q    Type
REMARK                         _______ _______ _______ _____ _____    ______ ____
ROOT
ATOM      1  C   UNL     1       4.232   4.494  18.274  0.00  0.00    +0.000 A 
ATOM      2  C   UNL     1       4.490   4.008  16.986  0.00  0.00    +0.000 A 
ATOM      3  C   UNL     1       5.760   4.122  16.410  0.00  0.00    +0.000 A 
ATOM      4  C   UNL     1       6.792   4.709  17.149  0.00  0.00    +0.000 A 
ATOM      5  C   UNL     1       6.538   5.185  18.446  0.00  0.00    +0.000 A 
ATOM      6  C   UNL     1       5.263   5.085  19.012  0.00  0.00    +0.000 A 
ENDROOT
BRANCH   1  11
ATOM      7  N   UNL     1       0.515   3.426  20.123  0.00  0.00    +0.000 N 
ATOM      8  C   UNL     1       0.920   2.857  18.968  0.00  0.00    +0.000 C 
ATOM      9  O   UNL     1       0.273   1.968  18.425  0.00  0.00    +0.000 OA
ATOM     10  N   UNL     1       2.102   3.295  18.446  0.00  0.00    +0.000 N 
ATOM     11  C   UNL     1       2.904   4.323  18.919  0.00  0.00    +0.000 C 
ATOM     12  O   UNL     1       2.571   5.106  19.804  0.00  0.00    +0.000 OA
ATOM     13  H   UNL     1      -0.408   3.202  20.467  0.00  0.00    +0.000 HD
ATOM     14  H   UNL     1       0.945   4.300  20.415  0.00  0.00    +0.000 HD
ATOM     15  H   UNL     1       2.361   2.786  17.614  0.00  0.00    +0.000 HD
ENDBRANCH   1  11
BRANCH   3  16
ATOM     16  N   UNL     1       6.055   3.623  15.123  0.00  0.00    +0.000 N 
ATOM     17  C   UNL     1       6.592   4.346  14.064  0.00  0.00    +0.000 C 
ATOM     18  O   UNL     1       6.964   5.516  14.120  0.00  0.00    +0.000 OA
ATOM     19  H   UNL     1       5.976   2.620  14.985  0.00  0.00    +0.000 HD
BRANCH  17  20
ATOM     20  C   UNL     1       6.632   3.591  12.755  0.00  0.00    +0.000 C 
ATOM     21 BR   UNL     1       4.822   3.401  12.087  0.00  0.00    +0.000 Br
ENDBRANCH  17  20
ENDBRANCH   3  16
BRANCH   5  22
ATOM     22  N   UNL     1       7.629   5.784  19.230  0.00  0.00    +0.000 N 
ATOM     23  O   UNL     1       8.203   6.769  18.747  0.00  0.00    +0.000 OA
ATOM     24  O   UNL     1       7.908   5.268  20.318  0.00  0.00    +0.000 OA
ENDBRANCH   5  22
TORSDOF 4
ENDMDL
MODEL 7
REMARK VINA RESULT:      -7.7      1.749      2.117
REMARK  Name = 
REMARK  4 active torsions:
REMARK  status: ('A' for Active; 'I' for Inactive)
REMARK    1  A    between atoms: C_5  and  C_7
REMARK    2  A    between atoms: C_9  and  N_10
REMARK    3  A    between atoms: C_11  and  C_13
REMARK    4  A    between atoms: C_16  and  N_17
REMARK                            x       y       z     vdW  Elec       q    Type
REMARK                         _______ _______ _______ _____ _____    ______ ____
ROOT
ATOM      1  C   UNL     1       6.027   4.639  16.244  0.00  0.00    +0.000 A 
ATOM      2  C   UNL     1       4.791   4.219  16.750  0.00  0.00    +0.000 A 
ATOM      3  C   UNL     1       4.509   4.281  18.118  0.00  0.00    +0.000 A 
ATOM      4  C   UNL     1       5.474   4.799  18.988  0.00  0.00    +0.000 A 
ATOM      5  C   UNL     1       6.710   5.233  18.481  0.00  0.00    +0.000 A 
ATOM      6  C   UNL     1       6.994   5.154  17.114  0.00  0.00    +0.000 A 
ENDROOT
BRANCH   1  11
ATOM      7  N   UNL     1       7.412   4.542  12.188  0.00  0.00    +0.000 N 
ATOM      8  C   UNL     1       7.980   5.347  13.110  0.00  0.00    +0.000 C 
ATOM      9  O   UNL     1       8.953   6.045  12.846  0.00  0.00    +0.000 OA
ATOM     10  N   UNL     1       7.439   5.327  14.362  0.00  0.00    +0.000 N 
ATOM     11  C   UNL     1       6.314   4.635  14.785  0.00  0.00    +0.000 C 
ATOM     12  O   UNL     1       5.536   4.057  14.031  0.00  0.00    +0.000 OA
ATOM     13  H   UNL     1       7.719   4.623  11.228  0.00  0.00    +0.000 HD
ATOM     14  H   UNL     1       6.486   4.163  12.372  0.00  0.00    +0.000 HD
ATOM     15  H   UNL     1       7.950   5.914  15.005  0.00  0.00    +0.000 HD
ENDBRANCH   1  11
BRANCH   3  16
ATOM     16  N   UNL     1       3.266   3.885  18.655  0.00  0.00    +0.000 N 
ATOM     17  C   UNL     1       2.300   4.722  19.201  0.00  0.00    +0.000 C 
ATOM     18  O   UNL     1       2.356   5.949  19.223  0.00  0.00    +0.000 OA
ATOM     19  H   UNL     1       2.997   2.912  18.533  0.00  0.00    +0.000 HD
BRANCH  17  20
ATOM     20  C   UNL     1       1.149   3.996  19.858  0.00  0.00    +0.000 C 
ATOM     21 BR   UNL     1       0.858   2.317  18.933  0.00  0.00    +0.000 Br
ENDBRANCH  17  20
ENDBRANCH   3  16
BRANCH   5  22
ATOM     22  N   UNL     1       7.716   5.796  19.394  0.00  0.00    +0.000 N 
ATOM     23  O   UNL     1       7.871   5.235  20.487  0.00  0.00    +0.000 OA
ATOM     24  O   UNL     1       8.343   6.793  19.018  0.00  0.00    +0.000 OA
ENDBRANCH   5  22
TORSDOF 4
ENDMDL
MODEL 8
REMARK VINA RESULT:      -7.5      3.944      5.657
REMARK  Name = 
REMARK  4 active torsions:
REMARK  status: ('A' for Active; 'I' for Inactive)
REMARK    1  A    between atoms: C_5  and  C_7
REMARK    2  A    between atoms: C_9  and  N_10
REMARK    3  A    between atoms: C_11  and  C_13
REMARK    4  A    between atoms: C_16  and  N_17
REMARK                            x       y       z     vdW  Elec       q    Type
REMARK                         _______ _______ _______ _____ _____    ______ ____
ROOT
ATOM      1  C   UNL     1       3.730   5.353  18.188  0.00  0.00    +0.000 A 
ATOM      2  C   UNL     1       3.304   6.279  19.148  0.00  0.00    +0.000 A 
ATOM      3  C   UNL     1       2.238   5.993  20.008  0.00  0.00    +0.000 A 
ATOM      4  C   UNL     1       1.607   4.748  19.918  0.00  0.00    +0.000 A 
ATOM      5  C   UNL     1       2.041   3.813  18.964  0.00  0.00    +0.000 A 
ATOM      6  C   UNL     1       3.097   4.109  18.096  0.00  0.00    +0.000 A 
ENDROOT
BRANCH   1  11
ATOM      7  N   UNL     1       7.179   5.546  15.650  0.00  0.00    +0.000 N 
ATOM      8  C   UNL     1       7.191   4.854  16.808  0.00  0.00    +0.000 C 
ATOM      9  O   UNL     1       8.167   4.201  17.159  0.00  0.00    +0.000 OA
ATOM     10  N   UNL     1       6.052   4.887  17.558  0.00  0.00    +0.000 N 
ATOM     11  C   UNL     1       4.901   5.621  17.313  0.00  0.00    +0.000 C 
ATOM     12  O   UNL     1       4.807   6.489  16.449  0.00  0.00    +0.000 OA
ATOM     13  H   UNL     1       8.044   5.632  15.135  0.00  0.00    +0.000 HD
ATOM     14  H   UNL     1       6.456   6.248  15.506  0.00  0.00    +0.000 HD
ATOM     15  H   UNL     1       6.121   4.304  18.379  0.00  0.00    +0.000 HD
ENDBRANCH   1  11
BRANCH   3  16
ATOM     16  N   UNL     1       1.800   6.898  20.998  0.00  0.00    +0.000 N 
ATOM     17  C   UNL     1       1.398   8.213  20.793  0.00  0.00    +0.000 C 
ATOM     18  O   UNL     1       1.290   8.758  19.697  0.00  0.00    +0.000 OA
ATOM     19  H   UNL     1       1.655   6.527  21.933  0.00  0.00    +0.000 HD
BRANCH  17  20
ATOM     20  C   UNL     1       1.153   8.992  22.064  0.00  0.00    +0.000 C 
ATOM     21 BR   UNL     1       0.047  10.530  21.651  0.00  0.00    +0.000 Br
ENDBRANCH  17  20
ENDBRANCH   3  16
BRANCH   5  22
ATOM     22  N   UNL     1       1.391   2.496  18.885  0.00  0.00    +0.000 N 
ATOM     23  O   UNL     1       0.153   2.473  18.850  0.00  0.00    +0.000 OA
ATOM     24  O   UNL     1       2.116   1.495  18.861  0.00  0.00    +0.000 OA
ENDBRANCH   5  22
TORSDOF 4
ENDMDL
MODEL 9
REMARK VINA RESULT:      -7.4      2.657      6.003
REMARK  Name = 
REMARK  4 active torsions:
REMARK  status: ('A' for Active; 'I' for Inactive)
REMARK    1  A    between atoms: C_5  and  C_7
REMARK    2  A    between atoms: C_9  and  N_10
REMARK    3  A    between atoms: C_11  and  C_13
REMARK    4  A    between atoms: C_16  and  N_17
REMARK                            x       y       z     vdW  Elec       q    Type
REMARK                         _______ _______ _______ _____ _____    ______ ____
ROOT
ATOM      1  C   UNL     1       4.535   4.030  18.020  0.00  0.00    +0.000 A 
ATOM      2  C   UNL     1       4.758   3.685  16.681  0.00  0.00    +0.000 A 
ATOM      3  C   UNL     1       5.953   4.022  16.037  0.00  0.00    +0.000 A 
ATOM      4  C   UNL     1       6.948   4.692  16.756  0.00  0.00    +0.000 A 
ATOM      5  C   UNL     1       6.731   5.027  18.103  0.00  0.00    +0.000 A 
ATOM      6  C   UNL     1       5.528   4.702  18.739  0.00  0.00    +0.000 A 
ENDROOT
BRANCH   1  11
ATOM      7  N   UNL     1       0.747   3.375  19.918  0.00  0.00    +0.000 N 
ATOM      8  C   UNL     1       1.476   4.485  20.158  0.00  0.00    +0.000 C 
ATOM      9  O   UNL     1       1.064   5.383  20.884  0.00  0.00    +0.000 OA
ATOM     10  N   UNL     1       2.683   4.577  19.530  0.00  0.00    +0.000 N 
ATOM     11  C   UNL     1       3.295   3.622  18.732  0.00  0.00    +0.000 C 
ATOM     12  O   UNL     1       2.895   2.467  18.609  0.00  0.00    +0.000 OA
ATOM     13  H   UNL     1      -0.095   3.230  20.458  0.00  0.00    +0.000 HD
ATOM     14  H   UNL     1       1.207   2.566  19.508  0.00  0.00    +0.000 HD
ATOM     15  H   UNL     1       3.143   5.456  19.718  0.00  0.00    +0.000 HD
ENDBRANCH   1  11
BRANCH   3  16
ATOM     16  N   UNL     1       6.216   3.671  14.695  0.00  0.00    +0.000 N 
ATOM     17  C   UNL     1       6.945   4.418  13.777  0.00  0.00    +0.000 C 
ATOM     18  O   UNL     1       7.539   5.464  14.025  0.00  0.00    +0.000 OA
ATOM     19  H   UNL     1       5.946   2.737  14.399  0.00  0.00    +0.000 HD
BRANCH  17  20
ATOM     20  C   UNL     1       6.908   3.874  12.367  0.00  0.00    +0.000 C 
ATOM     21 BR   UNL     1       5.127   3.199  12.003  0.00  0.00    +0.000 Br
ENDBRANCH  17  20
ENDBRANCH   3  16
BRANCH   5  22
ATOM     22  N   UNL     1       7.786   5.712  18.863  0.00  0.00    +0.000 N 
ATOM     23  O   UNL     1       8.069   6.870  18.528  0.00  0.00    +0.000 OA
ATOM     24  O   UNL     1       8.326   5.094  19.787  0.00  0.00    +0.000 OA
ENDBRANCH   5  22
TORSDOF 4
ENDMDL
