MODEL 1
REMARK VINA RESULT:      -8.2      0.000      0.000
REMARK  Name = 
REMARK  12 active torsions:
REMARK  status: ('A' for Active; 'I' for Inactive)
REMARK    1  A    between atoms: C_1  and  C_2
REMARK    2  A    between atoms: C_3  and  C_4
REMARK    3  A    between atoms: C_4  and  N_5
REMARK    4  A    between atoms: N_5  and  C_6
REMARK    5  A    between atoms: C_6  and  C_7
REMARK    6  A    between atoms: C_7  and  C_8
REMARK    7  A    between atoms: C_7  and  C_9
REMARK    8  A    between atoms: C_15  and  C_16
REMARK    9  A    between atoms: C_16  and  O_18
REMARK   10  A    between atoms: C_19  and  C_20
REMARK   11  A    between atoms: N_21  and  C_22
REMARK   12  A    between atoms: C_22  and  C_23
REMARK                            x       y       z     vdW  Elec       q    Type
REMARK                         _______ _______ _______ _____ _____    ______ ____
ROOT
ATOM      1  C   UNL     1       2.881   7.284  18.152  0.00  0.00    +0.000 C 
ATOM      2  C   UNL     1       2.867   5.977  18.876  0.00  0.00    +0.000 A 
ATOM      3  C   UNL     1       2.098   5.581  19.970  0.00  0.00    +0.000 A 
ATOM      4  C   UNL     1       2.428   4.207  20.258  0.00  0.00    +0.000 A 
ATOM      5  C   UNL     1       3.443   3.840  19.367  0.00  0.00    +0.000 A 
ATOM      6  C   UNL     1       4.247   2.584  19.249  0.00  0.00    +0.000 C 
ATOM      7  N   UNL     1       3.711   4.934  18.552  0.00  0.00    +0.000 N 
ENDROOT
BRANCH   4   8
ATOM      8  C   UNL     1       1.826   3.387  21.317  0.00  0.00    +0.000 C 
ATOM      9  O   UNL     1       2.354   3.167  22.399  0.00  0.00    +0.000 OA
BRANCH   8  10
ATOM     10  O   UNL     1       0.588   2.911  21.037  0.00  0.00    +0.000 OA
ATOM     11  H   UNL     1       0.319   3.152  20.139  0.00  0.00    +0.000 HD
ENDBRANCH   8  10
ENDBRANCH   4   8
BRANCH   3  12
ATOM     12  C   UNL     1       1.076   6.438  20.685  0.00  0.00    +0.000 C 
BRANCH  12  13
ATOM     13  N   UNL     1       1.649   7.672  21.216  0.00  0.00    +0.000 NA
ATOM     14  H   UNL     1       2.157   8.133  20.454  0.00  0.00    +0.000 HD
BRANCH  13  15
ATOM     15  C   UNL     1       0.668   8.595  21.793  0.00  0.00    +0.000 C 
BRANCH  15  16
ATOM     16  C   UNL     1       0.708   9.992  21.116  0.00  0.00    +0.000 C 
ATOM     17  C   UNL     1       0.777   9.919  19.584  0.00  0.00    +0.000 C 
BRANCH  16  18
ATOM     18  C   UNL     1      -0.485  10.839  21.548  0.00  0.00    +0.000 A 
ATOM     19  C   UNL     1      -1.141  11.651  20.610  0.00  0.00    +0.000 A 
ATOM     20  C   UNL     1      -2.214  12.458  20.994  0.00  0.00    +0.000 A 
ATOM     21  C   UNL     1      -2.650  12.460  22.318  0.00  0.00    +0.000 A 
ATOM     22  C   UNL     1      -2.022  11.644  23.256  0.00  0.00    +0.000 A 
ATOM     23  C   UNL     1      -0.949  10.835  22.874  0.00  0.00    +0.000 A 
ENDBRANCH  16  18
ENDBRANCH  15  16
ENDBRANCH  13  15
ENDBRANCH  12  13
ENDBRANCH   3  12
BRANCH   7  24
ATOM     24  C   UNL     1       4.720   4.954  17.480  0.00  0.00    +0.000 C 
BRANCH  24  25
ATOM     25  C   UNL     1       5.951   5.792  17.752  0.00  0.00    +0.000 A 
ATOM     26  C   UNL     1       6.304   6.932  17.016  0.00  0.00    +0.000 A 
ATOM     27  C   UNL     1       7.440   7.676  17.352  0.00  0.00    +0.000 A 
ATOM     28  C   UNL     1       8.245   7.287  18.419  0.00  0.00    +0.000 A 
ATOM     29  C   UNL     1       7.928   6.142  19.143  0.00  0.00    +0.000 A 
ATOM     30  C   UNL     1       6.793   5.399  18.810  0.00  0.00    +0.000 A 
ENDBRANCH  24  25
ENDBRANCH   7  24
TORSDOF 9
ENDMDL
MODEL 2
REMARK VINA RESULT:      -8.1      1.129      1.735
REMARK  Name = 
REMARK  12 active torsions:
REMARK  status: ('A' for Active; 'I' for Inactive)
REMARK    1  A    between atoms: C_1  and  C_2
REMARK    2  A    between atoms: C_3  and  C_4
REMARK    3  A    between atoms: C_4  and  N_5
REMARK    4  A    between atoms: N_5  and  C_6
REMARK    5  A    between atoms: C_6  and  C_7
REMARK    6  A    between atoms: C_7  and  C_8
REMARK    7  A    between atoms: C_7  and  C_9
REMARK    8  A    between atoms: C_15  and  C_16
REMARK    9  A    between atoms: C_16  and  O_18
REMARK   10  A    between atoms: C_19  and  C_20
REMARK   11  A    between atoms: N_21  and  C_22
REMARK   12  A    between atoms: C_22  and  C_23
REMARK                            x       y       z     vdW  Elec       q    Type
REMARK                         _______ _______ _______ _____ _____    ______ ____
ROOT
ATOM      1  C   UNL     1       2.829   7.415  18.203  0.00  0.00    +0.000 C 
ATOM      2  C   UNL     1       2.827   6.092  18.898  0.00  0.00    +0.000 A 
ATOM      3  C   UNL     1       2.072   5.669  19.991  0.00  0.00    +0.000 A 
ATOM      4  C   UNL     1       2.409   4.290  20.246  0.00  0.00    +0.000 A 
ATOM      5  C   UNL     1       3.416   3.946  19.336  0.00  0.00    +0.000 A 
ATOM      6  C   UNL     1       4.223   2.696  19.181  0.00  0.00    +0.000 C 
ATOM      7  N   UNL     1       3.672   5.059  18.542  0.00  0.00    +0.000 N 
ENDROOT
BRANCH   4   8
ATOM      8  C   UNL     1       1.822   3.445  21.292  0.00  0.00    +0.000 C 
ATOM      9  O   UNL     1       2.327   3.264  22.392  0.00  0.00    +0.000 OA
BRANCH   8  10
ATOM     10  O   UNL     1       0.623   2.895  20.978  0.00  0.00    +0.000 OA
ATOM     11  H   UNL     1       0.330   2.285  21.670  0.00  0.00    +0.000 HD
ENDBRANCH   8  10
ENDBRANCH   4   8
BRANCH   3  12
ATOM     12  C   UNL     1       1.054   6.506  20.736  0.00  0.00    +0.000 C 
BRANCH  12  13
ATOM     13  N   UNL     1       1.671   7.556  21.543  0.00  0.00    +0.000 NA
ATOM     14  H   UNL     1       2.678   7.363  21.587  0.00  0.00    +0.000 HD
BRANCH  13  15
ATOM     15  C   UNL     1       1.444   8.914  21.044  0.00  0.00    +0.000 C 
BRANCH  15  16
ATOM     16  C   UNL     1      -0.053   9.323  21.113  0.00  0.00    +0.000 C 
ATOM     17  C   UNL     1      -0.505   9.721  22.525  0.00  0.00    +0.000 C 
BRANCH  16  18
ATOM     18  C   UNL     1      -0.355  10.448  20.129  0.00  0.00    +0.000 A 
ATOM     19  C   UNL     1       0.209  11.717  20.325  0.00  0.00    +0.000 A 
ATOM     20  C   UNL     1      -0.081  12.769  19.453  0.00  0.00    +0.000 A 
ATOM     21  C   UNL     1      -0.936  12.564  18.372  0.00  0.00    +0.000 A 
ATOM     22  C   UNL     1      -1.488  11.305  18.152  0.00  0.00    +0.000 A 
ATOM     23  C   UNL     1      -1.196  10.252  19.022  0.00  0.00    +0.000 A 
ENDBRANCH  16  18
ENDBRANCH  15  16
ENDBRANCH  13  15
ENDBRANCH  12  13
ENDBRANCH   3  12
BRANCH   7  24
ATOM     24  C   UNL     1       4.668   5.107  17.460  0.00  0.00    +0.000 C 
BRANCH  24  25
ATOM     25  C   UNL     1       5.934   5.877  17.767  0.00  0.00    +0.000 A 
ATOM     26  C   UNL     1       6.342   7.027  17.076  0.00  0.00    +0.000 A 
ATOM     27  C   UNL     1       7.510   7.705  17.443  0.00  0.00    +0.000 A 
ATOM     28  C   UNL     1       8.292   7.239  18.496  0.00  0.00    +0.000 A 
ATOM     29  C   UNL     1       7.920   6.083  19.175  0.00  0.00    +0.000 A 
ATOM     30  C   UNL     1       6.754   5.406  18.811  0.00  0.00    +0.000 A 
ENDBRANCH  24  25
ENDBRANCH   7  24
TORSDOF 9
ENDMDL
MODEL 3
REMARK VINA RESULT:      -8.0      0.754      1.660
REMARK  Name = 
REMARK  12 active torsions:
REMARK  status: ('A' for Active; 'I' for Inactive)
REMARK    1  A    between atoms: C_1  and  C_2
REMARK    2  A    between atoms: C_3  and  C_4
REMARK    3  A    between atoms: C_4  and  N_5
REMARK    4  A    between atoms: N_5  and  C_6
REMARK    5  A    between atoms: C_6  and  C_7
REMARK    6  A    between atoms: C_7  and  C_8
REMARK    7  A    between atoms: C_7  and  C_9
REMARK    8  A    between atoms: C_15  and  C_16
REMARK    9  A    between atoms: C_16  and  O_18
REMARK   10  A    between atoms: C_19  and  C_20
REMARK   11  A    between atoms: N_21  and  C_22
REMARK   12  A    between atoms: C_22  and  C_23
REMARK                            x       y       z     vdW  Elec       q    Type
REMARK                         _______ _______ _______ _____ _____    ______ ____
ROOT
ATOM      1  C   UNL     1       2.773   7.492  18.204  0.00  0.00    +0.000 C 
ATOM      2  C   UNL     1       2.769   6.160  18.880  0.00  0.00    +0.000 A 
ATOM      3  C   UNL     1       1.995   5.715  19.952  0.00  0.00    +0.000 A 
ATOM      4  C   UNL     1       2.340   4.336  20.195  0.00  0.00    +0.000 A 
ATOM      5  C   UNL     1       3.369   4.014  19.302  0.00  0.00    +0.000 A 
ATOM      6  C   UNL     1       4.191   2.774  19.148  0.00  0.00    +0.000 C 
ATOM      7  N   UNL     1       3.631   5.140  18.528  0.00  0.00    +0.000 N 
ENDROOT
BRANCH   4   8
ATOM      8  C   UNL     1       1.739   3.471  21.217  0.00  0.00    +0.000 C 
ATOM      9  O   UNL     1       2.226   3.274  22.323  0.00  0.00    +0.000 OA
BRANCH   8  10
ATOM     10  O   UNL     1       0.548   2.922  20.873  0.00  0.00    +0.000 OA
ATOM     11  H   UNL     1       0.019   3.542  20.352  0.00  0.00    +0.000 HD
ENDBRANCH   8  10
ENDBRANCH   4   8
BRANCH   3  12
ATOM     12  C   UNL     1       0.954   6.533  20.686  0.00  0.00    +0.000 C 
BRANCH  12  13
ATOM     13  N   UNL     1       1.546   7.524  21.582  0.00  0.00    +0.000 NA
ATOM     14  H   UNL     1       2.555   7.345  21.619  0.00  0.00    +0.000 HD
BRANCH  13  15
ATOM     15  C   UNL     1       1.297   8.914  21.194  0.00  0.00    +0.000 C 
BRANCH  15  16
ATOM     16  C   UNL     1      -0.131   9.386  21.581  0.00  0.00    +0.000 C 
ATOM     17  C   UNL     1      -0.270   9.727  23.071  0.00  0.00    +0.000 C 
BRANCH  16  18
ATOM     18  C   UNL     1      -0.559  10.576  20.728  0.00  0.00    +0.000 A 
ATOM     19  C   UNL     1      -0.162  10.651  19.385  0.00  0.00    +0.000 A 
ATOM     20  C   UNL     1      -0.517  11.749  18.597  0.00  0.00    +0.000 A 
ATOM     21  C   UNL     1      -1.277  12.782  19.141  0.00  0.00    +0.000 A 
ATOM     22  C   UNL     1      -1.696  12.712  20.467  0.00  0.00    +0.000 A 
ATOM     23  C   UNL     1      -1.344  11.614  21.255  0.00  0.00    +0.000 A 
ENDBRANCH  16  18
ENDBRANCH  15  16
ENDBRANCH  13  15
ENDBRANCH  12  13
ENDBRANCH   3  12
BRANCH   7  24
ATOM     24  C   UNL     1       4.649   5.212  17.469  0.00  0.00    +0.000 C 
BRANCH  24  25
ATOM     25  C   UNL     1       5.931   5.927  17.838  0.00  0.00    +0.000 A 
ATOM     26  C   UNL     1       6.826   5.479  18.820  0.00  0.00    +0.000 A 
ATOM     27  C   UNL     1       8.011   6.177  19.079  0.00  0.00    +0.000 A 
ATOM     28  C   UNL     1       8.314   7.336  18.371  0.00  0.00    +0.000 A 
ATOM     29  C   UNL     1       7.424   7.813  17.412  0.00  0.00    +0.000 A 
ATOM     30  C   UNL     1       6.242   7.116  17.151  0.00  0.00    +0.000 A 
ENDBRANCH  24  25
ENDBRANCH   7  24
TORSDOF 9
ENDMDL
MODEL 4
REMARK VINA RESULT:      -7.9      1.057      1.706
REMARK  Name = 
REMARK  12 active torsions:
REMARK  status: ('A' for Active; 'I' for Inactive)
REMARK    1  A    between atoms: C_1  and  C_2
REMARK    2  A    between atoms: C_3  and  C_4
REMARK    3  A    between atoms: C_4  and  N_5
REMARK    4  A    between atoms: N_5  and  C_6
REMARK    5  A    between atoms: C_6  and  C_7
REMARK    6  A    between atoms: C_7  and  C_8
REMARK    7  A    between atoms: C_7  and  C_9
REMARK    8  A    between atoms: C_15  and  C_16
REMARK    9  A    between atoms: C_16  and  O_18
REMARK   10  A    between atoms: C_19  and  C_20
REMARK   11  A    between atoms: N_21  and  C_22
REMARK   12  A    between atoms: C_22  and  C_23
REMARK                            x       y       z     vdW  Elec       q    Type
REMARK                         _______ _______ _______ _____ _____    ______ ____
ROOT
ATOM      1  C   UNL     1       2.953   7.393  18.241  0.00  0.00    +0.000 C 
ATOM      2  C   UNL     1       2.910   6.070  18.933  0.00  0.00    +0.000 A 
ATOM      3  C   UNL     1       2.149   5.671  20.031  0.00  0.00    +0.000 A 
ATOM      4  C   UNL     1       2.440   4.281  20.281  0.00  0.00    +0.000 A 
ATOM      5  C   UNL     1       3.428   3.904  19.363  0.00  0.00    +0.000 A 
ATOM      6  C   UNL     1       4.190   2.628  19.200  0.00  0.00    +0.000 C 
ATOM      7  N   UNL     1       3.716   5.010  18.569  0.00  0.00    +0.000 N 
ENDROOT
BRANCH   4   8
ATOM      8  C   UNL     1       1.832   3.454  21.330  0.00  0.00    +0.000 C 
ATOM      9  O   UNL     1       2.342   3.245  22.422  0.00  0.00    +0.000 OA
BRANCH   8  10
ATOM     10  O   UNL     1       0.608   2.956  21.028  0.00  0.00    +0.000 OA
ATOM     11  H   UNL     1       0.300   3.289  20.172  0.00  0.00    +0.000 HD
ENDBRANCH   8  10
ENDBRANCH   4   8
BRANCH   3  12
ATOM     12  C   UNL     1       1.166   6.541  20.785  0.00  0.00    +0.000 C 
BRANCH  12  13
ATOM     13  N   UNL     1       1.606   7.930  20.886  0.00  0.00    +0.000 NA
ATOM     14  H   UNL     1       1.281   8.421  20.045  0.00  0.00    +0.000 HD
BRANCH  13  15
ATOM     15  C   UNL     1       1.137   8.628  22.085  0.00  0.00    +0.000 C 
BRANCH  15  16
ATOM     16  C   UNL     1      -0.201   9.379  21.843  0.00  0.00    +0.000 C 
ATOM     17  C   UNL     1      -0.773  10.017  23.117  0.00  0.00    +0.000 C 
BRANCH  16  18
ATOM     18  C   UNL     1      -0.041  10.434  20.754  0.00  0.00    +0.000 A 
ATOM     19  C   UNL     1      -0.777  10.327  19.564  0.00  0.00    +0.000 A 
ATOM     20  C   UNL     1      -0.621  11.266  18.542  0.00  0.00    +0.000 A 
ATOM     21  C   UNL     1       0.270  12.327  18.698  0.00  0.00    +0.000 A 
ATOM     22  C   UNL     1       0.993  12.458  19.880  0.00  0.00    +0.000 A 
ATOM     23  C   UNL     1       0.836  11.521  20.905  0.00  0.00    +0.000 A 
ENDBRANCH  16  18
ENDBRANCH  15  16
ENDBRANCH  13  15
ENDBRANCH  12  13
ENDBRANCH   3  12
BRANCH   7  24
ATOM     24  C   UNL     1       4.706   5.025  17.480  0.00  0.00    +0.000 C 
BRANCH  24  25
ATOM     25  C   UNL     1       5.957   5.836  17.742  0.00  0.00    +0.000 A 
ATOM     26  C   UNL     1       6.320   6.979  17.015  0.00  0.00    +0.000 A 
ATOM     27  C   UNL     1       7.476   7.696  17.341  0.00  0.00    +0.000 A 
ATOM     28  C   UNL     1       8.292   7.277  18.388  0.00  0.00    +0.000 A 
ATOM     29  C   UNL     1       7.965   6.127  19.102  0.00  0.00    +0.000 A 
ATOM     30  C   UNL     1       6.811   5.412  18.778  0.00  0.00    +0.000 A 
ENDBRANCH  24  25
ENDBRANCH   7  24
TORSDOF 9
ENDMDL
MODEL 5
REMARK VINA RESULT:      -7.9      0.619      1.581
REMARK  Name = 
REMARK  12 active torsions:
REMARK  status: ('A' for Active; 'I' for Inactive)
REMARK    1  A    between atoms: C_1  and  C_2
REMARK    2  A    between atoms: C_3  and  C_4
REMARK    3  A    between atoms: C_4  and  N_5
REMARK    4  A    between atoms: N_5  and  C_6
REMARK    5  A    between atoms: C_6  and  C_7
REMARK    6  A    between atoms: C_7  and  C_8
REMARK    7  A    between atoms: C_7  and  C_9
REMARK    8  A    between atoms: C_15  and  C_16
REMARK    9  A    between atoms: C_16  and  O_18
REMARK   10  A    between atoms: C_19  and  C_20
REMARK   11  A    between atoms: N_21  and  C_22
REMARK   12  A    between atoms: C_22  and  C_23
REMARK                            x       y       z     vdW  Elec       q    Type
REMARK                         _______ _______ _______ _____ _____    ______ ____
ROOT
ATOM      1  C   UNL     1       2.787   7.445  18.257  0.00  0.00    +0.000 C 
ATOM      2  C   UNL     1       2.804   6.122  18.951  0.00  0.00    +0.000 A 
ATOM      3  C   UNL     1       2.043   5.682  20.033  0.00  0.00    +0.000 A 
ATOM      4  C   UNL     1       2.406   4.311  20.292  0.00  0.00    +0.000 A 
ATOM      5  C   UNL     1       3.432   3.989  19.396  0.00  0.00    +0.000 A 
ATOM      6  C   UNL     1       4.269   2.757  19.252  0.00  0.00    +0.000 C 
ATOM      7  N   UNL     1       3.675   5.109  18.606  0.00  0.00    +0.000 N 
ENDROOT
BRANCH   4   8
ATOM      8  C   UNL     1       1.822   3.452  21.329  0.00  0.00    +0.000 C 
ATOM      9  O   UNL     1       2.337   3.247  22.420  0.00  0.00    +0.000 OA
BRANCH   8  10
ATOM     10  O   UNL     1       0.615   2.919  21.018  0.00  0.00    +0.000 OA
ATOM     11  H   UNL     1       0.022   3.593  20.656  0.00  0.00    +0.000 HD
ENDBRANCH   8  10
ENDBRANCH   4   8
BRANCH   3  12
ATOM     12  C   UNL     1       0.997   6.497  20.764  0.00  0.00    +0.000 C 
BRANCH  12  13
ATOM     13  N   UNL     1       1.542   7.720  21.348  0.00  0.00    +0.000 NA
ATOM     14  H   UNL     1       2.528   7.784  21.070  0.00  0.00    +0.000 HD
BRANCH  13  15
ATOM     15  C   UNL     1       0.833   8.942  20.963  0.00  0.00    +0.000 C 
BRANCH  15  16
ATOM     16  C   UNL     1      -0.207   9.379  22.031  0.00  0.00    +0.000 C 
ATOM     17  C   UNL     1       0.325   9.277  23.467  0.00  0.00    +0.000 C 
BRANCH  16  18
ATOM     18  C   UNL     1      -0.707  10.793  21.756  0.00  0.00    +0.000 A 
ATOM     19  C   UNL     1      -1.138  11.601  22.819  0.00  0.00    +0.000 A 
ATOM     20  C   UNL     1      -1.628  12.887  22.583  0.00  0.00    +0.000 A 
ATOM     21  C   UNL     1      -1.691  13.384  21.282  0.00  0.00    +0.000 A 
ATOM     22  C   UNL     1      -1.249  12.602  20.219  0.00  0.00    +0.000 A 
ATOM     23  C   UNL     1      -0.755  11.316  20.453  0.00  0.00    +0.000 A 
ENDBRANCH  16  18
ENDBRANCH  15  16
ENDBRANCH  13  15
ENDBRANCH  12  13
ENDBRANCH   3  12
BRANCH   7  24
ATOM     24  C   UNL     1       4.686   5.178  17.539  0.00  0.00    +0.000 C 
BRANCH  24  25
ATOM     25  C   UNL     1       5.958   5.922  17.886  0.00  0.00    +0.000 A 
ATOM     26  C   UNL     1       6.864   5.510  18.873  0.00  0.00    +0.000 A 
ATOM     27  C   UNL     1       8.038   6.232  19.112  0.00  0.00    +0.000 A 
ATOM     28  C   UNL     1       8.319   7.381  18.378  0.00  0.00    +0.000 A 
ATOM     29  C   UNL     1       7.417   7.823  17.414  0.00  0.00    +0.000 A 
ATOM     30  C   UNL     1       6.246   7.102  17.173  0.00  0.00    +0.000 A 
ENDBRANCH  24  25
ENDBRANCH   7  24
TORSDOF 9
ENDMDL
MODEL 6
REMARK VINA RESULT:      -7.6      1.546      2.451
REMARK  Name = 
REMARK  12 active torsions:
REMARK  status: ('A' for Active; 'I' for Inactive)
REMARK    1  A    between atoms: C_1  and  C_2
REMARK    2  A    between atoms: C_3  and  C_4
REMARK    3  A    between atoms: C_4  and  N_5
REMARK    4  A    between atoms: N_5  and  C_6
REMARK    5  A    between atoms: C_6  and  C_7
REMARK    6  A    between atoms: C_7  and  C_8
REMARK    7  A    between atoms: C_7  and  C_9
REMARK    8  A    between atoms: C_15  and  C_16
REMARK    9  A    between atoms: C_16  and  O_18
REMARK   10  A    between atoms: C_19  and  C_20
REMARK   11  A    between atoms: N_21  and  C_22
REMARK   12  A    between atoms: C_22  and  C_23
REMARK                            x       y       z     vdW  Elec       q    Type
REMARK                         _______ _______ _______ _____ _____    ______ ____
ROOT
ATOM      1  C   UNL     1       4.084   6.914  18.713  0.00  0.00    +0.000 C 
ATOM      2  C   UNL     1       3.688   5.610  19.324  0.00  0.00    +0.000 A 
ATOM      3  C   UNL     1       2.527   5.278  20.021  0.00  0.00    +0.000 A 
ATOM      4  C   UNL     1       2.609   3.879  20.361  0.00  0.00    +0.000 A 
ATOM      5  C   UNL     1       3.857   3.428  19.917  0.00  0.00    +0.000 A 
ATOM      6  C   UNL     1       4.542   2.107  20.069  0.00  0.00    +0.000 C 
ATOM      7  N   UNL     1       4.506   4.498  19.310  0.00  0.00    +0.000 N 
ENDROOT
BRANCH   4   8
ATOM      8  C   UNL     1       1.581   3.109  21.073  0.00  0.00    +0.000 C 
ATOM      9  O   UNL     1       1.717   2.667  22.206  0.00  0.00    +0.000 OA
BRANCH   8  10
ATOM     10  O   UNL     1       0.415   2.952  20.401  0.00  0.00    +0.000 OA
ATOM     11  H   UNL     1      -0.310   3.404  20.856  0.00  0.00    +0.000 HD
ENDBRANCH   8  10
ENDBRANCH   4   8
BRANCH   3  12
ATOM     12  C   UNL     1       1.378   6.217  20.320  0.00  0.00    +0.000 C 
BRANCH  12  13
ATOM     13  N   UNL     1       1.754   7.293  21.234  0.00  0.00    +0.000 NA
ATOM     14  H   UNL     1       2.769   7.240  21.376  0.00  0.00    +0.000 HD
BRANCH  13  15
ATOM     15  C   UNL     1       1.383   8.634  20.776  0.00  0.00    +0.000 C 
BRANCH  15  16
ATOM     16  C   UNL     1      -0.016   9.065  21.293  0.00  0.00    +0.000 C 
ATOM     17  C   UNL     1      -0.036   9.365  22.799  0.00  0.00    +0.000 C 
BRANCH  16  18
ATOM     18  C   UNL     1      -0.537  10.267  20.512  0.00  0.00    +0.000 A 
ATOM     19  C   UNL     1      -0.901  11.438  21.193  0.00  0.00    +0.000 A 
ATOM     20  C   UNL     1      -1.410  12.538  20.498  0.00  0.00    +0.000 A 
ATOM     21  C   UNL     1      -1.559  12.482  19.114  0.00  0.00    +0.000 A 
ATOM     22  C   UNL     1      -1.184  11.334  18.422  0.00  0.00    +0.000 A 
ATOM     23  C   UNL     1      -0.671  10.234  19.114  0.00  0.00    +0.000 A 
ENDBRANCH  16  18
ENDBRANCH  15  16
ENDBRANCH  13  15
ENDBRANCH  12  13
ENDBRANCH   3  12
BRANCH   7  24
ATOM     24  C   UNL     1       5.849   4.435  18.711  0.00  0.00    +0.000 C 
BRANCH  24  25
ATOM     25  C   UNL     1       5.893   4.418  17.198  0.00  0.00    +0.000 A 
ATOM     26  C   UNL     1       4.810   4.055  16.385  0.00  0.00    +0.000 A 
ATOM     27  C   UNL     1       4.918   4.100  14.990  0.00  0.00    +0.000 A 
ATOM     28  C   UNL     1       6.109   4.495  14.389  0.00  0.00    +0.000 A 
ATOM     29  C   UNL     1       7.204   4.831  15.180  0.00  0.00    +0.000 A 
ATOM     30  C   UNL     1       7.098   4.789  16.571  0.00  0.00    +0.000 A 
ENDBRANCH  24  25
ENDBRANCH   7  24
TORSDOF 9
ENDMDL
MODEL 7
REMARK VINA RESULT:      -7.6      1.328      1.576
REMARK  Name = 
REMARK  12 active torsions:
REMARK  status: ('A' for Active; 'I' for Inactive)
REMARK    1  A    between atoms: C_1  and  C_2
REMARK    2  A    between atoms: C_3  and  C_4
REMARK    3  A    between atoms: C_4  and  N_5
REMARK    4  A    between atoms: N_5  and  C_6
REMARK    5  A    between atoms: C_6  and  C_7
REMARK    6  A    between atoms: C_7  and  C_8
REMARK    7  A    between atoms: C_7  and  C_9
REMARK    8  A    between atoms: C_15  and  C_16
REMARK    9  A    between atoms: C_16  and  O_18
REMARK   10  A    between atoms: C_19  and  C_20
REMARK   11  A    between atoms: N_21  and  C_22
REMARK   12  A    between atoms: C_22  and  C_23
REMARK                            x       y       z     vdW  Elec       q    Type
REMARK                         _______ _______ _______ _____ _____    ______ ____
ROOT
ATOM      1  C   UNL     1       2.347   6.530  17.858  0.00  0.00    +0.000 C 
ATOM      2  C   UNL     1       2.433   5.229  18.587  0.00  0.00    +0.000 A 
ATOM      3  C   UNL     1       2.113   4.935  19.912  0.00  0.00    +0.000 A 
ATOM      4  C   UNL     1       2.328   3.523  20.108  0.00  0.00    +0.000 A 
ATOM      5  C   UNL     1       2.841   3.021  18.907  0.00  0.00    +0.000 A 
ATOM      6  C   UNL     1       3.342   1.661  18.537  0.00  0.00    +0.000 C 
ATOM      7  N   UNL     1       2.919   4.076  18.003  0.00  0.00    +0.000 N 
ENDROOT
BRANCH   4   8
ATOM      8  C   UNL     1       2.084   2.785  21.354  0.00  0.00    +0.000 C 
ATOM      9  O   UNL     1       2.968   2.335  22.070  0.00  0.00    +0.000 OA
BRANCH   8  10
ATOM     10  O   UNL     1       0.779   2.668  21.704  0.00  0.00    +0.000 OA
ATOM     11  H   UNL     1       0.551   3.296  22.404  0.00  0.00    +0.000 HD
ENDBRANCH   8  10
ENDBRANCH   4   8
BRANCH   3  12
ATOM     12  C   UNL     1       1.593   5.924  20.933  0.00  0.00    +0.000 C 
BRANCH  12  13
ATOM     13  N   UNL     1       1.901   7.309  20.583  0.00  0.00    +0.000 NA
ATOM     14  H   UNL     1       1.689   7.432  19.586  0.00  0.00    +0.000 HD
BRANCH  13  15
ATOM     15  C   UNL     1       1.179   8.307  21.374  0.00  0.00    +0.000 C 
BRANCH  15  16
ATOM     16  C   UNL     1       1.069   9.672  20.640  0.00  0.00    +0.000 C 
ATOM     17  C   UNL     1       0.884   9.527  19.123  0.00  0.00    +0.000 C 
BRANCH  16  18
ATOM     18  C   UNL     1      -0.057  10.515  21.228  0.00  0.00    +0.000 A 
ATOM     19  C   UNL     1      -0.772  11.398  20.405  0.00  0.00    +0.000 A 
ATOM     20  C   UNL     1      -1.785  12.202  20.931  0.00  0.00    +0.000 A 
ATOM     21  C   UNL     1      -2.100  12.131  22.287  0.00  0.00    +0.000 A 
ATOM     22  C   UNL     1      -1.414  11.245  23.113  0.00  0.00    +0.000 A 
ATOM     23  C   UNL     1      -0.402  10.438  22.588  0.00  0.00    +0.000 A 
ENDBRANCH  16  18
ENDBRANCH  15  16
ENDBRANCH  13  15
ENDBRANCH  12  13
ENDBRANCH   3  12
BRANCH   7  24
ATOM     24  C   UNL     1       3.411   3.962  16.621  0.00  0.00    +0.000 C 
BRANCH  24  25
ATOM     25  C   UNL     1       4.884   4.249  16.422  0.00  0.00    +0.000 A 
ATOM     26  C   UNL     1       5.502   4.352  15.168  0.00  0.00    +0.000 A 
ATOM     27  C   UNL     1       6.864   4.656  15.065  0.00  0.00    +0.000 A 
ATOM     28  C   UNL     1       7.630   4.849  16.211  0.00  0.00    +0.000 A 
ATOM     29  C   UNL     1       7.041   4.722  17.466  0.00  0.00    +0.000 A 
ATOM     30  C   UNL     1       5.681   4.421  17.570  0.00  0.00    +0.000 A 
ENDBRANCH  24  25
ENDBRANCH   7  24
TORSDOF 9
ENDMDL
MODEL 8
REMARK VINA RESULT:      -7.5      4.541      8.006
REMARK  Name = 
REMARK  12 active torsions:
REMARK  status: ('A' for Active; 'I' for Inactive)
REMARK    1  A    between atoms: C_1  and  C_2
REMARK    2  A    between atoms: C_3  and  C_4
REMARK    3  A    between atoms: C_4  and  N_5
REMARK    4  A    between atoms: N_5  and  C_6
REMARK    5  A    between atoms: C_6  and  C_7
REMARK    6  A    between atoms: C_7  and  C_8
REMARK    7  A    between atoms: C_7  and  C_9
REMARK    8  A    between atoms: C_15  and  C_16
REMARK    9  A    between atoms: C_16  and  O_18
REMARK   10  A    between atoms: C_19  and  C_20
REMARK   11  A    between atoms: N_21  and  C_22
REMARK   12  A    between atoms: C_22  and  C_23
REMARK                            x       y       z     vdW  Elec       q    Type
REMARK                         _______ _______ _______ _____ _____    ______ ____
ROOT
ATOM      1  C   UNL     1       3.431   7.939  17.774  0.00  0.00    +0.000 C 
ATOM      2  C   UNL     1       4.270   6.722  17.560  0.00  0.00    +0.000 A 
ATOM      3  C   UNL     1       5.633   6.626  17.279  0.00  0.00    +0.000 A 
ATOM      4  C   UNL     1       5.966   5.224  17.212  0.00  0.00    +0.000 A 
ATOM      5  C   UNL     1       4.771   4.517  17.386  0.00  0.00    +0.000 A 
ATOM      6  C   UNL     1       4.470   3.053  17.319  0.00  0.00    +0.000 C 
ATOM      7  N   UNL     1       3.750   5.443  17.573  0.00  0.00    +0.000 N 
ENDROOT
BRANCH   4   8
ATOM      8  C   UNL     1       7.304   4.674  16.967  0.00  0.00    +0.000 C 
ATOM      9  O   UNL     1       7.823   4.595  15.861  0.00  0.00    +0.000 OA
BRANCH   8  10
ATOM     10  O   UNL     1       7.976   4.287  18.079  0.00  0.00    +0.000 OA
ATOM     11  H   UNL     1       8.549   4.998  18.402  0.00  0.00    +0.000 HD
ENDBRANCH   8  10
ENDBRANCH   4   8
BRANCH   3  12
ATOM     12  C   UNL     1       6.584   7.793  17.120  0.00  0.00    +0.000 C 
BRANCH  12  13
ATOM     13  N   UNL     1       7.859   7.576  17.800  0.00  0.00    +0.000 NA
ATOM     14  H   UNL     1       8.572   7.412  17.080  0.00  0.00    +0.000 HD
BRANCH  13  15
ATOM     15  C   UNL     1       8.274   8.676  18.673  0.00  0.00    +0.000 C 
BRANCH  15  16
ATOM     16  C   UNL     1       8.742   9.920  17.869  0.00  0.00    +0.000 C 
ATOM     17  C   UNL     1       7.583  10.825  17.428  0.00  0.00    +0.000 C 
BRANCH  16  18
ATOM     18  C   UNL     1       9.764  10.726  18.662  0.00  0.00    +0.000 A 
ATOM     19  C   UNL     1      10.919  11.208  18.028  0.00  0.00    +0.000 A 
ATOM     20  C   UNL     1      11.882  11.921  18.746  0.00  0.00    +0.000 A 
ATOM     21  C   UNL     1      11.701  12.165  20.106  0.00  0.00    +0.000 A 
ATOM     22  C   UNL     1      10.551  11.711  20.745  0.00  0.00    +0.000 A 
ATOM     23  C   UNL     1       9.585  11.000  20.029  0.00  0.00    +0.000 A 
ENDBRANCH  16  18
ENDBRANCH  15  16
ENDBRANCH  13  15
ENDBRANCH  12  13
ENDBRANCH   3  12
BRANCH   7  24
ATOM     24  C   UNL     1       2.336   5.100  17.790  0.00  0.00    +0.000 C 
BRANCH  24  25
ATOM     25  C   UNL     1       2.032   4.341  19.065  0.00  0.00    +0.000 A 
ATOM     26  C   UNL     1       2.501   4.715  20.332  0.00  0.00    +0.000 A 
ATOM     27  C   UNL     1       2.148   3.982  21.470  0.00  0.00    +0.000 A 
ATOM     28  C   UNL     1       1.332   2.860  21.359  0.00  0.00    +0.000 A 
ATOM     29  C   UNL     1       0.880   2.455  20.105  0.00  0.00    +0.000 A 
ATOM     30  C   UNL     1       1.231   3.187  18.969  0.00  0.00    +0.000 A 
ENDBRANCH  24  25
ENDBRANCH   7  24
TORSDOF 9
ENDMDL
MODEL 9
REMARK VINA RESULT:      -7.5      1.614      7.653
REMARK  Name = 
REMARK  12 active torsions:
REMARK  status: ('A' for Active; 'I' for Inactive)
REMARK    1  A    between atoms: C_1  and  C_2
REMARK    2  A    between atoms: C_3  and  C_4
REMARK    3  A    between atoms: C_4  and  N_5
REMARK    4  A    between atoms: N_5  and  C_6
REMARK    5  A    between atoms: C_6  and  C_7
REMARK    6  A    between atoms: C_7  and  C_8
REMARK    7  A    between atoms: C_7  and  C_9
REMARK    8  A    between atoms: C_15  and  C_16
REMARK    9  A    between atoms: C_16  and  O_18
REMARK   10  A    between atoms: C_19  and  C_20
REMARK   11  A    between atoms: N_21  and  C_22
REMARK   12  A    between atoms: C_22  and  C_23
REMARK                            x       y       z     vdW  Elec       q    Type
REMARK                         _______ _______ _______ _____ _____    ______ ____
ROOT
ATOM      1  C   UNL     1       3.328   7.642  17.128  0.00  0.00    +0.000 C 
ATOM      2  C   UNL     1       2.697   7.053  18.346  0.00  0.00    +0.000 A 
ATOM      3  C   UNL     1       2.542   5.713  18.702  0.00  0.00    +0.000 A 
ATOM      4  C   UNL     1       1.910   5.677  19.998  0.00  0.00    +0.000 A 
ATOM      5  C   UNL     1       1.639   7.004  20.352  0.00  0.00    +0.000 A 
ATOM      6  C   UNL     1       0.916   7.586  21.525  0.00  0.00    +0.000 C 
ATOM      7  N   UNL     1       2.103   7.822  19.327  0.00  0.00    +0.000 N 
ENDROOT
BRANCH   4   8
ATOM      8  C   UNL     1       1.589   4.464  20.759  0.00  0.00    +0.000 C 
ATOM      9  O   UNL     1       2.241   4.059  21.713  0.00  0.00    +0.000 OA
BRANCH   8  10
ATOM     10  O   UNL     1       0.463   3.822  20.364  0.00  0.00    +0.000 OA
ATOM     11  H   UNL     1       0.222   3.126  20.993  0.00  0.00    +0.000 HD
ENDBRANCH   8  10
ENDBRANCH   4   8
BRANCH   3  12
ATOM     12  C   UNL     1       3.000   4.525  17.883  0.00  0.00    +0.000 C 
BRANCH  12  13
ATOM     13  N   UNL     1       4.446   4.325  17.942  0.00  0.00    +0.000 NA
ATOM     14  H   UNL     1       4.661   3.868  18.835  0.00  0.00    +0.000 HD
BRANCH  13  15
ATOM     15  C   UNL     1       4.994   3.540  16.834  0.00  0.00    +0.000 C 
BRANCH  15  16
ATOM     16  C   UNL     1       6.140   4.285  16.096  0.00  0.00    +0.000 C 
ATOM     17  C   UNL     1       5.673   4.995  14.817  0.00  0.00    +0.000 C 
BRANCH  16  18
ATOM     18  C   UNL     1       6.828   5.278  17.026  0.00  0.00    +0.000 A 
ATOM     19  C   UNL     1       6.890   6.636  16.676  0.00  0.00    +0.000 A 
ATOM     20  C   UNL     1       7.544   7.555  17.499  0.00  0.00    +0.000 A 
ATOM     21  C   UNL     1       8.141   7.131  18.685  0.00  0.00    +0.000 A 
ATOM     22  C   UNL     1       8.071   5.791  19.056  0.00  0.00    +0.000 A 
ATOM     23  C   UNL     1       7.415   4.870  18.235  0.00  0.00    +0.000 A 
ENDBRANCH  16  18
ENDBRANCH  15  16
ENDBRANCH  13  15
ENDBRANCH  12  13
ENDBRANCH   3  12
BRANCH   7  24
ATOM     24  C   UNL     1       2.006   9.290  19.317  0.00  0.00    +0.000 C 
BRANCH  24  25
ATOM     25  C   UNL     1       0.640   9.856  18.988  0.00  0.00    +0.000 A 
ATOM     26  C   UNL     1      -0.078   9.549  17.824  0.00  0.00    +0.000 A 
ATOM     27  C   UNL     1      -1.353  10.085  17.608  0.00  0.00    +0.000 A 
ATOM     28  C   UNL     1      -1.922  10.943  18.544  0.00  0.00    +0.000 A 
ATOM     29  C   UNL     1      -1.213  11.283  19.692  0.00  0.00    +0.000 A 
ATOM     30  C   UNL     1       0.058  10.748  19.910  0.00  0.00    +0.000 A 
ENDBRANCH  24  25
ENDBRANCH   7  24
TORSDOF 9
ENDMDL
