MODEL 1
REMARK VINA RESULT:      -8.2      0.000      0.000
REMARK  Name = 
REMARK  8 active torsions:
REMARK  status: ('A' for Active; 'I' for Inactive)
REMARK    1  A    between atoms: C_1  and  N_2
REMARK    2  A    between atoms: N_2  and  C_3
REMARK    3  A    between atoms: N_2  and  C_4
REMARK    4  A    between atoms: C_7  and  C_8
REMARK    5  A    between atoms: N_9  and  N_10
REMARK    6  A    between atoms: C_11  and  C_13
REMARK    7  A    between atoms: C_13  and  N_14
REMARK    8  A    between atoms: N_17  and  C_18
REMARK                            x       y       z     vdW  Elec       q    Type
REMARK                         _______ _______ _______ _____ _____    ______ ____
ROOT
ATOM      1  N   UNL     1       8.958   9.138  19.096  0.00  0.00    +0.000 N 
ATOM      2  C   UNL     1       8.213   8.483  18.128  0.00  0.00    +0.000 C 
ATOM      3  O   UNL     1       7.798   9.009  17.091  0.00  0.00    +0.000 OA
ATOM      4  H   UNL     1       9.231   8.641  19.938  0.00  0.00    +0.000 HD
ENDROOT
BRANCH   1   6
ATOM      5  C   UNL     1      10.358  10.941  19.128  0.00  0.00    +0.000 C 
ATOM      6  N   UNL     1       9.163  10.479  18.957  0.00  0.00    +0.000 NA
BRANCH   5  10
ATOM      7  C   UNL     1      11.068  15.203  18.729  0.00  0.00    +0.000 A 
ATOM      8  C   UNL     1      11.227  14.530  19.952  0.00  0.00    +0.000 A 
ATOM      9  C   UNL     1      11.012  13.152  20.082  0.00  0.00    +0.000 A 
ATOM     10  C   UNL     1      10.622  12.393  18.981  0.00  0.00    +0.000 A 
ATOM     11  C   UNL     1      10.472  13.017  17.747  0.00  0.00    +0.000 A 
ATOM     12  C   UNL     1      10.693  14.402  17.633  0.00  0.00    +0.000 A 
BRANCH   7  14
ATOM     13  C   UNL     1      11.308  17.430  19.796  0.00  0.00    +0.000 C 
ATOM     14  N   UNL     1      11.270  16.575  18.614  0.00  0.00    +0.000 N 
ATOM     15  C   UNL     1      11.367  17.221  17.312  0.00  0.00    +0.000 C 
ENDBRANCH   7  14
ENDBRANCH   5  10
ENDBRANCH   1   6
BRANCH   2  16
ATOM     16  C   UNL     1       7.957   6.996  18.383  0.00  0.00    +0.000 C 
BRANCH  16  17
ATOM     17  N   UNL     1       7.399   6.276  17.211  0.00  0.00    +0.000 NA
ATOM     18  C   UNL     1       7.326   4.804  17.443  0.00  0.00    +0.000 C 
ATOM     19  C   UNL     1       6.261   4.303  18.456  0.00  0.00    +0.000 C 
ATOM     20  N   UNL     1       4.952   4.859  18.094  0.00  0.00    +0.000 N 
ATOM     21  C   UNL     1       4.925   6.320  17.953  0.00  0.00    +0.000 C 
ATOM     22  C   UNL     1       6.012   6.759  16.937  0.00  0.00    +0.000 C 
BRANCH  20  23
ATOM     23  C   UNL     1       3.783   4.129  18.176  0.00  0.00    +0.000 A 
ATOM     24  C   UNL     1       2.529   4.667  17.848  0.00  0.00    +0.000 A 
ATOM     25  C   UNL     1       1.353   3.914  17.972  0.00  0.00    +0.000 A 
ATOM     26  C   UNL     1       1.419   2.610  18.438  0.00  0.00    +0.000 A 
ATOM     27  F   UNL     1       0.298   1.890  18.565  0.00  0.00    +0.000 F 
ATOM     28  C   UNL     1       2.636   2.046  18.781  0.00  0.00    +0.000 A 
ATOM     29  C   UNL     1       3.804   2.804  18.647  0.00  0.00    +0.000 A 
ENDBRANCH  20  23
ENDBRANCH  16  17
ENDBRANCH   2  16
TORSDOF 6
ENDMDL
MODEL 2
REMARK VINA RESULT:      -7.8      1.995      2.811
REMARK  Name = 
REMARK  8 active torsions:
REMARK  status: ('A' for Active; 'I' for Inactive)
REMARK    1  A    between atoms: C_1  and  N_2
REMARK    2  A    between atoms: N_2  and  C_3
REMARK    3  A    between atoms: N_2  and  C_4
REMARK    4  A    between atoms: C_7  and  C_8
REMARK    5  A    between atoms: N_9  and  N_10
REMARK    6  A    between atoms: C_11  and  C_13
REMARK    7  A    between atoms: C_13  and  N_14
REMARK    8  A    between atoms: N_17  and  C_18
REMARK                            x       y       z     vdW  Elec       q    Type
REMARK                         _______ _______ _______ _____ _____    ______ ____
ROOT
ATOM      1  N   UNL     1       7.658   7.821  17.096  0.00  0.00    +0.000 N 
ATOM      2  C   UNL     1       7.592   6.532  17.601  0.00  0.00    +0.000 C 
ATOM      3  O   UNL     1       7.959   6.206  18.734  0.00  0.00    +0.000 OA
ATOM      4  H   UNL     1       7.366   7.998  16.139  0.00  0.00    +0.000 HD
ENDROOT
BRANCH   1   6
ATOM      5  C   UNL     1       8.155  10.016  17.481  0.00  0.00    +0.000 C 
ATOM      6  N   UNL     1       8.265   8.781  17.849  0.00  0.00    +0.000 NA
BRANCH   5  10
ATOM      7  C   UNL     1       9.976  13.159  19.854  0.00  0.00    +0.000 A 
ATOM      8  C   UNL     1       9.904  11.829  20.303  0.00  0.00    +0.000 A 
ATOM      9  C   UNL     1       9.329  10.809  19.535  0.00  0.00    +0.000 A 
ATOM     10  C   UNL     1       8.797  11.089  18.278  0.00  0.00    +0.000 A 
ATOM     11  C   UNL     1       8.865  12.388  17.787  0.00  0.00    +0.000 A 
ATOM     12  C   UNL     1       9.447  13.402  18.571  0.00  0.00    +0.000 A 
BRANCH   7  14
ATOM     13  C   UNL     1      11.693  14.923  20.162  0.00  0.00    +0.000 C 
ATOM     14  N   UNL     1      10.536  14.168  20.631  0.00  0.00    +0.000 N 
ATOM     15  C   UNL     1      10.044  14.454  21.972  0.00  0.00    +0.000 C 
ENDBRANCH   7  14
ENDBRANCH   5  10
ENDBRANCH   1   6
BRANCH   2  16
ATOM     16  C   UNL     1       6.966   5.488  16.674  0.00  0.00    +0.000 C 
BRANCH  16  17
ATOM     17  N   UNL     1       5.497   5.636  16.514  0.00  0.00    +0.000 NA
ATOM     18  C   UNL     1       4.810   4.315  16.425  0.00  0.00    +0.000 C 
ATOM     19  C   UNL     1       4.742   3.468  17.725  0.00  0.00    +0.000 C 
ATOM     20  N   UNL     1       4.192   4.291  18.808  0.00  0.00    +0.000 N 
ATOM     21  C   UNL     1       4.890   5.565  19.024  0.00  0.00    +0.000 C 
ATOM     22  C   UNL     1       4.932   6.360  17.692  0.00  0.00    +0.000 C 
BRANCH  20  23
ATOM     23  C   UNL     1       3.303   3.798  19.743  0.00  0.00    +0.000 A 
ATOM     24  C   UNL     1       3.634   2.764  20.632  0.00  0.00    +0.000 A 
ATOM     25  C   UNL     1       2.702   2.258  21.548  0.00  0.00    +0.000 A 
ATOM     26  C   UNL     1       1.417   2.779  21.577  0.00  0.00    +0.000 A 
ATOM     27  F   UNL     1       0.521   2.294  22.446  0.00  0.00    +0.000 F 
ATOM     28  C   UNL     1       1.049   3.793  20.709  0.00  0.00    +0.000 A 
ATOM     29  C   UNL     1       1.989   4.294  19.804  0.00  0.00    +0.000 A 
ENDBRANCH  20  23
ENDBRANCH  16  17
ENDBRANCH   2  16
TORSDOF 6
ENDMDL
MODEL 3
REMARK VINA RESULT:      -7.6      7.418      9.120
REMARK  Name = 
REMARK  8 active torsions:
REMARK  status: ('A' for Active; 'I' for Inactive)
REMARK    1  A    between atoms: C_1  and  N_2
REMARK    2  A    between atoms: N_2  and  C_3
REMARK    3  A    between atoms: N_2  and  C_4
REMARK    4  A    between atoms: C_7  and  C_8
REMARK    5  A    between atoms: N_9  and  N_10
REMARK    6  A    between atoms: C_11  and  C_13
REMARK    7  A    between atoms: C_13  and  N_14
REMARK    8  A    between atoms: N_17  and  C_18
REMARK                            x       y       z     vdW  Elec       q    Type
REMARK                         _______ _______ _______ _____ _____    ______ ____
ROOT
ATOM      1  N   UNL     1       2.271   5.845  20.781  0.00  0.00    +0.000 N 
ATOM      2  C   UNL     1       1.595   4.671  20.490  0.00  0.00    +0.000 C 
ATOM      3  O   UNL     1       0.379   4.511  20.629  0.00  0.00    +0.000 OA
ATOM      4  H   UNL     1       3.279   5.882  20.671  0.00  0.00    +0.000 HD
ENDROOT
BRANCH   1   6
ATOM      5  C   UNL     1       1.503   7.995  20.737  0.00  0.00    +0.000 C 
ATOM      6  N   UNL     1       1.575   6.865  21.360  0.00  0.00    +0.000 NA
BRANCH   5  10
ATOM      7  C   UNL     1      -0.757  11.278  22.453  0.00  0.00    +0.000 A 
ATOM      8  C   UNL     1      -0.753   9.994  23.024  0.00  0.00    +0.000 A 
ATOM      9  C   UNL     1      -0.014   8.935  22.481  0.00  0.00    +0.000 A 
ATOM     10  C   UNL     1       0.751   9.126  21.332  0.00  0.00    +0.000 A 
ATOM     11  C   UNL     1       0.791  10.387  20.746  0.00  0.00    +0.000 A 
ATOM     12  C   UNL     1       0.043  11.441  21.306  0.00  0.00    +0.000 A 
BRANCH   7  14
ATOM     13  C   UNL     1      -2.895  12.116  23.391  0.00  0.00    +0.000 C 
ATOM     14  N   UNL     1      -1.506  12.319  22.992  0.00  0.00    +0.000 N 
ATOM     15  C   UNL     1      -0.964  13.667  23.101  0.00  0.00    +0.000 C 
ENDBRANCH   7  14
ENDBRANCH   5  10
ENDBRANCH   1   6
BRANCH   2  16
ATOM     16  C   UNL     1       2.451   3.542  19.911  0.00  0.00    +0.000 C 
BRANCH  16  17
ATOM     17  N   UNL     1       2.154   3.237  18.489  0.00  0.00    +0.000 NA
ATOM     18  C   UNL     1       2.182   4.464  17.639  0.00  0.00    +0.000 C 
ATOM     19  C   UNL     1       3.572   5.106  17.376  0.00  0.00    +0.000 C 
ATOM     20  N   UNL     1       4.491   4.079  16.873  0.00  0.00    +0.000 N 
ATOM     21  C   UNL     1       4.595   2.883  17.719  0.00  0.00    +0.000 C 
ATOM     22  C   UNL     1       3.179   2.292  17.951  0.00  0.00    +0.000 C 
BRANCH  20  23
ATOM     23  C   UNL     1       5.407   4.323  15.869  0.00  0.00    +0.000 A 
ATOM     24  C   UNL     1       6.495   5.195  16.031  0.00  0.00    +0.000 A 
ATOM     25  C   UNL     1       7.391   5.452  14.984  0.00  0.00    +0.000 A 
ATOM     26  C   UNL     1       7.199   4.844  13.753  0.00  0.00    +0.000 A 
ATOM     27  F   UNL     1       8.049   5.092  12.748  0.00  0.00    +0.000 F 
ATOM     28  C   UNL     1       6.132   3.986  13.550  0.00  0.00    +0.000 A 
ATOM     29  C   UNL     1       5.249   3.731  14.603  0.00  0.00    +0.000 A 
ENDBRANCH  20  23
ENDBRANCH  16  17
ENDBRANCH   2  16
TORSDOF 6
ENDMDL
MODEL 4
REMARK VINA RESULT:      -7.5      7.334      9.170
REMARK  Name = 
REMARK  8 active torsions:
REMARK  status: ('A' for Active; 'I' for Inactive)
REMARK    1  A    between atoms: C_1  and  N_2
REMARK    2  A    between atoms: N_2  and  C_3
REMARK    3  A    between atoms: N_2  and  C_4
REMARK    4  A    between atoms: C_7  and  C_8
REMARK    5  A    between atoms: N_9  and  N_10
REMARK    6  A    between atoms: C_11  and  C_13
REMARK    7  A    between atoms: C_13  and  N_14
REMARK    8  A    between atoms: N_17  and  C_18
REMARK                            x       y       z     vdW  Elec       q    Type
REMARK                         _______ _______ _______ _____ _____    ______ ____
ROOT
ATOM      1  N   UNL     1       2.243   6.702  20.681  0.00  0.00    +0.000 N 
ATOM      2  C   UNL     1       1.694   5.430  20.665  0.00  0.00    +0.000 C 
ATOM      3  O   UNL     1       0.497   5.187  20.485  0.00  0.00    +0.000 OA
ATOM      4  H   UNL     1       3.234   6.816  20.870  0.00  0.00    +0.000 HD
ENDROOT
BRANCH   1   6
ATOM      5  C   UNL     1       1.107   8.408  21.687  0.00  0.00    +0.000 C 
ATOM      6  N   UNL     1       1.401   7.771  20.601  0.00  0.00    +0.000 NA
BRANCH   5  10
ATOM      7  C   UNL     1      -1.498  11.875  21.530  0.00  0.00    +0.000 A 
ATOM      8  C   UNL     1      -1.049  11.224  20.369  0.00  0.00    +0.000 A 
ATOM      9  C   UNL     1      -0.219  10.096  20.415  0.00  0.00    +0.000 A 
ATOM     10  C   UNL     1       0.198   9.579  21.640  0.00  0.00    +0.000 A 
ATOM     11  C   UNL     1      -0.240  10.181  22.815  0.00  0.00    +0.000 A 
ATOM     12  C   UNL     1      -1.075  11.312  22.750  0.00  0.00    +0.000 A 
BRANCH   7  14
ATOM     13  C   UNL     1      -3.428  13.076  20.538  0.00  0.00    +0.000 C 
ATOM     14  N   UNL     1      -2.310  13.003  21.473  0.00  0.00    +0.000 N 
ATOM     15  C   UNL     1      -2.029  14.182  22.280  0.00  0.00    +0.000 C 
ENDBRANCH   7  14
ENDBRANCH   5  10
ENDBRANCH   1   6
BRANCH   2  16
ATOM     16  C   UNL     1       2.688   4.278  20.833  0.00  0.00    +0.000 C 
BRANCH  16  17
ATOM     17  N   UNL     1       2.683   3.315  19.703  0.00  0.00    +0.000 NA
ATOM     18  C   UNL     1       2.263   3.958  18.424  0.00  0.00    +0.000 C 
ATOM     19  C   UNL     1       3.262   4.955  17.776  0.00  0.00    +0.000 C 
ATOM     20  N   UNL     1       4.575   4.311  17.652  0.00  0.00    +0.000 N 
ATOM     21  C   UNL     1       5.100   3.746  18.901  0.00  0.00    +0.000 C 
ATOM     22  C   UNL     1       4.058   2.767  19.502  0.00  0.00    +0.000 C 
BRANCH  20  23
ATOM     23  C   UNL     1       5.386   4.478  16.547  0.00  0.00    +0.000 A 
ATOM     24  C   UNL     1       6.681   5.014  16.633  0.00  0.00    +0.000 A 
ATOM     25  C   UNL     1       7.471   5.204  15.491  0.00  0.00    +0.000 A 
ATOM     26  C   UNL     1       6.968   4.869  14.244  0.00  0.00    +0.000 A 
ATOM     27  F   UNL     1       7.717   5.056  13.150  0.00  0.00    +0.000 F 
ATOM     28  C   UNL     1       5.692   4.347  14.117  0.00  0.00    +0.000 A 
ATOM     29  C   UNL     1       4.914   4.155  15.262  0.00  0.00    +0.000 A 
ENDBRANCH  20  23
ENDBRANCH  16  17
ENDBRANCH   2  16
TORSDOF 6
ENDMDL
MODEL 5
REMARK VINA RESULT:      -7.5      7.401      8.921
REMARK  Name = 
REMARK  8 active torsions:
REMARK  status: ('A' for Active; 'I' for Inactive)
REMARK    1  A    between atoms: C_1  and  N_2
REMARK    2  A    between atoms: N_2  and  C_3
REMARK    3  A    between atoms: N_2  and  C_4
REMARK    4  A    between atoms: C_7  and  C_8
REMARK    5  A    between atoms: N_9  and  N_10
REMARK    6  A    between atoms: C_11  and  C_13
REMARK    7  A    between atoms: C_13  and  N_14
REMARK    8  A    between atoms: N_17  and  C_18
REMARK                            x       y       z     vdW  Elec       q    Type
REMARK                         _______ _______ _______ _____ _____    ______ ____
ROOT
ATOM      1  N   UNL     1       2.372   6.003  20.676  0.00  0.00    +0.000 N 
ATOM      2  C   UNL     1       1.672   4.808  20.709  0.00  0.00    +0.000 C 
ATOM      3  O   UNL     1       0.470   4.694  20.450  0.00  0.00    +0.000 OA
ATOM      4  H   UNL     1       3.354   6.014  20.936  0.00  0.00    +0.000 HD
ENDROOT
BRANCH   1   6
ATOM      5  C   UNL     1       1.308   7.863  21.465  0.00  0.00    +0.000 C 
ATOM      6  N   UNL     1       1.678   7.154  20.449  0.00  0.00    +0.000 NA
BRANCH   5  10
ATOM      7  C   UNL     1      -0.955  11.516  20.866  0.00  0.00    +0.000 A 
ATOM      8  C   UNL     1      -0.806  10.928  22.134  0.00  0.00    +0.000 A 
ATOM      9  C   UNL     1      -0.065   9.756  22.333  0.00  0.00    +0.000 A 
ATOM     10  C   UNL     1       0.556   9.123  21.258  0.00  0.00    +0.000 A 
ATOM     11  C   UNL     1       0.450   9.683  19.989  0.00  0.00    +0.000 A 
ATOM     12  C   UNL     1      -0.298  10.862  19.806  0.00  0.00    +0.000 A 
BRANCH   7  14
ATOM     13  C   UNL     1      -1.145  13.824  19.978  0.00  0.00    +0.000 C 
ATOM     14  N   UNL     1      -1.706  12.672  20.676  0.00  0.00    +0.000 N 
ATOM     15  C   UNL     1      -3.044  12.808  21.234  0.00  0.00    +0.000 C 
ENDBRANCH   7  14
ENDBRANCH   5  10
ENDBRANCH   1   6
BRANCH   2  16
ATOM     16  C   UNL     1       2.499   3.564  21.042  0.00  0.00    +0.000 C 
BRANCH  16  17
ATOM     17  N   UNL     1       2.668   2.635  19.897  0.00  0.00    +0.000 NA
ATOM     18  C   UNL     1       2.216   3.244  18.612  0.00  0.00    +0.000 C 
ATOM     19  C   UNL     1       3.097   4.380  18.023  0.00  0.00    +0.000 C 
ATOM     20  N   UNL     1       4.488   3.919  17.943  0.00  0.00    +0.000 N 
ATOM     21  C   UNL     1       5.035   3.402  19.204  0.00  0.00    +0.000 C 
ATOM     22  C   UNL     1       4.111   2.279  19.745  0.00  0.00    +0.000 C 
BRANCH  20  23
ATOM     23  C   UNL     1       5.313   4.217  16.877  0.00  0.00    +0.000 A 
ATOM     24  C   UNL     1       6.663   4.564  17.037  0.00  0.00    +0.000 A 
ATOM     25  C   UNL     1       7.470   4.896  15.940  0.00  0.00    +0.000 A 
ATOM     26  C   UNL     1       6.927   4.894  14.664  0.00  0.00    +0.000 A 
ATOM     27  F   UNL     1       7.693   5.217  13.614  0.00  0.00    +0.000 F 
ATOM     28  C   UNL     1       5.596   4.567  14.465  0.00  0.00    +0.000 A 
ATOM     29  C   UNL     1       4.803   4.231  15.566  0.00  0.00    +0.000 A 
ENDBRANCH  20  23
ENDBRANCH  16  17
ENDBRANCH   2  16
TORSDOF 6
ENDMDL
MODEL 6
REMARK VINA RESULT:      -7.4      7.399      9.120
REMARK  Name = 
REMARK  8 active torsions:
REMARK  status: ('A' for Active; 'I' for Inactive)
REMARK    1  A    between atoms: C_1  and  N_2
REMARK    2  A    between atoms: N_2  and  C_3
REMARK    3  A    between atoms: N_2  and  C_4
REMARK    4  A    between atoms: C_7  and  C_8
REMARK    5  A    between atoms: N_9  and  N_10
REMARK    6  A    between atoms: C_11  and  C_13
REMARK    7  A    between atoms: C_13  and  N_14
REMARK    8  A    between atoms: N_17  and  C_18
REMARK                            x       y       z     vdW  Elec       q    Type
REMARK                         _______ _______ _______ _____ _____    ______ ____
ROOT
ATOM      1  N   UNL     1       2.208   5.979  20.752  0.00  0.00    +0.000 N 
ATOM      2  C   UNL     1       1.689   4.706  20.583  0.00  0.00    +0.000 C 
ATOM      3  O   UNL     1       0.487   4.428  20.631  0.00  0.00    +0.000 OA
ATOM      4  H   UNL     1       3.214   6.116  20.732  0.00  0.00    +0.000 HD
ENDROOT
BRANCH   1   6
ATOM      5  C   UNL     1       1.570   8.169  20.630  0.00  0.00    +0.000 C 
ATOM      6  N   UNL     1       1.355   6.984  21.101  0.00  0.00    +0.000 NA
BRANCH   5  10
ATOM      7  C   UNL     1      -1.143  11.393  21.663  0.00  0.00    +0.000 A 
ATOM      8  C   UNL     1      -0.715  10.445  22.608  0.00  0.00    +0.000 A 
ATOM      9  C   UNL     1       0.171   9.410  22.281  0.00  0.00    +0.000 A 
ATOM     10  C   UNL     1       0.662   9.286  20.983  0.00  0.00    +0.000 A 
ATOM     11  C   UNL     1       0.279  10.216  20.022  0.00  0.00    +0.000 A 
ATOM     12  C   UNL     1      -0.611  11.250  20.367  0.00  0.00    +0.000 A 
BRANCH   7  14
ATOM     13  C   UNL     1      -2.316  12.736  23.387  0.00  0.00    +0.000 C 
ATOM     14  N   UNL     1      -2.035  12.408  21.994  0.00  0.00    +0.000 N 
ATOM     15  C   UNL     1      -2.783  13.124  20.969  0.00  0.00    +0.000 C 
ENDBRANCH   7  14
ENDBRANCH   5  10
ENDBRANCH   1   6
BRANCH   2  16
ATOM     16  C   UNL     1       2.711   3.612  20.265  0.00  0.00    +0.000 C 
BRANCH  16  17
ATOM     17  N   UNL     1       2.522   2.986  18.933  0.00  0.00    +0.000 NA
ATOM     18  C   UNL     1       2.246   4.001  17.874  0.00  0.00    +0.000 C 
ATOM     19  C   UNL     1       3.428   4.916  17.451  0.00  0.00    +0.000 C 
ATOM     20  N   UNL     1       4.586   4.081  17.112  0.00  0.00    +0.000 N 
ATOM     21  C   UNL     1       4.981   3.128  18.156  0.00  0.00    +0.000 C 
ATOM     22  C   UNL     1       3.761   2.250  18.540  0.00  0.00    +0.000 C 
BRANCH  20  23
ATOM     23  C   UNL     1       5.422   4.361  16.049  0.00  0.00    +0.000 A 
ATOM     24  C   UNL     1       5.187   3.878  14.752  0.00  0.00    +0.000 A 
ATOM     25  C   UNL     1       6.070   4.149  13.698  0.00  0.00    +0.000 A 
ATOM     26  C   UNL     1       7.210   4.902  13.934  0.00  0.00    +0.000 A 
ATOM     27  F   UNL     1       8.059   5.158  12.931  0.00  0.00    +0.000 F 
ATOM     28  C   UNL     1       7.482   5.389  15.201  0.00  0.00    +0.000 A 
ATOM     29  C   UNL     1       6.592   5.118  16.244  0.00  0.00    +0.000 A 
ENDBRANCH  20  23
ENDBRANCH  16  17
ENDBRANCH   2  16
TORSDOF 6
ENDMDL
MODEL 7
REMARK VINA RESULT:      -7.4      1.762      2.220
REMARK  Name = 
REMARK  8 active torsions:
REMARK  status: ('A' for Active; 'I' for Inactive)
REMARK    1  A    between atoms: C_1  and  N_2
REMARK    2  A    between atoms: N_2  and  C_3
REMARK    3  A    between atoms: N_2  and  C_4
REMARK    4  A    between atoms: C_7  and  C_8
REMARK    5  A    between atoms: N_9  and  N_10
REMARK    6  A    between atoms: C_11  and  C_13
REMARK    7  A    between atoms: C_13  and  N_14
REMARK    8  A    between atoms: N_17  and  C_18
REMARK                            x       y       z     vdW  Elec       q    Type
REMARK                         _______ _______ _______ _____ _____    ______ ____
ROOT
ATOM      1  N   UNL     1       7.765   8.453  17.292  0.00  0.00    +0.000 N 
ATOM      2  C   UNL     1       7.817   7.138  17.725  0.00  0.00    +0.000 C 
ATOM      3  O   UNL     1       8.106   6.791  18.875  0.00  0.00    +0.000 OA
ATOM      4  H   UNL     1       7.553   8.651  16.319  0.00  0.00    +0.000 HD
ENDROOT
BRANCH   1   6
ATOM      5  C   UNL     1       8.784  10.460  17.676  0.00  0.00    +0.000 C 
ATOM      6  N   UNL     1       8.159   9.434  18.153  0.00  0.00    +0.000 NA
BRANCH   5  10
ATOM      7  C   UNL     1      10.022  13.631  20.367  0.00  0.00    +0.000 A 
ATOM      8  C   UNL     1      10.316  12.280  20.617  0.00  0.00    +0.000 A 
ATOM      9  C   UNL     1       9.931  11.255  19.744  0.00  0.00    +0.000 A 
ATOM     10  C   UNL     1       9.225  11.550  18.580  0.00  0.00    +0.000 A 
ATOM     11  C   UNL     1       8.929  12.876  18.284  0.00  0.00    +0.000 A 
ATOM     12  C   UNL     1       9.325  13.895  19.171  0.00  0.00    +0.000 A 
BRANCH   7  14
ATOM     13  C   UNL     1       9.728  14.798  22.536  0.00  0.00    +0.000 C 
ATOM     14  N   UNL     1      10.396  14.641  21.248  0.00  0.00    +0.000 N 
ATOM     15  C   UNL     1      11.407  15.626  20.888  0.00  0.00    +0.000 C 
ENDBRANCH   7  14
ENDBRANCH   5  10
ENDBRANCH   1   6
BRANCH   2  16
ATOM     16  C   UNL     1       7.433   6.083  16.686  0.00  0.00    +0.000 C 
BRANCH  16  17
ATOM     17  N   UNL     1       6.067   6.260  16.132  0.00  0.00    +0.000 NA
ATOM     18  C   UNL     1       5.466   4.963  15.704  0.00  0.00    +0.000 C 
ATOM     19  C   UNL     1       5.052   3.974  16.829  0.00  0.00    +0.000 C 
ATOM     20  N   UNL     1       4.198   4.673  17.796  0.00  0.00    +0.000 N 
ATOM     21  C   UNL     1       4.775   5.909  18.341  0.00  0.00    +0.000 C 
ATOM     22  C   UNL     1       5.173   6.850  17.174  0.00  0.00    +0.000 C 
BRANCH  20  23
ATOM     23  C   UNL     1       3.093   4.084  18.378  0.00  0.00    +0.000 A 
ATOM     24  C   UNL     1       2.460   2.956  17.833  0.00  0.00    +0.000 A 
ATOM     25  C   UNL     1       1.319   2.399  18.426  0.00  0.00    +0.000 A 
ATOM     26  C   UNL     1       0.790   2.974  19.571  0.00  0.00    +0.000 A 
ATOM     27  F   UNL     1      -0.304   2.448  20.136  0.00  0.00    +0.000 F 
ATOM     28  C   UNL     1       1.379   4.093  20.133  0.00  0.00    +0.000 A 
ATOM     29  C   UNL     1       2.521   4.638  19.538  0.00  0.00    +0.000 A 
ENDBRANCH  20  23
ENDBRANCH  16  17
ENDBRANCH   2  16
TORSDOF 6
ENDMDL
MODEL 8
REMARK VINA RESULT:      -7.4      1.325      1.752
REMARK  Name = 
REMARK  8 active torsions:
REMARK  status: ('A' for Active; 'I' for Inactive)
REMARK    1  A    between atoms: C_1  and  N_2
REMARK    2  A    between atoms: N_2  and  C_3
REMARK    3  A    between atoms: N_2  and  C_4
REMARK    4  A    between atoms: C_7  and  C_8
REMARK    5  A    between atoms: N_9  and  N_10
REMARK    6  A    between atoms: C_11  and  C_13
REMARK    7  A    between atoms: C_13  and  N_14
REMARK    8  A    between atoms: N_17  and  C_18
REMARK                            x       y       z     vdW  Elec       q    Type
REMARK                         _______ _______ _______ _____ _____    ______ ____
ROOT
ATOM      1  N   UNL     1       7.697   9.200  17.463  0.00  0.00    +0.000 N 
ATOM      2  C   UNL     1       8.067   7.940  17.905  0.00  0.00    +0.000 C 
ATOM      3  O   UNL     1       8.667   7.717  18.961  0.00  0.00    +0.000 OA
ATOM      4  H   UNL     1       7.235   9.298  16.564  0.00  0.00    +0.000 HD
ENDROOT
BRANCH   1   6
ATOM      5  C   UNL     1       9.261  10.805  17.899  0.00  0.00    +0.000 C 
ATOM      6  N   UNL     1       8.111  10.284  18.178  0.00  0.00    +0.000 NA
BRANCH   5  10
ATOM      7  C   UNL     1      10.623  14.256  20.149  0.00  0.00    +0.000 A 
ATOM      8  C   UNL     1      10.853  12.941  20.586  0.00  0.00    +0.000 A 
ATOM      9  C   UNL     1      10.427  11.824  19.856  0.00  0.00    +0.000 A 
ATOM     10  C   UNL     1       9.744  11.987  18.652  0.00  0.00    +0.000 A 
ATOM     11  C   UNL     1       9.512  13.272  18.174  0.00  0.00    +0.000 A 
ATOM     12  C   UNL     1       9.948  14.384  18.919  0.00  0.00    +0.000 A 
BRANCH   7  14
ATOM     13  C   UNL     1      12.111  16.223  20.411  0.00  0.00    +0.000 C 
ATOM     14  N   UNL     1      11.036  15.359  20.889  0.00  0.00    +0.000 N 
ATOM     15  C   UNL     1      10.474  15.647  22.201  0.00  0.00    +0.000 C 
ENDBRANCH   7  14
ENDBRANCH   5  10
ENDBRANCH   1   6
BRANCH   2  16
ATOM     16  C   UNL     1       7.633   6.772  17.015  0.00  0.00    +0.000 C 
BRANCH  16  17
ATOM     17  N   UNL     1       7.607   5.464  17.717  0.00  0.00    +0.000 NA
ATOM     18  C   UNL     1       6.776   5.513  18.957  0.00  0.00    +0.000 C 
ATOM     19  C   UNL     1       5.238   5.621  18.769  0.00  0.00    +0.000 C 
ATOM     20  N   UNL     1       4.788   4.563  17.857  0.00  0.00    +0.000 N 
ATOM     21  C   UNL     1       5.492   4.524  16.570  0.00  0.00    +0.000 C 
ATOM     22  C   UNL     1       7.020   4.423  16.821  0.00  0.00    +0.000 C 
BRANCH  20  23
ATOM     23  C   UNL     1       3.614   3.862  18.050  0.00  0.00    +0.000 A 
ATOM     24  C   UNL     1       2.347   4.437  17.861  0.00  0.00    +0.000 A 
ATOM     25  C   UNL     1       1.171   3.713  18.097  0.00  0.00    +0.000 A 
ATOM     26  C   UNL     1       1.250   2.400  18.537  0.00  0.00    +0.000 A 
ATOM     27  F   UNL     1       0.128   1.707  18.769  0.00  0.00    +0.000 F 
ATOM     28  C   UNL     1       2.480   1.800  18.745  0.00  0.00    +0.000 A 
ATOM     29  C   UNL     1       3.647   2.530  18.500  0.00  0.00    +0.000 A 
ENDBRANCH  20  23
ENDBRANCH  16  17
ENDBRANCH   2  16
TORSDOF 6
ENDMDL
MODEL 9
REMARK VINA RESULT:      -7.4      7.209      8.907
REMARK  Name = 
REMARK  8 active torsions:
REMARK  status: ('A' for Active; 'I' for Inactive)
REMARK    1  A    between atoms: C_1  and  N_2
REMARK    2  A    between atoms: N_2  and  C_3
REMARK    3  A    between atoms: N_2  and  C_4
REMARK    4  A    between atoms: C_7  and  C_8
REMARK    5  A    between atoms: N_9  and  N_10
REMARK    6  A    between atoms: C_11  and  C_13
REMARK    7  A    between atoms: C_13  and  N_14
REMARK    8  A    between atoms: N_17  and  C_18
REMARK                            x       y       z     vdW  Elec       q    Type
REMARK                         _______ _______ _______ _____ _____    ______ ____
ROOT
ATOM      1  N   UNL     1       2.301   6.036  20.750  0.00  0.00    +0.000 N 
ATOM      2  C   UNL     1       1.676   4.799  20.775  0.00  0.00    +0.000 C 
ATOM      3  O   UNL     1       0.485   4.612  20.509  0.00  0.00    +0.000 OA
ATOM      4  H   UNL     1       3.279   6.107  21.016  0.00  0.00    +0.000 HD
ENDROOT
BRANCH   1   6
ATOM      5  C   UNL     1       1.424   8.018  21.466  0.00  0.00    +0.000 C 
ATOM      6  N   UNL     1       1.537   7.142  20.522  0.00  0.00    +0.000 NA
BRANCH   5  10
ATOM      7  C   UNL     1      -0.911  11.622  20.840  0.00  0.00    +0.000 A 
ATOM      8  C   UNL     1      -0.277  10.948  19.782  0.00  0.00    +0.000 A 
ATOM      9  C   UNL     1       0.466   9.777  19.978  0.00  0.00    +0.000 A 
ATOM     10  C   UNL     1       0.606   9.237  21.255  0.00  0.00    +0.000 A 
ATOM     11  C   UNL     1      -0.021   9.862  22.327  0.00  0.00    +0.000 A 
ATOM     12  C   UNL     1      -0.765  11.037  22.113  0.00  0.00    +0.000 A 
BRANCH   7  14
ATOM     13  C   UNL     1      -0.968  14.024  20.225  0.00  0.00    +0.000 C 
ATOM     14  N   UNL     1      -1.634  12.793  20.638  0.00  0.00    +0.000 N 
ATOM     15  C   UNL     1      -3.064  12.858  20.907  0.00  0.00    +0.000 C 
ENDBRANCH   7  14
ENDBRANCH   5  10
ENDBRANCH   1   6
BRANCH   2  16
ATOM     16  C   UNL     1       2.578   3.609  21.109  0.00  0.00    +0.000 C 
BRANCH  16  17
ATOM     17  N   UNL     1       2.783   2.677  19.972  0.00  0.00    +0.000 NA
ATOM     18  C   UNL     1       2.285   3.248  18.686  0.00  0.00    +0.000 C 
ATOM     19  C   UNL     1       3.099   4.422  18.075  0.00  0.00    +0.000 C 
ATOM     20  N   UNL     1       4.511   4.033  17.984  0.00  0.00    +0.000 N 
ATOM     21  C   UNL     1       5.099   3.560  19.243  0.00  0.00    +0.000 C 
ATOM     22  C   UNL     1       4.241   2.396  19.806  0.00  0.00    +0.000 C 
BRANCH  20  23
ATOM     23  C   UNL     1       5.307   4.363  16.904  0.00  0.00    +0.000 A 
ATOM     24  C   UNL     1       4.988   3.996  15.588  0.00  0.00    +0.000 A 
ATOM     25  C   UNL     1       5.831   4.314  14.514  0.00  0.00    +0.000 A 
ATOM     26  C   UNL     1       7.014   4.998  14.750  0.00  0.00    +0.000 A 
ATOM     27  F   UNL     1       7.826   5.297  13.728  0.00  0.00    +0.000 F 
ATOM     28  C   UNL     1       7.369   5.368  16.036  0.00  0.00    +0.000 A 
ATOM     29  C   UNL     1       6.518   5.052  17.098  0.00  0.00    +0.000 A 
ENDBRANCH  20  23
ENDBRANCH  16  17
ENDBRANCH   2  16
TORSDOF 6
ENDMDL
