MODEL 1
REMARK VINA RESULT:      -8.1      0.000      0.000
REMARK  Name = 
REMARK  4 active torsions:
REMARK  status: ('A' for Active; 'I' for Inactive)
REMARK    1  A    between atoms: C_2  and  C_4
REMARK    2  A    between atoms: C_7  and  O_8
REMARK    3  A    between atoms: O_8  and  C_9
REMARK    4  A    between atoms: N_17  and  C_18
REMARK                            x       y       z     vdW  Elec       q    Type
REMARK                         _______ _______ _______ _____ _____    ______ ____
ROOT
ATOM      1  C   UNL     1       2.672   7.060  18.970  0.00  0.00    +0.000 A 
ATOM      2  C   UNL     1       2.624   7.878  17.844  0.00  0.00    +0.000 A 
ATOM      3  C   UNL     1       1.870   9.047  17.883  0.00  0.00    +0.000 A 
ATOM      4  C   UNL     1       1.188   9.455  19.048  0.00  0.00    +0.000 A 
ATOM      5  C   UNL     1       1.308   8.681  20.216  0.00  0.00    +0.000 A 
ATOM      6  C   UNL     1       2.056   7.483  20.150  0.00  0.00    +0.000 A 
ATOM      7  C   UNL     1       0.803   9.104  21.580  0.00  0.00    +0.000 C 
ATOM      8  C   UNL     1      -0.629   9.647  21.712  0.00  0.00    +0.000 C 
ATOM      9  N   UNL     1      -0.968  10.927  21.077  0.00  0.00    +0.000 NA
ATOM     10  C   UNL     1      -0.927  10.814  19.617  0.00  0.00    +0.000 C 
ATOM     11  C   UNL     1       0.451  10.768  18.961  0.00  0.00    +0.000 C 
ENDROOT
BRANCH   9  12
ATOM     12  C   UNL     1      -0.174  12.049  21.612  0.00  0.00    +0.000 C 
ATOM     13  C   UNL     1      -0.496  13.372  20.868  0.00  0.00    +0.000 C 
ATOM     14  C   UNL     1      -0.679  14.049  22.232  0.00  0.00    +0.000 C 
ATOM     15  C   UNL     1      -0.905  12.651  22.839  0.00  0.00    +0.000 C 
ENDBRANCH   9  12
BRANCH   1  16
ATOM     16  O   UNL     1       3.363   5.873  19.028  0.00  0.00    +0.000 OA
BRANCH  16  20
ATOM     17  C   UNL     1       5.773   4.851  15.834  0.00  0.00    +0.000 A 
ATOM     18  C   UNL     1       4.693   4.019  16.123  0.00  0.00    +0.000 A 
ATOM     19  C   UNL     1       3.873   4.320  17.213  0.00  0.00    +0.000 A 
ATOM     20  C   UNL     1       4.126   5.477  17.949  0.00  0.00    +0.000 A 
ATOM     21  N   UNL     1       5.187   6.277  17.700  0.00  0.00    +0.000 NA
ATOM     22  C   UNL     1       5.994   5.940  16.663  0.00  0.00    +0.000 A 
BRANCH  17  24
ATOM     23  N   UNL     1       6.401   3.577  13.863  0.00  0.00    +0.000 N 
ATOM     24  C   UNL     1       6.701   4.605  14.711  0.00  0.00    +0.000 C 
ATOM     25  O   UNL     1       7.674   5.321  14.521  0.00  0.00    +0.000 OA
ATOM     26  H   UNL     1       6.989   3.492  13.041  0.00  0.00    +0.000 HD
ATOM     27  H   UNL     1       5.492   3.137  13.832  0.00  0.00    +0.000 HD
ENDBRANCH  17  24
ENDBRANCH  16  20
ENDBRANCH   1  16
TORSDOF 4
ENDMDL
MODEL 2
REMARK VINA RESULT:      -8.0      1.178      1.210
REMARK  Name = 
REMARK  4 active torsions:
REMARK  status: ('A' for Active; 'I' for Inactive)
REMARK    1  A    between atoms: C_2  and  C_4
REMARK    2  A    between atoms: C_7  and  O_8
REMARK    3  A    between atoms: O_8  and  C_9
REMARK    4  A    between atoms: N_17  and  C_18
REMARK                            x       y       z     vdW  Elec       q    Type
REMARK                         _______ _______ _______ _____ _____    ______ ____
ROOT
ATOM      1  C   UNL     1       2.167   7.182  19.409  0.00  0.00    +0.000 A 
ATOM      2  C   UNL     1       2.206   7.875  18.203  0.00  0.00    +0.000 A 
ATOM      3  C   UNL     1       1.585   9.117  18.110  0.00  0.00    +0.000 A 
ATOM      4  C   UNL     1       0.955   9.719  19.219  0.00  0.00    +0.000 A 
ATOM      5  C   UNL     1       0.993   9.065  20.464  0.00  0.00    +0.000 A 
ATOM      6  C   UNL     1       1.605   7.793  20.532  0.00  0.00    +0.000 A 
ATOM      7  C   UNL     1       0.541   9.685  21.771  0.00  0.00    +0.000 C 
ATOM      8  C   UNL     1      -0.823  10.391  21.832  0.00  0.00    +0.000 C 
ATOM      9  N   UNL     1      -1.021  11.626  21.062  0.00  0.00    +0.000 NA
ATOM     10  C   UNL     1      -0.997  11.354  19.622  0.00  0.00    +0.000 C 
ATOM     11  C   UNL     1       0.366  11.088  18.986  0.00  0.00    +0.000 C 
ENDROOT
BRANCH   9  12
ATOM     12  C   UNL     1      -0.107  12.705  21.481  0.00  0.00    +0.000 C 
ATOM     13  C   UNL     1      -0.438  14.037  20.757  0.00  0.00    +0.000 C 
ATOM     14  C   UNL     1      -0.421  14.737  22.121  0.00  0.00    +0.000 C 
ATOM     15  C   UNL     1      -0.653  13.360  22.775  0.00  0.00    +0.000 C 
ENDBRANCH   9  12
BRANCH   1  16
ATOM     16  O   UNL     1       2.724   5.939  19.599  0.00  0.00    +0.000 OA
BRANCH  16  20
ATOM     17  C   UNL     1       6.044   4.847  17.400  0.00  0.00    +0.000 A 
ATOM     18  C   UNL     1       4.794   4.463  16.919  0.00  0.00    +0.000 A 
ATOM     19  C   UNL     1       3.651   4.792  17.651  0.00  0.00    +0.000 A 
ATOM     20  C   UNL     1       3.790   5.545  18.817  0.00  0.00    +0.000 A 
ATOM     21  N   UNL     1       4.997   5.898  19.313  0.00  0.00    +0.000 NA
ATOM     22  C   UNL     1       6.095   5.529  18.605  0.00  0.00    +0.000 A 
BRANCH  17  24
ATOM     23  N   UNL     1       7.369   4.807  15.364  0.00  0.00    +0.000 N 
ATOM     24  C   UNL     1       7.307   4.532  16.700  0.00  0.00    +0.000 C 
ATOM     25  O   UNL     1       8.273   4.085  17.301  0.00  0.00    +0.000 OA
ATOM     26  H   UNL     1       8.275   4.684  14.925  0.00  0.00    +0.000 HD
ATOM     27  H   UNL     1       6.702   5.402  14.893  0.00  0.00    +0.000 HD
ENDBRANCH  17  24
ENDBRANCH  16  20
ENDBRANCH   1  16
TORSDOF 4
ENDMDL
MODEL 3
REMARK VINA RESULT:      -7.9      0.568      1.002
REMARK  Name = 
REMARK  4 active torsions:
REMARK  status: ('A' for Active; 'I' for Inactive)
REMARK    1  A    between atoms: C_2  and  C_4
REMARK    2  A    between atoms: C_7  and  O_8
REMARK    3  A    between atoms: O_8  and  C_9
REMARK    4  A    between atoms: N_17  and  C_18
REMARK                            x       y       z     vdW  Elec       q    Type
REMARK                         _______ _______ _______ _____ _____    ______ ____
ROOT
ATOM      1  C   UNL     1       2.561   7.307  18.862  0.00  0.00    +0.000 A 
ATOM      2  C   UNL     1       2.428   8.095  17.723  0.00  0.00    +0.000 A 
ATOM      3  C   UNL     1       1.649   9.247  17.779  0.00  0.00    +0.000 A 
ATOM      4  C   UNL     1       1.025   9.667  18.972  0.00  0.00    +0.000 A 
ATOM      5  C   UNL     1       1.232   8.925  20.148  0.00  0.00    +0.000 A 
ATOM      6  C   UNL     1       2.004   7.744  20.067  0.00  0.00    +0.000 A 
ATOM      7  C   UNL     1       0.796   9.369  21.530  0.00  0.00    +0.000 C 
ATOM      8  C   UNL     1      -0.639   9.880  21.733  0.00  0.00    +0.000 C 
ATOM      9  N   UNL     1      -1.046  11.137  21.090  0.00  0.00    +0.000 NA
ATOM     10  C   UNL     1      -1.087  10.989  19.633  0.00  0.00    +0.000 C 
ATOM     11  C   UNL     1       0.252  10.960  18.898  0.00  0.00    +0.000 C 
ENDROOT
BRANCH   9  12
ATOM     12  C   UNL     1      -0.251  12.290  21.552  0.00  0.00    +0.000 C 
ATOM     13  C   UNL     1      -0.736  13.608  20.893  0.00  0.00    +0.000 C 
ATOM     14  C   UNL     1      -0.778  14.244  22.288  0.00  0.00    +0.000 C 
ATOM     15  C   UNL     1      -0.849  12.822  22.879  0.00  0.00    +0.000 C 
ENDBRANCH   9  12
BRANCH   1  16
ATOM     16  O   UNL     1       3.284   6.138  18.907  0.00  0.00    +0.000 OA
BRANCH  16  20
ATOM     17  C   UNL     1       5.881   5.145  15.854  0.00  0.00    +0.000 A 
ATOM     18  C   UNL     1       6.176   6.275  16.614  0.00  0.00    +0.000 A 
ATOM     19  C   UNL     1       5.305   6.656  17.637  0.00  0.00    +0.000 A 
ATOM     20  C   UNL     1       4.192   5.861  17.906  0.00  0.00    +0.000 A 
ATOM     21  N   UNL     1       3.876   4.779  17.159  0.00  0.00    +0.000 NA
ATOM     22  C   UNL     1       4.715   4.455  16.143  0.00  0.00    +0.000 A 
BRANCH  17  24
ATOM     23  N   UNL     1       6.356   3.533  14.099  0.00  0.00    +0.000 N 
ATOM     24  C   UNL     1       6.737   4.675  14.745  0.00  0.00    +0.000 C 
ATOM     25  O   UNL     1       7.723   5.305  14.390  0.00  0.00    +0.000 OA
ATOM     26  H   UNL     1       6.893   3.287  13.276  0.00  0.00    +0.000 HD
ATOM     27  H   UNL     1       5.431   3.134  14.187  0.00  0.00    +0.000 HD
ENDBRANCH  17  24
ENDBRANCH  16  20
ENDBRANCH   1  16
TORSDOF 4
ENDMDL
MODEL 4
REMARK VINA RESULT:      -7.9      2.633      3.459
REMARK  Name = 
REMARK  4 active torsions:
REMARK  status: ('A' for Active; 'I' for Inactive)
REMARK    1  A    between atoms: C_2  and  C_4
REMARK    2  A    between atoms: C_7  and  O_8
REMARK    3  A    between atoms: O_8  and  C_9
REMARK    4  A    between atoms: N_17  and  C_18
REMARK                            x       y       z     vdW  Elec       q    Type
REMARK                         _______ _______ _______ _____ _____    ______ ____
ROOT
ATOM      1  C   UNL     1       1.837   8.170  19.151  0.00  0.00    +0.000 A 
ATOM      2  C   UNL     1       1.787   7.769  20.483  0.00  0.00    +0.000 A 
ATOM      3  C   UNL     1       1.074   8.538  21.399  0.00  0.00    +0.000 A 
ATOM      4  C   UNL     1       0.360   9.690  21.009  0.00  0.00    +0.000 A 
ATOM      5  C   UNL     1       0.331  10.047  19.649  0.00  0.00    +0.000 A 
ATOM      6  C   UNL     1       1.082   9.270  18.738  0.00  0.00    +0.000 A 
ATOM      7  C   UNL     1      -0.555  11.130  19.066  0.00  0.00    +0.000 C 
ATOM      8  C   UNL     1      -0.604  12.505  19.750  0.00  0.00    +0.000 C 
ATOM      9  N   UNL     1      -1.185  12.612  21.095  0.00  0.00    +0.000 NA
ATOM     10  C   UNL     1      -0.350  11.924  22.082  0.00  0.00    +0.000 C 
ATOM     11  C   UNL     1      -0.406  10.397  22.098  0.00  0.00    +0.000 C 
ENDROOT
BRANCH   9  12
ATOM     12  C   UNL     1      -2.604  12.212  21.129  0.00  0.00    +0.000 C 
ATOM     13  C   UNL     1      -3.261  12.580  22.486  0.00  0.00    +0.000 C 
ATOM     14  C   UNL     1      -4.410  13.232  21.708  0.00  0.00    +0.000 C 
ATOM     15  C   UNL     1      -3.465  13.333  20.494  0.00  0.00    +0.000 C 
ENDBRANCH   9  12
BRANCH   1  16
ATOM     16  O   UNL     1       2.533   7.499  18.174  0.00  0.00    +0.000 OA
BRANCH  16  20
ATOM     17  C   UNL     1       3.555   3.541  18.760  0.00  0.00    +0.000 A 
ATOM     18  C   UNL     1       2.336   3.811  18.141  0.00  0.00    +0.000 A 
ATOM     19  C   UNL     1       1.946   5.138  17.951  0.00  0.00    +0.000 A 
ATOM     20  C   UNL     1       2.815   6.159  18.338  0.00  0.00    +0.000 A 
ATOM     21  N   UNL     1       3.987   5.914  18.966  0.00  0.00    +0.000 NA
ATOM     22  C   UNL     1       4.323   4.616  19.178  0.00  0.00    +0.000 A 
BRANCH  17  24
ATOM     23  N   UNL     1       4.938   2.001  20.031  0.00  0.00    +0.000 N 
ATOM     24  C   UNL     1       4.043   2.170  19.014  0.00  0.00    +0.000 C 
ATOM     25  O   UNL     1       3.629   1.217  18.369  0.00  0.00    +0.000 OA
ATOM     26  H   UNL     1       5.179   1.043  20.259  0.00  0.00    +0.000 HD
ATOM     27  H   UNL     1       5.104   2.702  20.740  0.00  0.00    +0.000 HD
ENDBRANCH  17  24
ENDBRANCH  16  20
ENDBRANCH   1  16
TORSDOF 4
ENDMDL
MODEL 5
REMARK VINA RESULT:      -7.8      3.061      4.395
REMARK  Name = 
REMARK  4 active torsions:
REMARK  status: ('A' for Active; 'I' for Inactive)
REMARK    1  A    between atoms: C_2  and  C_4
REMARK    2  A    between atoms: C_7  and  O_8
REMARK    3  A    between atoms: O_8  and  C_9
REMARK    4  A    between atoms: N_17  and  C_18
REMARK                            x       y       z     vdW  Elec       q    Type
REMARK                         _______ _______ _______ _____ _____    ______ ____
ROOT
ATOM      1  C   UNL     1       1.516   8.653  20.498  0.00  0.00    +0.000 A 
ATOM      2  C   UNL     1       1.414   8.494  21.877  0.00  0.00    +0.000 A 
ATOM      3  C   UNL     1       0.567   9.330  22.598  0.00  0.00    +0.000 A 
ATOM      4  C   UNL     1      -0.230  10.308  21.966  0.00  0.00    +0.000 A 
ATOM      5  C   UNL     1      -0.200  10.410  20.564  0.00  0.00    +0.000 A 
ATOM      6  C   UNL     1       0.685   9.571  19.851  0.00  0.00    +0.000 A 
ATOM      7  C   UNL     1      -1.147  11.266  19.748  0.00  0.00    +0.000 C 
ATOM      8  C   UNL     1      -1.381  12.728  20.162  0.00  0.00    +0.000 C 
ATOM      9  N   UNL     1      -2.061  13.009  21.432  0.00  0.00    +0.000 NA
ATOM     10  C   UNL     1      -1.232  12.605  22.571  0.00  0.00    +0.000 C 
ATOM     11  C   UNL     1      -1.137  11.109  22.866  0.00  0.00    +0.000 C 
ENDROOT
BRANCH   9  12
ATOM     12  C   UNL     1      -3.432  12.466  21.470  0.00  0.00    +0.000 C 
ATOM     13  C   UNL     1      -4.258  13.101  22.619  0.00  0.00    +0.000 C 
ATOM     14  C   UNL     1      -5.376  13.382  21.608  0.00  0.00    +0.000 C 
ATOM     15  C   UNL     1      -4.324  13.268  20.488  0.00  0.00    +0.000 C 
ENDBRANCH   9  12
BRANCH   1  16
ATOM     16  O   UNL     1       2.342   7.899  19.697  0.00  0.00    +0.000 OA
BRANCH  16  20
ATOM     17  C   UNL     1       1.583   3.912  18.936  0.00  0.00    +0.000 A 
ATOM     18  C   UNL     1       1.410   4.367  20.241  0.00  0.00    +0.000 A 
ATOM     19  C   UNL     1       1.683   5.703  20.540  0.00  0.00    +0.000 A 
ATOM     20  C   UNL     1       2.070   6.560  19.510  0.00  0.00    +0.000 A 
ATOM     21  N   UNL     1       2.272   6.128  18.245  0.00  0.00    +0.000 NA
ATOM     22  C   UNL     1       2.041   4.815  17.989  0.00  0.00    +0.000 A 
BRANCH  17  24
ATOM     23  N   UNL     1       2.416   1.748  18.212  0.00  0.00    +0.000 N 
ATOM     24  C   UNL     1       1.331   2.514  18.530  0.00  0.00    +0.000 C 
ATOM     25  O   UNL     1       0.200   2.048  18.521  0.00  0.00    +0.000 OA
ATOM     26  H   UNL     1       2.232   0.765  18.040  0.00  0.00    +0.000 HD
ATOM     27  H   UNL     1       3.362   2.008  18.450  0.00  0.00    +0.000 HD
ENDBRANCH  17  24
ENDBRANCH  16  20
ENDBRANCH   1  16
TORSDOF 4
ENDMDL
MODEL 6
REMARK VINA RESULT:      -7.8      3.472      8.970
REMARK  Name = 
REMARK  4 active torsions:
REMARK  status: ('A' for Active; 'I' for Inactive)
REMARK    1  A    between atoms: C_2  and  C_4
REMARK    2  A    between atoms: C_7  and  O_8
REMARK    3  A    between atoms: O_8  and  C_9
REMARK    4  A    between atoms: N_17  and  C_18
REMARK                            x       y       z     vdW  Elec       q    Type
REMARK                         _______ _______ _______ _____ _____    ______ ____
ROOT
ATOM      1  C   UNL     1       1.105   9.622  19.309  0.00  0.00    +0.000 A 
ATOM      2  C   UNL     1       1.796   9.755  18.108  0.00  0.00    +0.000 A 
ATOM      3  C   UNL     1       2.601   8.708  17.666  0.00  0.00    +0.000 A 
ATOM      4  C   UNL     1       2.700   7.494  18.377  0.00  0.00    +0.000 A 
ATOM      5  C   UNL     1       1.932   7.320  19.542  0.00  0.00    +0.000 A 
ATOM      6  C   UNL     1       1.142   8.403  19.989  0.00  0.00    +0.000 A 
ATOM      7  C   UNL     1       1.786   6.007  20.283  0.00  0.00    +0.000 C 
ATOM      8  C   UNL     1       3.045   5.192  20.617  0.00  0.00    +0.000 C 
ATOM      9  N   UNL     1       3.824   4.602  19.520  0.00  0.00    +0.000 NA
ATOM     10  C   UNL     1       4.464   5.644  18.713  0.00  0.00    +0.000 C 
ATOM     11  C   UNL     1       3.570   6.430  17.755  0.00  0.00    +0.000 C 
ENDROOT
BRANCH   9  12
ATOM     12  C   UNL     1       3.041   3.631  18.731  0.00  0.00    +0.000 C 
ATOM     13  C   UNL     1       3.948   2.838  17.754  0.00  0.00    +0.000 C 
ATOM     14  C   UNL     1       3.310   1.544  18.275  0.00  0.00    +0.000 C 
ATOM     15  C   UNL     1       2.893   2.318  19.541  0.00  0.00    +0.000 C 
ENDBRANCH   9  12
BRANCH   1  16
ATOM     16  O   UNL     1       0.307  10.604  19.847  0.00  0.00    +0.000 OA
BRANCH  16  20
ATOM     17  C   UNL     1      -3.460  11.449  18.383  0.00  0.00    +0.000 A 
ATOM     18  C   UNL     1      -2.737  10.432  17.764  0.00  0.00    +0.000 A 
ATOM     19  C   UNL     1      -1.449  10.137  18.216  0.00  0.00    +0.000 A 
ATOM     20  C   UNL     1      -0.943  10.835  19.312  0.00  0.00    +0.000 A 
ATOM     21  N   UNL     1      -1.619  11.845  19.904  0.00  0.00    +0.000 NA
ATOM     22  C   UNL     1      -2.851  12.141  19.419  0.00  0.00    +0.000 A 
BRANCH  17  24
ATOM     23  N   UNL     1      -5.227  11.462  16.716  0.00  0.00    +0.000 N 
ATOM     24  C   UNL     1      -4.823  11.839  17.965  0.00  0.00    +0.000 C 
ATOM     25  O   UNL     1      -5.575  12.436  18.722  0.00  0.00    +0.000 OA
ATOM     26  H   UNL     1      -6.199  11.644  16.489  0.00  0.00    +0.000 HD
ATOM     27  H   UNL     1      -4.747  10.761  16.170  0.00  0.00    +0.000 HD
ENDBRANCH  17  24
ENDBRANCH  16  20
ENDBRANCH   1  16
TORSDOF 4
ENDMDL
MODEL 7
REMARK VINA RESULT:      -7.7      2.652      3.777
REMARK  Name = 
REMARK  4 active torsions:
REMARK  status: ('A' for Active; 'I' for Inactive)
REMARK    1  A    between atoms: C_2  and  C_4
REMARK    2  A    between atoms: C_7  and  O_8
REMARK    3  A    between atoms: O_8  and  C_9
REMARK    4  A    between atoms: N_17  and  C_18
REMARK                            x       y       z     vdW  Elec       q    Type
REMARK                         _______ _______ _______ _____ _____    ______ ____
ROOT
ATOM      1  C   UNL     1       1.939   8.336  18.655  0.00  0.00    +0.000 A 
ATOM      2  C   UNL     1       1.874   8.298  20.045  0.00  0.00    +0.000 A 
ATOM      3  C   UNL     1       0.960   9.113  20.707  0.00  0.00    +0.000 A 
ATOM      4  C   UNL     1       0.061   9.944  20.007  0.00  0.00    +0.000 A 
ATOM      5  C   UNL     1       0.058   9.916  18.602  0.00  0.00    +0.000 A 
ATOM      6  C   UNL     1       1.011   9.104  17.947  0.00  0.00    +0.000 A 
ATOM      7  C   UNL     1      -0.982  10.596  17.733  0.00  0.00    +0.000 C 
ATOM      8  C   UNL     1      -1.352  12.060  18.017  0.00  0.00    +0.000 C 
ATOM      9  N   UNL     1      -2.038  12.392  19.273  0.00  0.00    +0.000 NA
ATOM     10  C   UNL     1      -1.155  12.179  20.422  0.00  0.00    +0.000 C 
ATOM     11  C   UNL     1      -0.907  10.734  20.852  0.00  0.00    +0.000 C 
ENDROOT
BRANCH   9  12
ATOM     12  C   UNL     1      -3.347  11.725  19.394  0.00  0.00    +0.000 C 
ATOM     13  C   UNL     1      -4.376  12.631  20.119  0.00  0.00    +0.000 C 
ATOM     14  C   UNL     1      -5.365  12.352  18.981  0.00  0.00    +0.000 C 
ATOM     15  C   UNL     1      -4.163  11.965  18.098  0.00  0.00    +0.000 C 
ENDBRANCH   9  12
BRANCH   1  16
ATOM     16  O   UNL     1       2.823   7.594  17.907  0.00  0.00    +0.000 OA
BRANCH  16  20
ATOM     17  C   UNL     1       3.562   3.641  18.846  0.00  0.00    +0.000 A 
ATOM     18  C   UNL     1       2.306   3.962  18.333  0.00  0.00    +0.000 A 
ATOM     19  C   UNL     1       2.013   5.293  18.030  0.00  0.00    +0.000 A 
ATOM     20  C   UNL     1       3.005   6.258  18.198  0.00  0.00    +0.000 A 
ATOM     21  N   UNL     1       4.217   5.968  18.722  0.00  0.00    +0.000 NA
ATOM     22  C   UNL     1       4.463   4.674  19.049  0.00  0.00    +0.000 A 
BRANCH  17  24
ATOM     23  N   UNL     1       3.420   1.245  18.473  0.00  0.00    +0.000 N 
ATOM     24  C   UNL     1       3.957   2.264  19.207  0.00  0.00    +0.000 C 
ATOM     25  O   UNL     1       4.765   2.046  20.098  0.00  0.00    +0.000 OA
ATOM     26  H   UNL     1       3.784   0.318  18.665  0.00  0.00    +0.000 HD
ATOM     27  H   UNL     1       2.963   1.389  17.583  0.00  0.00    +0.000 HD
ENDBRANCH  17  24
ENDBRANCH  16  20
ENDBRANCH   1  16
TORSDOF 4
ENDMDL
MODEL 8
REMARK VINA RESULT:      -7.6      3.109      4.544
REMARK  Name = 
REMARK  4 active torsions:
REMARK  status: ('A' for Active; 'I' for Inactive)
REMARK    1  A    between atoms: C_2  and  C_4
REMARK    2  A    between atoms: C_7  and  O_8
REMARK    3  A    between atoms: O_8  and  C_9
REMARK    4  A    between atoms: N_17  and  C_18
REMARK                            x       y       z     vdW  Elec       q    Type
REMARK                         _______ _______ _______ _____ _____    ______ ____
ROOT
ATOM      1  C   UNL     1       1.582   8.563  20.363  0.00  0.00    +0.000 A 
ATOM      2  C   UNL     1       1.320   8.897  21.688  0.00  0.00    +0.000 A 
ATOM      3  C   UNL     1       0.331   9.835  21.971  0.00  0.00    +0.000 A 
ATOM      4  C   UNL     1      -0.449  10.425  20.955  0.00  0.00    +0.000 A 
ATOM      5  C   UNL     1      -0.252  10.021  19.622  0.00  0.00    +0.000 A 
ATOM      6  C   UNL     1       0.775   9.088  19.351  0.00  0.00    +0.000 A 
ATOM      7  C   UNL     1      -1.149  10.415  18.466  0.00  0.00    +0.000 C 
ATOM      8  C   UNL     1      -1.537  11.892  18.290  0.00  0.00    +0.000 C 
ATOM      9  N   UNL     1      -2.390  12.530  19.301  0.00  0.00    +0.000 NA
ATOM     10  C   UNL     1      -1.682  12.657  20.578  0.00  0.00    +0.000 C 
ATOM     11  C   UNL     1      -1.517  11.387  21.411  0.00  0.00    +0.000 C 
ENDROOT
BRANCH   9  12
ATOM     12  C   UNL     1      -3.712  11.886  19.412  0.00  0.00    +0.000 C 
ATOM     13  C   UNL     1      -4.791  12.893  19.889  0.00  0.00    +0.000 C 
ATOM     14  C   UNL     1      -5.679  12.431  18.728  0.00  0.00    +0.000 C 
ATOM     15  C   UNL     1      -4.408  11.912  18.028  0.00  0.00    +0.000 C 
ENDBRANCH   9  12
BRANCH   1  16
ATOM     16  O   UNL     1       2.554   7.671  19.974  0.00  0.00    +0.000 OA
BRANCH  16  20
ATOM     17  C   UNL     1       1.606   3.759  19.054  0.00  0.00    +0.000 A 
ATOM     18  C   UNL     1       1.351   4.199  20.351  0.00  0.00    +0.000 A 
ATOM     19  C   UNL     1       1.684   5.508  20.704  0.00  0.00    +0.000 A 
ATOM     20  C   UNL     1       2.213   6.356  19.732  0.00  0.00    +0.000 A 
ATOM     21  N   UNL     1       2.494   5.936  18.478  0.00  0.00    +0.000 NA
ATOM     22  C   UNL     1       2.201   4.646  18.171  0.00  0.00    +0.000 A 
BRANCH  17  24
ATOM     23  N   UNL     1       2.351   1.536  18.416  0.00  0.00    +0.000 N 
ATOM     24  C   UNL     1       1.299   2.388  18.594  0.00  0.00    +0.000 C 
ATOM     25  O   UNL     1       0.147   2.018  18.421  0.00  0.00    +0.000 OA
ATOM     26  H   UNL     1       2.114   0.573  18.205  0.00  0.00    +0.000 HD
ATOM     27  H   UNL     1       3.274   1.715  18.788  0.00  0.00    +0.000 HD
ENDBRANCH  17  24
ENDBRANCH  16  20
ENDBRANCH   1  16
TORSDOF 4
ENDMDL
MODEL 9
REMARK VINA RESULT:      -7.5      3.157      4.616
REMARK  Name = 
REMARK  4 active torsions:
REMARK  status: ('A' for Active; 'I' for Inactive)
REMARK    1  A    between atoms: C_2  and  C_4
REMARK    2  A    between atoms: C_7  and  O_8
REMARK    3  A    between atoms: O_8  and  C_9
REMARK    4  A    between atoms: N_17  and  C_18
REMARK                            x       y       z     vdW  Elec       q    Type
REMARK                         _______ _______ _______ _____ _____    ______ ____
ROOT
ATOM      1  C   UNL     1       1.547   8.632  20.261  0.00  0.00    +0.000 A 
ATOM      2  C   UNL     1       1.188   9.026  21.546  0.00  0.00    +0.000 A 
ATOM      3  C   UNL     1       0.144   9.932  21.714  0.00  0.00    +0.000 A 
ATOM      4  C   UNL     1      -0.595  10.428  20.620  0.00  0.00    +0.000 A 
ATOM      5  C   UNL     1      -0.297   9.961  19.328  0.00  0.00    +0.000 A 
ATOM      6  C   UNL     1       0.783   9.062  19.174  0.00  0.00    +0.000 A 
ATOM      7  C   UNL     1      -1.135  10.248  18.098  0.00  0.00    +0.000 C 
ATOM      8  C   UNL     1      -1.575  11.693  17.814  0.00  0.00    +0.000 C 
ATOM      9  N   UNL     1      -2.516  12.347  18.733  0.00  0.00    +0.000 NA
ATOM     10  C   UNL     1      -1.896  12.576  20.040  0.00  0.00    +0.000 C 
ATOM     11  C   UNL     1      -1.729  11.363  20.954  0.00  0.00    +0.000 C 
ENDROOT
BRANCH   9  12
ATOM     12  C   UNL     1      -3.814  11.649  18.801  0.00  0.00    +0.000 C 
ATOM     13  C   UNL     1      -4.928  12.584  19.340  0.00  0.00    +0.000 C 
ATOM     14  C   UNL     1      -5.800  12.165  18.151  0.00  0.00    +0.000 C 
ATOM     15  C   UNL     1      -4.512  11.737  17.420  0.00  0.00    +0.000 C 
ENDBRANCH   9  12
BRANCH   1  16
ATOM     16  O   UNL     1       2.579   7.765  19.984  0.00  0.00    +0.000 OA
BRANCH  16  20
ATOM     17  C   UNL     1       1.663   3.908  18.828  0.00  0.00    +0.000 A 
ATOM     18  C   UNL     1       2.172   4.771  17.860  0.00  0.00    +0.000 A 
ATOM     19  C   UNL     1       2.468   6.090  18.209  0.00  0.00    +0.000 A 
ATOM     20  C   UNL     1       2.296   6.493  19.533  0.00  0.00    +0.000 A 
ATOM     21  N   UNL     1       1.774   5.677  20.477  0.00  0.00    +0.000 NA
ATOM     22  C   UNL     1       1.454   4.412  20.102  0.00  0.00    +0.000 A 
BRANCH  17  24
ATOM     23  N   UNL     1       2.337   1.624  18.351  0.00  0.00    +0.000 N 
ATOM     24  C   UNL     1       1.309   2.501  18.547  0.00  0.00    +0.000 C 
ATOM     25  O   UNL     1       0.145   2.127  18.535  0.00  0.00    +0.000 OA
ATOM     26  H   UNL     1       2.079   0.647  18.266  0.00  0.00    +0.000 HD
ATOM     27  H   UNL     1       3.293   1.831  18.604  0.00  0.00    +0.000 HD
ENDBRANCH  17  24
ENDBRANCH  16  20
ENDBRANCH   1  16
TORSDOF 4
ENDMDL
