MODEL 1
REMARK VINA RESULT:      -8.8      0.000      0.000
REMARK  Name = 
REMARK  4 active torsions:
REMARK  status: ('A' for Active; 'I' for Inactive)
REMARK    1  A    between atoms: C_2  and  C_26
REMARK    2  A    between atoms: N_3  and  C_4
REMARK    3  A    between atoms: C_8  and  C_9
REMARK    4  A    between atoms: C_15  and  N_16
REMARK                            x       y       z     vdW  Elec       q    Type
REMARK                         _______ _______ _______ _____ _____    ______ ____
ROOT
ATOM      1  C   UNL     1       2.217   7.423  19.247  0.00  0.00    +0.000 A 
ATOM      2  N   UNL     1       1.760   7.787  20.407  0.00  0.00    +0.000 NA
ATOM      3  N   UNL     1       1.115   8.994  20.282  0.00  0.00    +0.000 N 
ATOM      4  C   UNL     1       0.562   9.640  21.357  0.00  0.00    +0.000 A 
ATOM      5  O   UNL     1       0.552   9.250  22.520  0.00  0.00    +0.000 OA
ATOM      6  C   UNL     1      -0.068  10.928  21.009  0.00  0.00    +0.000 A 
ATOM      7  C   UNL     1      -0.073  11.396  19.744  0.00  0.00    +0.000 A 
ATOM      8  N   UNL     1       0.543  10.686  18.729  0.00  0.00    +0.000 NA
ATOM      9  C   UNL     1       1.079   9.559  19.043  0.00  0.00    +0.000 A 
ATOM     10  S   UNL     1       1.881   8.519  17.914  0.00  0.00    +0.000 S 
ENDROOT
BRANCH   7  11
ATOM     11  N   UNL     1      -0.698  12.610  19.449  0.00  0.00    +0.000 N 
ATOM     12  C   UNL     1      -1.841  13.122  20.234  0.00  0.00    +0.000 C 
ATOM     13  C   UNL     1      -1.575  14.559  20.732  0.00  0.00    +0.000 C 
ATOM     14  N   UNL     1      -1.201  15.498  19.655  0.00  0.00    +0.000 NA
ATOM     15  C   UNL     1      -0.054  14.947  18.911  0.00  0.00    +0.000 C 
ATOM     16  C   UNL     1      -0.307  13.526  18.360  0.00  0.00    +0.000 C 
ATOM     17  H   UNL     1      -0.927  16.388  20.073  0.00  0.00    +0.000 HD
ENDBRANCH   7  11
BRANCH   1  22
ATOM     18  C   UNL     1       4.296   4.767  17.526  0.00  0.00    +0.000 A 
ATOM     19  C   UNL     1       4.391   3.810  18.541  0.00  0.00    +0.000 A 
ATOM     20  C   UNL     1       3.802   4.023  19.785  0.00  0.00    +0.000 A 
ATOM     21  C   UNL     1       3.103   5.200  20.034  0.00  0.00    +0.000 A 
ATOM     22  C   UNL     1       3.003   6.181  19.042  0.00  0.00    +0.000 A 
ATOM     23  C   UNL     1       3.627   5.969  17.795  0.00  0.00    +0.000 A 
BRANCH  18  26
ATOM     24  O   UNL     1       6.984   5.404  16.561  0.00  0.00    +0.000 OA
ATOM     25  C   UNL     1       6.117   4.915  15.845  0.00  0.00    +0.000 C 
ATOM     26  N   UNL     1       4.833   4.560  16.232  0.00  0.00    +0.000 N 
ATOM     27  H   UNL     1       4.302   3.964  15.608  0.00  0.00    +0.000 HD
BRANCH  25  28
ATOM     28  C   UNL     1       6.499   4.602  14.448  0.00  0.00    +0.000 A 
ATOM     29  C   UNL     1       7.536   5.344  13.879  0.00  0.00    +0.000 A 
ATOM     30  C   UNL     1       7.862   5.102  12.559  0.00  0.00    +0.000 A 
ATOM     31  N   UNL     1       7.225   4.191  11.794  0.00  0.00    +0.000 NA
ATOM     32  C   UNL     1       6.212   3.502  12.366  0.00  0.00    +0.000 A 
ATOM     33  C   UNL     1       5.812   3.664  13.681  0.00  0.00    +0.000 A 
ENDBRANCH  25  28
ENDBRANCH  18  26
ENDBRANCH   1  22
TORSDOF 4
ENDMDL
MODEL 2
REMARK VINA RESULT:      -8.2      1.720      2.359
REMARK  Name = 
REMARK  4 active torsions:
REMARK  status: ('A' for Active; 'I' for Inactive)
REMARK    1  A    between atoms: C_2  and  C_26
REMARK    2  A    between atoms: N_3  and  C_4
REMARK    3  A    between atoms: C_8  and  C_9
REMARK    4  A    between atoms: C_15  and  N_16
REMARK                            x       y       z     vdW  Elec       q    Type
REMARK                         _______ _______ _______ _____ _____    ______ ____
ROOT
ATOM      1  C   UNL     1       2.281   7.121  19.477  0.00  0.00    +0.000 A 
ATOM      2  N   UNL     1       2.335   8.161  18.700  0.00  0.00    +0.000 NA
ATOM      3  N   UNL     1       1.565   9.166  19.233  0.00  0.00    +0.000 N 
ATOM      4  C   UNL     1       1.406  10.374  18.605  0.00  0.00    +0.000 A 
ATOM      5  O   UNL     1       1.910  10.719  17.541  0.00  0.00    +0.000 OA
ATOM      6  C   UNL     1       0.528  11.307  19.338  0.00  0.00    +0.000 A 
ATOM      7  C   UNL     1      -0.051  10.965  20.507  0.00  0.00    +0.000 A 
ATOM      8  N   UNL     1       0.142   9.707  21.046  0.00  0.00    +0.000 NA
ATOM      9  C   UNL     1       0.919   8.906  20.404  0.00  0.00    +0.000 A 
ATOM     10  S   UNL     1       1.299   7.298  20.924  0.00  0.00    +0.000 S 
ENDROOT
BRANCH   7  11
ATOM     11  N   UNL     1      -0.860  11.883  21.182  0.00  0.00    +0.000 N 
ATOM     12  C   UNL     1      -1.773  12.804  20.472  0.00  0.00    +0.000 C 
ATOM     13  C   UNL     1      -3.212  12.693  21.019  0.00  0.00    +0.000 C 
ATOM     14  N   UNL     1      -3.303  12.870  22.483  0.00  0.00    +0.000 NA
ATOM     15  C   UNL     1      -2.384  11.925  23.141  0.00  0.00    +0.000 C 
ATOM     16  C   UNL     1      -0.925  12.042  22.647  0.00  0.00    +0.000 C 
ATOM     17  H   UNL     1      -4.257  12.665  22.782  0.00  0.00    +0.000 HD
ENDBRANCH   7  11
BRANCH   1  22
ATOM     18  C   UNL     1       4.186   4.480  17.545  0.00  0.00    +0.000 A 
ATOM     19  C   UNL     1       4.178   3.427  18.464  0.00  0.00    +0.000 A 
ATOM     20  C   UNL     1       3.576   3.567  19.711  0.00  0.00    +0.000 A 
ATOM     21  C   UNL     1       2.967   4.768  20.061  0.00  0.00    +0.000 A 
ATOM     22  C   UNL     1       2.971   5.845  19.167  0.00  0.00    +0.000 A 
ATOM     23  C   UNL     1       3.608   5.702  17.917  0.00  0.00    +0.000 A 
BRANCH  18  26
ATOM     24  O   UNL     1       6.710   5.569  16.540  0.00  0.00    +0.000 OA
ATOM     25  C   UNL     1       5.935   4.925  15.840  0.00  0.00    +0.000 C 
ATOM     26  N   UNL     1       4.738   4.355  16.247  0.00  0.00    +0.000 N 
ATOM     27  H   UNL     1       4.315   3.665  15.637  0.00  0.00    +0.000 HD
BRANCH  25  28
ATOM     28  C   UNL     1       6.353   4.666  14.442  0.00  0.00    +0.000 A 
ATOM     29  C   UNL     1       5.643   3.703  13.722  0.00  0.00    +0.000 A 
ATOM     30  C   UNL     1       6.059   3.411  12.439  0.00  0.00    +0.000 A 
ATOM     31  N   UNL     1       7.119   4.005  11.851  0.00  0.00    +0.000 NA
ATOM     32  C   UNL     1       7.799   4.919  12.578  0.00  0.00    +0.000 A 
ATOM     33  C   UNL     1       7.459   5.288  13.868  0.00  0.00    +0.000 A 
ENDBRANCH  25  28
ENDBRANCH  18  26
ENDBRANCH   1  22
TORSDOF 4
ENDMDL
MODEL 3
REMARK VINA RESULT:      -8.2      3.693     11.694
REMARK  Name = 
REMARK  4 active torsions:
REMARK  status: ('A' for Active; 'I' for Inactive)
REMARK    1  A    between atoms: C_2  and  C_26
REMARK    2  A    between atoms: N_3  and  C_4
REMARK    3  A    between atoms: C_8  and  C_9
REMARK    4  A    between atoms: C_15  and  N_16
REMARK                            x       y       z     vdW  Elec       q    Type
REMARK                         _______ _______ _______ _____ _____    ______ ____
ROOT
ATOM      1  C   UNL     1       0.656   9.895  20.508  0.00  0.00    +0.000 A 
ATOM      2  N   UNL     1       1.212   9.715  19.348  0.00  0.00    +0.000 NA
ATOM      3  N   UNL     1       1.669   8.422  19.259  0.00  0.00    +0.000 N 
ATOM      4  C   UNL     1       2.334   7.958  18.154  0.00  0.00    +0.000 A 
ATOM      5  O   UNL     1       2.593   8.590  17.135  0.00  0.00    +0.000 OA
ATOM      6  C   UNL     1       2.751   6.547  18.268  0.00  0.00    +0.000 A 
ATOM      7  C   UNL     1       2.493   5.819  19.373  0.00  0.00    +0.000 A 
ATOM      8  N   UNL     1       1.844   6.387  20.454  0.00  0.00    +0.000 NA
ATOM      9  C   UNL     1       1.474   7.614  20.338  0.00  0.00    +0.000 A 
ATOM     10  S   UNL     1       0.636   8.495  21.571  0.00  0.00    +0.000 S 
ENDROOT
BRANCH   7  11
ATOM     11  N   UNL     1       2.886   4.479  19.437  0.00  0.00    +0.000 N 
ATOM     12  C   UNL     1       2.140   3.472  20.220  0.00  0.00    +0.000 C 
ATOM     13  C   UNL     1       1.768   2.253  19.348  0.00  0.00    +0.000 C 
ATOM     14  N   UNL     1       2.925   1.646  18.658  0.00  0.00    +0.000 NA
ATOM     15  C   UNL     1       3.627   2.687  17.887  0.00  0.00    +0.000 C 
ATOM     16  C   UNL     1       4.052   3.902  18.741  0.00  0.00    +0.000 C 
ATOM     17  H   UNL     1       2.586   0.930  18.015  0.00  0.00    +0.000 HD
ENDBRANCH   7  11
BRANCH   1  22
ATOM     18  C   UNL     1      -1.797  12.449  21.849  0.00  0.00    +0.000 A 
ATOM     19  C   UNL     1      -1.073  13.629  21.664  0.00  0.00    +0.000 A 
ATOM     20  C   UNL     1       0.211  13.608  21.124  0.00  0.00    +0.000 A 
ATOM     21  C   UNL     1       0.792  12.398  20.755  0.00  0.00    +0.000 A 
ATOM     22  C   UNL     1       0.096  11.198  20.941  0.00  0.00    +0.000 A 
ATOM     23  C   UNL     1      -1.191  11.229  21.516  0.00  0.00    +0.000 A 
BRANCH  18  26
ATOM     24  O   UNL     1      -4.235  13.342  20.499  0.00  0.00    +0.000 OA
ATOM     25  C   UNL     1      -4.229  12.905  21.645  0.00  0.00    +0.000 C 
ATOM     26  N   UNL     1      -3.125  12.438  22.342  0.00  0.00    +0.000 N 
ATOM     27  H   UNL     1      -3.293  11.899  23.183  0.00  0.00    +0.000 HD
BRANCH  25  28
ATOM     28  C   UNL     1      -5.540  12.794  22.327  0.00  0.00    +0.000 A 
ATOM     29  C   UNL     1      -5.586  13.086  23.692  0.00  0.00    +0.000 A 
ATOM     30  C   UNL     1      -6.789  12.930  24.351  0.00  0.00    +0.000 A 
ATOM     31  N   UNL     1      -7.917  12.504  23.744  0.00  0.00    +0.000 NA
ATOM     32  C   UNL     1      -7.837  12.210  22.427  0.00  0.00    +0.000 A 
ATOM     33  C   UNL     1      -6.683  12.340  21.674  0.00  0.00    +0.000 A 
ENDBRANCH  25  28
ENDBRANCH  18  26
ENDBRANCH   1  22
TORSDOF 4
ENDMDL
MODEL 4
REMARK VINA RESULT:      -8.1      3.527     10.441
REMARK  Name = 
REMARK  4 active torsions:
REMARK  status: ('A' for Active; 'I' for Inactive)
REMARK    1  A    between atoms: C_2  and  C_26
REMARK    2  A    between atoms: N_3  and  C_4
REMARK    3  A    between atoms: C_8  and  C_9
REMARK    4  A    between atoms: C_15  and  N_16
REMARK                            x       y       z     vdW  Elec       q    Type
REMARK                         _______ _______ _______ _____ _____    ______ ____
ROOT
ATOM      1  C   UNL     1       0.573  10.050  20.673  0.00  0.00    +0.000 A 
ATOM      2  N   UNL     1       1.089   9.894  19.492  0.00  0.00    +0.000 NA
ATOM      3  N   UNL     1       1.616   8.628  19.391  0.00  0.00    +0.000 N 
ATOM      4  C   UNL     1       2.261   8.195  18.262  0.00  0.00    +0.000 A 
ATOM      5  O   UNL     1       2.440   8.834  17.230  0.00  0.00    +0.000 OA
ATOM      6  C   UNL     1       2.764   6.812  18.365  0.00  0.00    +0.000 A 
ATOM      7  C   UNL     1       2.595   6.078  19.484  0.00  0.00    +0.000 A 
ATOM      8  N   UNL     1       1.959   6.616  20.588  0.00  0.00    +0.000 NA
ATOM      9  C   UNL     1       1.514   7.819  20.482  0.00  0.00    +0.000 A 
ATOM     10  S   UNL     1       0.678   8.659  21.744  0.00  0.00    +0.000 S 
ENDROOT
BRANCH   7  11
ATOM     11  N   UNL     1       3.067   4.765  19.538  0.00  0.00    +0.000 N 
ATOM     12  C   UNL     1       2.507   3.760  20.466  0.00  0.00    +0.000 C 
ATOM     13  C   UNL     1       2.076   2.484  19.710  0.00  0.00    +0.000 C 
ATOM     14  N   UNL     1       3.146   1.903  18.873  0.00  0.00    +0.000 NA
ATOM     15  C   UNL     1       3.662   2.940  17.963  0.00  0.00    +0.000 C 
ATOM     16  C   UNL     1       4.144   4.213  18.693  0.00  0.00    +0.000 C 
ATOM     17  H   UNL     1       2.754   1.142  18.319  0.00  0.00    +0.000 HD
ENDBRANCH   7  11
BRANCH   1  22
ATOM     18  C   UNL     1      -0.514  13.677  20.673  0.00  0.00    +0.000 A 
ATOM     19  C   UNL     1      -1.071  13.784  21.951  0.00  0.00    +0.000 A 
ATOM     20  C   UNL     1      -1.113  12.688  22.809  0.00  0.00    +0.000 A 
ATOM     21  C   UNL     1      -0.595  11.462  22.402  0.00  0.00    +0.000 A 
ATOM     22  C   UNL     1      -0.044  11.322  21.124  0.00  0.00    +0.000 A 
ATOM     23  C   UNL     1      -0.031  12.430  20.252  0.00  0.00    +0.000 A 
BRANCH  18  26
ATOM     24  O   UNL     1       1.871  15.254  20.045  0.00  0.00    +0.000 OA
ATOM     25  C   UNL     1       0.766  15.497  19.570  0.00  0.00    +0.000 C 
ATOM     26  N   UNL     1      -0.402  14.783  19.796  0.00  0.00    +0.000 N 
ATOM     27  H   UNL     1      -1.182  14.949  19.171  0.00  0.00    +0.000 HD
BRANCH  25  28
ATOM     28  C   UNL     1       0.683  16.615  18.602  0.00  0.00    +0.000 A 
ATOM     29  C   UNL     1      -0.587  17.092  18.269  0.00  0.00    +0.000 A 
ATOM     30  C   UNL     1      -0.680  18.094  17.325  0.00  0.00    +0.000 A 
ATOM     31  N   UNL     1       0.393  18.629  16.705  0.00  0.00    +0.000 NA
ATOM     32  C   UNL     1       1.608  18.135  17.032  0.00  0.00    +0.000 A 
ATOM     33  C   UNL     1       1.809  17.138  17.970  0.00  0.00    +0.000 A 
ENDBRANCH  25  28
ENDBRANCH  18  26
ENDBRANCH   1  22
TORSDOF 4
ENDMDL
MODEL 5
REMARK VINA RESULT:      -8.1      1.715      2.153
REMARK  Name = 
REMARK  4 active torsions:
REMARK  status: ('A' for Active; 'I' for Inactive)
REMARK    1  A    between atoms: C_2  and  C_26
REMARK    2  A    between atoms: N_3  and  C_4
REMARK    3  A    between atoms: C_8  and  C_9
REMARK    4  A    between atoms: C_15  and  N_16
REMARK                            x       y       z     vdW  Elec       q    Type
REMARK                         _______ _______ _______ _____ _____    ______ ____
ROOT
ATOM      1  C   UNL     1       2.313   6.925  19.448  0.00  0.00    +0.000 A 
ATOM      2  N   UNL     1       2.323   7.957  18.659  0.00  0.00    +0.000 NA
ATOM      3  N   UNL     1       1.693   9.009  19.280  0.00  0.00    +0.000 N 
ATOM      4  C   UNL     1       1.523  10.221  18.665  0.00  0.00    +0.000 A 
ATOM      5  O   UNL     1       1.898  10.531  17.539  0.00  0.00    +0.000 OA
ATOM      6  C   UNL     1       0.809  11.208  19.497  0.00  0.00    +0.000 A 
ATOM      7  C   UNL     1       0.373  10.906  20.737  0.00  0.00    +0.000 A 
ATOM      8  N   UNL     1       0.562   9.640  21.260  0.00  0.00    +0.000 NA
ATOM      9  C   UNL     1       1.196   8.791  20.529  0.00  0.00    +0.000 A 
ATOM     10  S   UNL     1       1.547   7.166  21.012  0.00  0.00    +0.000 S 
ENDROOT
BRANCH   7  11
ATOM     11  N   UNL     1      -0.282  11.873  21.504  0.00  0.00    +0.000 N 
ATOM     12  C   UNL     1      -0.256  13.309  21.156  0.00  0.00    +0.000 C 
ATOM     13  C   UNL     1      -1.685  13.888  21.073  0.00  0.00    +0.000 C 
ATOM     14  N   UNL     1      -2.493  13.645  22.286  0.00  0.00    +0.000 NA
ATOM     15  C   UNL     1      -2.494  12.202  22.583  0.00  0.00    +0.000 C 
ATOM     16  C   UNL     1      -1.077  11.601  22.717  0.00  0.00    +0.000 C 
ATOM     17  H   UNL     1      -3.451  13.948  22.110  0.00  0.00    +0.000 HD
ENDBRANCH   7  11
BRANCH   1  22
ATOM     18  C   UNL     1       4.030   4.250  17.390  0.00  0.00    +0.000 A 
ATOM     19  C   UNL     1       3.856   3.134  18.214  0.00  0.00    +0.000 A 
ATOM     20  C   UNL     1       3.202   3.241  19.439  0.00  0.00    +0.000 A 
ATOM     21  C   UNL     1       2.706   4.471  19.860  0.00  0.00    +0.000 A 
ATOM     22  C   UNL     1       2.878   5.608  19.063  0.00  0.00    +0.000 A 
ATOM     23  C   UNL     1       3.567   5.495  17.838  0.00  0.00    +0.000 A 
BRANCH  18  26
ATOM     24  O   UNL     1       6.745   5.032  16.629  0.00  0.00    +0.000 OA
ATOM     25  C   UNL     1       5.931   4.585  15.829  0.00  0.00    +0.000 C 
ATOM     26  N   UNL     1       4.639   4.168  16.115  0.00  0.00    +0.000 N 
ATOM     27  H   UNL     1       4.159   3.614  15.416  0.00  0.00    +0.000 HD
BRANCH  25  28
ATOM     28  C   UNL     1       6.393   4.401  14.433  0.00  0.00    +0.000 A 
ATOM     29  C   UNL     1       7.445   5.205  13.988  0.00  0.00    +0.000 A 
ATOM     30  C   UNL     1       7.845   5.085  12.673  0.00  0.00    +0.000 A 
ATOM     31  N   UNL     1       7.268   4.236  11.797  0.00  0.00    +0.000 NA
ATOM     32  C   UNL     1       6.240   3.484  12.250  0.00  0.00    +0.000 A 
ATOM     33  C   UNL     1       5.768   3.524  13.551  0.00  0.00    +0.000 A 
ENDBRANCH  25  28
ENDBRANCH  18  26
ENDBRANCH   1  22
TORSDOF 4
ENDMDL
MODEL 6
REMARK VINA RESULT:      -8.0      0.730      1.140
REMARK  Name = 
REMARK  4 active torsions:
REMARK  status: ('A' for Active; 'I' for Inactive)
REMARK    1  A    between atoms: C_2  and  C_26
REMARK    2  A    between atoms: N_3  and  C_4
REMARK    3  A    between atoms: C_8  and  C_9
REMARK    4  A    between atoms: C_15  and  N_16
REMARK                            x       y       z     vdW  Elec       q    Type
REMARK                         _______ _______ _______ _____ _____    ______ ____
ROOT
ATOM      1  C   UNL     1       2.118   7.096  19.488  0.00  0.00    +0.000 A 
ATOM      2  N   UNL     1       1.494   7.329  20.603  0.00  0.00    +0.000 NA
ATOM      3  N   UNL     1       1.119   8.650  20.646  0.00  0.00    +0.000 N 
ATOM      4  C   UNL     1       0.472   9.189  21.727  0.00  0.00    +0.000 A 
ATOM      5  O   UNL     1       0.140   8.601  22.751  0.00  0.00    +0.000 OA
ATOM      6  C   UNL     1       0.173  10.627  21.577  0.00  0.00    +0.000 A 
ATOM      7  C   UNL     1       0.527  11.312  20.471  0.00  0.00    +0.000 A 
ATOM      8  N   UNL     1       1.210  10.687  19.444  0.00  0.00    +0.000 NA
ATOM      9  C   UNL     1       1.454   9.431  19.581  0.00  0.00    +0.000 A 
ATOM     10  S   UNL     1       2.281   8.469  18.402  0.00  0.00    +0.000 S 
ENDROOT
BRANCH   7  11
ATOM     11  N   UNL     1       0.209  12.668  20.356  0.00  0.00    +0.000 N 
ATOM     12  C   UNL     1       0.775  13.526  19.294  0.00  0.00    +0.000 C 
ATOM     13  C   UNL     1      -0.341  14.255  18.514  0.00  0.00    +0.000 C 
ATOM     14  N   UNL     1      -1.268  15.013  19.379  0.00  0.00    +0.000 NA
ATOM     15  C   UNL     1      -1.809  14.113  20.412  0.00  0.00    +0.000 C 
ATOM     16  C   UNL     1      -0.715  13.402  21.241  0.00  0.00    +0.000 C 
ATOM     17  H   UNL     1      -2.038  15.364  18.809  0.00  0.00    +0.000 HD
ENDBRANCH   7  11
BRANCH   1  22
ATOM     18  C   UNL     1       3.858   4.370  17.518  0.00  0.00    +0.000 A 
ATOM     19  C   UNL     1       3.691   3.280  18.376  0.00  0.00    +0.000 A 
ATOM     20  C   UNL     1       3.034   3.420  19.596  0.00  0.00    +0.000 A 
ATOM     21  C   UNL     1       2.529   4.659  19.978  0.00  0.00    +0.000 A 
ATOM     22  C   UNL     1       2.693   5.772  19.145  0.00  0.00    +0.000 A 
ATOM     23  C   UNL     1       3.385   5.626  17.925  0.00  0.00    +0.000 A 
BRANCH  18  26
ATOM     24  O   UNL     1       6.599   5.060  16.759  0.00  0.00    +0.000 OA
ATOM     25  C   UNL     1       5.775   4.627  15.961  0.00  0.00    +0.000 C 
ATOM     26  N   UNL     1       4.470   4.253  16.246  0.00  0.00    +0.000 N 
ATOM     27  H   UNL     1       3.976   3.704  15.552  0.00  0.00    +0.000 HD
BRANCH  25  28
ATOM     28  C   UNL     1       6.238   4.411  14.570  0.00  0.00    +0.000 A 
ATOM     29  C   UNL     1       7.347   5.140  14.136  0.00  0.00    +0.000 A 
ATOM     30  C   UNL     1       7.752   4.991  12.825  0.00  0.00    +0.000 A 
ATOM     31  N   UNL     1       7.126   4.183  11.943  0.00  0.00    +0.000 NA
ATOM     32  C   UNL     1       6.044   3.505  12.386  0.00  0.00    +0.000 A 
ATOM     33  C   UNL     1       5.562   3.578  13.681  0.00  0.00    +0.000 A 
ENDBRANCH  25  28
ENDBRANCH  18  26
ENDBRANCH   1  22
TORSDOF 4
ENDMDL
MODEL 7
REMARK VINA RESULT:      -8.0      1.611      2.072
REMARK  Name = 
REMARK  4 active torsions:
REMARK  status: ('A' for Active; 'I' for Inactive)
REMARK    1  A    between atoms: C_2  and  C_26
REMARK    2  A    between atoms: N_3  and  C_4
REMARK    3  A    between atoms: C_8  and  C_9
REMARK    4  A    between atoms: C_15  and  N_16
REMARK                            x       y       z     vdW  Elec       q    Type
REMARK                         _______ _______ _______ _____ _____    ______ ____
ROOT
ATOM      1  C   UNL     1       2.272   7.100  19.483  0.00  0.00    +0.000 A 
ATOM      2  N   UNL     1       2.307   8.147  18.715  0.00  0.00    +0.000 NA
ATOM      3  N   UNL     1       1.485   9.118  19.235  0.00  0.00    +0.000 N 
ATOM      4  C   UNL     1       1.297  10.324  18.612  0.00  0.00    +0.000 A 
ATOM      5  O   UNL     1       1.816  10.697  17.565  0.00  0.00    +0.000 OA
ATOM      6  C   UNL     1       0.365  11.217  19.327  0.00  0.00    +0.000 A 
ATOM      7  C   UNL     1      -0.232  10.843  20.477  0.00  0.00    +0.000 A 
ATOM      8  N   UNL     1      -0.006   9.589  21.012  0.00  0.00    +0.000 NA
ATOM      9  C   UNL     1       0.818   8.823  20.385  0.00  0.00    +0.000 A 
ATOM     10  S   UNL     1       1.245   7.227  20.903  0.00  0.00    +0.000 S 
ENDROOT
BRANCH   7  11
ATOM     11  N   UNL     1      -1.093  11.724  21.137  0.00  0.00    +0.000 N 
ATOM     12  C   UNL     1      -1.053  11.921  22.601  0.00  0.00    +0.000 C 
ATOM     13  C   UNL     1      -0.913  13.417  22.957  0.00  0.00    +0.000 C 
ATOM     14  N   UNL     1      -1.941  14.273  22.329  0.00  0.00    +0.000 NA
ATOM     15  C   UNL     1      -1.933  14.045  20.873  0.00  0.00    +0.000 C 
ATOM     16  C   UNL     1      -2.117  12.561  20.483  0.00  0.00    +0.000 C 
ATOM     17  H   UNL     1      -1.713  15.250  22.512  0.00  0.00    +0.000 HD
ENDBRANCH   7  11
BRANCH   1  22
ATOM     18  C   UNL     1       4.261   4.515  17.559  0.00  0.00    +0.000 A 
ATOM     19  C   UNL     1       4.329   3.483  18.499  0.00  0.00    +0.000 A 
ATOM     20  C   UNL     1       3.750   3.621  19.758  0.00  0.00    +0.000 A 
ATOM     21  C   UNL     1       3.089   4.797  20.098  0.00  0.00    +0.000 A 
ATOM     22  C   UNL     1       3.018   5.853  19.182  0.00  0.00    +0.000 A 
ATOM     23  C   UNL     1       3.632   5.715  17.920  0.00  0.00    +0.000 A 
BRANCH  18  26
ATOM     24  O   UNL     1       6.834   5.474  16.545  0.00  0.00    +0.000 OA
ATOM     25  C   UNL     1       6.013   4.896  15.841  0.00  0.00    +0.000 C 
ATOM     26  N   UNL     1       4.789   4.390  16.250  0.00  0.00    +0.000 N 
ATOM     27  H   UNL     1       4.316   3.743  15.629  0.00  0.00    +0.000 HD
BRANCH  25  28
ATOM     28  C   UNL     1       6.396   4.648  14.431  0.00  0.00    +0.000 A 
ATOM     29  C   UNL     1       5.691   3.666  13.732  0.00  0.00    +0.000 A 
ATOM     30  C   UNL     1       6.077   3.385  12.437  0.00  0.00    +0.000 A 
ATOM     31  N   UNL     1       7.103   4.006  11.818  0.00  0.00    +0.000 NA
ATOM     32  C   UNL     1       7.779   4.939  12.526  0.00  0.00    +0.000 A 
ATOM     33  C   UNL     1       7.468   5.299  13.825  0.00  0.00    +0.000 A 
ENDBRANCH  25  28
ENDBRANCH  18  26
ENDBRANCH   1  22
TORSDOF 4
ENDMDL
MODEL 8
REMARK VINA RESULT:      -7.9      3.304     10.454
REMARK  Name = 
REMARK  4 active torsions:
REMARK  status: ('A' for Active; 'I' for Inactive)
REMARK    1  A    between atoms: C_2  and  C_26
REMARK    2  A    between atoms: N_3  and  C_4
REMARK    3  A    between atoms: C_8  and  C_9
REMARK    4  A    between atoms: C_15  and  N_16
REMARK                            x       y       z     vdW  Elec       q    Type
REMARK                         _______ _______ _______ _____ _____    ______ ____
ROOT
ATOM      1  C   UNL     1       0.960   9.128  20.549  0.00  0.00    +0.000 A 
ATOM      2  N   UNL     1       1.483   9.229  19.364  0.00  0.00    +0.000 NA
ATOM      3  N   UNL     1       2.091   8.041  19.035  0.00  0.00    +0.000 N 
ATOM      4  C   UNL     1       2.760   7.869  17.851  0.00  0.00    +0.000 A 
ATOM      5  O   UNL     1       2.894   8.699  16.957  0.00  0.00    +0.000 OA
ATOM      6  C   UNL     1       3.353   6.527  17.700  0.00  0.00    +0.000 A 
ATOM      7  C   UNL     1       3.235   5.588  18.661  0.00  0.00    +0.000 A 
ATOM      8  N   UNL     1       2.569   5.868  19.840  0.00  0.00    +0.000 NA
ATOM      9  C   UNL     1       2.045   7.038  19.955  0.00  0.00    +0.000 A 
ATOM     10  S   UNL     1       1.159   7.573  21.343  0.00  0.00    +0.000 S 
ENDROOT
BRANCH   7  11
ATOM     11  N   UNL     1       3.793   4.321  18.474  0.00  0.00    +0.000 N 
ATOM     12  C   UNL     1       4.783   3.746  19.410  0.00  0.00    +0.000 C 
ATOM     13  C   UNL     1       4.341   2.350  19.899  0.00  0.00    +0.000 C 
ATOM     14  N   UNL     1       4.033   1.410  18.801  0.00  0.00    +0.000 NA
ATOM     15  C   UNL     1       3.038   2.025  17.905  0.00  0.00    +0.000 C 
ATOM     16  C   UNL     1       3.471   3.405  17.363  0.00  0.00    +0.000 C 
ATOM     17  H   UNL     1       3.638   0.557  19.198  0.00  0.00    +0.000 HD
ENDBRANCH   7  11
BRANCH   1  22
ATOM     18  C   UNL     1      -0.181  12.652  21.338  0.00  0.00    +0.000 A 
ATOM     19  C   UNL     1      -0.916  12.433  22.506  0.00  0.00    +0.000 A 
ATOM     20  C   UNL     1      -1.061  11.153  23.035  0.00  0.00    +0.000 A 
ATOM     21  C   UNL     1      -0.468  10.065  22.401  0.00  0.00    +0.000 A 
ATOM     22  C   UNL     1       0.263  10.252  21.222  0.00  0.00    +0.000 A 
ATOM     23  C   UNL     1       0.380  11.548  20.680  0.00  0.00    +0.000 A 
BRANCH  18  26
ATOM     24  O   UNL     1      -0.778  13.618  18.641  0.00  0.00    +0.000 OA
ATOM     25  C   UNL     1      -0.254  14.319  19.500  0.00  0.00    +0.000 C 
ATOM     26  N   UNL     1       0.035  13.945  20.804  0.00  0.00    +0.000 N 
ATOM     27  H   UNL     1       0.253  14.681  21.466  0.00  0.00    +0.000 HD
BRANCH  25  28
ATOM     28  C   UNL     1       0.030  15.727  19.135  0.00  0.00    +0.000 A 
ATOM     29  C   UNL     1       1.349  16.060  18.817  0.00  0.00    +0.000 A 
ATOM     30  C   UNL     1       1.636  17.379  18.532  0.00  0.00    +0.000 A 
ATOM     31  N   UNL     1       0.711  18.361  18.552  0.00  0.00    +0.000 NA
ATOM     32  C   UNL     1      -0.553  18.012  18.882  0.00  0.00    +0.000 A 
ATOM     33  C   UNL     1      -0.947  16.718  19.176  0.00  0.00    +0.000 A 
ENDBRANCH  25  28
ENDBRANCH  18  26
ENDBRANCH   1  22
TORSDOF 4
ENDMDL
MODEL 9
REMARK VINA RESULT:      -7.8      2.896     10.808
REMARK  Name = 
REMARK  4 active torsions:
REMARK  status: ('A' for Active; 'I' for Inactive)
REMARK    1  A    between atoms: C_2  and  C_26
REMARK    2  A    between atoms: N_3  and  C_4
REMARK    3  A    between atoms: C_8  and  C_9
REMARK    4  A    between atoms: C_15  and  N_16
REMARK                            x       y       z     vdW  Elec       q    Type
REMARK                         _______ _______ _______ _____ _____    ______ ____
ROOT
ATOM      1  C   UNL     1       0.345   9.767  20.750  0.00  0.00    +0.000 A 
ATOM      2  N   UNL     1       0.798   9.928  19.544  0.00  0.00    +0.000 NA
ATOM      3  N   UNL     1       1.577   8.848  19.203  0.00  0.00    +0.000 N 
ATOM      4  C   UNL     1       2.218   8.764  17.994  0.00  0.00    +0.000 A 
ATOM      5  O   UNL     1       2.181   9.588  17.086  0.00  0.00    +0.000 OA
ATOM      6  C   UNL     1       3.013   7.532  17.835  0.00  0.00    +0.000 A 
ATOM      7  C   UNL     1       3.086   6.604  18.812  0.00  0.00    +0.000 A 
ATOM      8  N   UNL     1       2.430   6.795  20.013  0.00  0.00    +0.000 NA
ATOM      9  C   UNL     1       1.730   7.868  20.136  0.00  0.00    +0.000 A 
ATOM     10  S   UNL     1       0.824   8.278  21.554  0.00  0.00    +0.000 S 
ENDROOT
BRANCH   7  11
ATOM     11  N   UNL     1       3.834   5.440  18.616  0.00  0.00    +0.000 N 
ATOM     12  C   UNL     1       3.413   4.378  17.679  0.00  0.00    +0.000 C 
ATOM     13  C   UNL     1       4.540   4.039  16.679  0.00  0.00    +0.000 C 
ATOM     14  N   UNL     1       5.824   3.704  17.328  0.00  0.00    +0.000 NA
ATOM     15  C   UNL     1       6.202   4.795  18.242  0.00  0.00    +0.000 C 
ATOM     16  C   UNL     1       5.111   5.128  19.285  0.00  0.00    +0.000 C 
ATOM     17  H   UNL     1       6.542   3.611  16.609  0.00  0.00    +0.000 HD
ENDBRANCH   7  11
BRANCH   1  22
ATOM     18  C   UNL     1      -1.544  12.983  21.401  0.00  0.00    +0.000 A 
ATOM     19  C   UNL     1      -1.972  12.774  22.715  0.00  0.00    +0.000 A 
ATOM     20  C   UNL     1      -1.669  11.594  23.390  0.00  0.00    +0.000 A 
ATOM     21  C   UNL     1      -0.927  10.600  22.758  0.00  0.00    +0.000 A 
ATOM     22  C   UNL     1      -0.497  10.776  21.438  0.00  0.00    +0.000 A 
ATOM     23  C   UNL     1      -0.834  11.962  20.754  0.00  0.00    +0.000 A 
BRANCH  18  26
ATOM     24  O   UNL     1       0.392  15.027  20.602  0.00  0.00    +0.000 OA
ATOM     25  C   UNL     1      -0.811  15.126  20.383  0.00  0.00    +0.000 C 
ATOM     26  N   UNL     1      -1.785  14.192  20.704  0.00  0.00    +0.000 N 
ATOM     27  H   UNL     1      -2.694  14.293  20.268  0.00  0.00    +0.000 HD
BRANCH  25  28
ATOM     28  C   UNL     1      -1.260  16.324  19.636  0.00  0.00    +0.000 A 
ATOM     29  C   UNL     1      -0.470  16.756  18.569  0.00  0.00    +0.000 A 
ATOM     30  C   UNL     1      -0.847  17.904  17.902  0.00  0.00    +0.000 A 
ATOM     31  N   UNL     1      -1.935  18.631  18.235  0.00  0.00    +0.000 NA
ATOM     32  C   UNL     1      -2.670  18.199  19.284  0.00  0.00    +0.000 A 
ATOM     33  C   UNL     1      -2.382  17.058  20.012  0.00  0.00    +0.000 A 
ENDBRANCH  25  28
ENDBRANCH  18  26
ENDBRANCH   1  22
TORSDOF 4
ENDMDL
