MODEL 1
REMARK VINA RESULT:      -7.6      0.000      0.000
REMARK  Name = 
REMARK  7 active torsions:
REMARK  status: ('A' for Active; 'I' for Inactive)
REMARK    1  A    between atoms: S_2  and  C_4
REMARK    2  A    between atoms: S_2  and  N_11
REMARK    3  A    between atoms: C_4  and  C_5
REMARK    4  A    between atoms: N_11  and  C_12
REMARK    5  A    between atoms: C_12  and  C_13
REMARK    6  A    between atoms: C_13  and  O_14
REMARK    7  A    between atoms: O_14  and  C_15
REMARK                            x       y       z     vdW  Elec       q    Type
REMARK                         _______ _______ _______ _____ _____    ______ ____
ROOT
ATOM      1  N   UNL     1       7.528   6.461  18.402  0.00  0.00    +0.000 NA
ATOM      2  H   UNL     1       8.359   6.454  18.989  0.00  0.00    +0.000 HD
ENDROOT
BRANCH   1   4
ATOM      3  O   UNL     1       6.295   4.365  19.045  0.00  0.00    +0.000 OA
ATOM      4  S   UNL     1       7.017   4.913  17.912  0.00  0.00    +0.000 S 
ATOM      5  O   UNL     1       8.160   4.239  17.336  0.00  0.00    +0.000 OA
BRANCH   4   6
ATOM      6  C   UNL     1       5.847   5.349  16.624  0.00  0.00    +0.000 C 
BRANCH   6   7
ATOM      7  C   UNL     1       4.456   5.051  17.103  0.00  0.00    +0.000 A 
ATOM      8  C   UNL     1       3.878   3.788  16.880  0.00  0.00    +0.000 A 
ATOM      9  C   UNL     1       2.589   3.515  17.319  0.00  0.00    +0.000 A 
ATOM     10  C   UNL     1       1.848   4.499  17.971  0.00  0.00    +0.000 A 
ATOM     11  C   UNL     1       2.404   5.760  18.185  0.00  0.00    +0.000 A 
ATOM     12  C   UNL     1       3.698   6.036  17.751  0.00  0.00    +0.000 A 
ENDBRANCH   6   7
ENDBRANCH   4   6
ENDBRANCH   1   4
BRANCH   1  13
ATOM     13  C   UNL     1       7.624   7.490  17.330  0.00  0.00    +0.000 C 
BRANCH  13  14
ATOM     14  C   UNL     1       7.803   8.908  17.856  0.00  0.00    +0.000 C 
BRANCH  14  15
ATOM     15  O   UNL     1       8.865   8.960  18.826  0.00  0.00    +0.000 OA
BRANCH  15  16
ATOM     16  C   UNL     1       9.242  10.254  19.092  0.00  0.00    +0.000 A 
ATOM     17  C   UNL     1       9.291  11.134  17.994  0.00  0.00    +0.000 A 
ATOM     18  C   UNL     1       9.396  12.514  18.200  0.00  0.00    +0.000 A 
ATOM     19  C   UNL     1       9.403  12.952  19.506  0.00  0.00    +0.000 A 
ATOM     20  C   UNL     1       9.466  12.076  20.566  0.00  0.00    +0.000 A 
ATOM     21  C   UNL     1       9.461  10.719  20.390  0.00  0.00    +0.000 A 
ATOM     22  O   UNL     1       9.374  12.708  21.769  0.00  0.00    +0.000 OA
ATOM     23  C   UNL     1       8.880  13.977  21.308  0.00  0.00    +0.000 C 
ATOM     24  O   UNL     1       9.242  14.237  19.933  0.00  0.00    +0.000 OA
ENDBRANCH  15  16
ENDBRANCH  14  15
ENDBRANCH  13  14
ENDBRANCH   1  13
TORSDOF 7
ENDMDL
MODEL 2
REMARK VINA RESULT:      -7.4      4.578      6.813
REMARK  Name = 
REMARK  7 active torsions:
REMARK  status: ('A' for Active; 'I' for Inactive)
REMARK    1  A    between atoms: S_2  and  C_4
REMARK    2  A    between atoms: S_2  and  N_11
REMARK    3  A    between atoms: C_4  and  C_5
REMARK    4  A    between atoms: N_11  and  C_12
REMARK    5  A    between atoms: C_12  and  C_13
REMARK    6  A    between atoms: C_13  and  O_14
REMARK    7  A    between atoms: O_14  and  C_15
REMARK                            x       y       z     vdW  Elec       q    Type
REMARK                         _______ _______ _______ _____ _____    ______ ____
ROOT
ATOM      1  N   UNL     1       1.606   3.011  18.908  0.00  0.00    +0.000 NA
ATOM      2  H   UNL     1       1.750   3.646  18.125  0.00  0.00    +0.000 HD
ENDROOT
BRANCH   1   4
ATOM      3  O   UNL     1       1.750   2.759  21.407  0.00  0.00    +0.000 OA
ATOM      4  S   UNL     1       1.502   3.792  20.417  0.00  0.00    +0.000 S 
ATOM      5  O   UNL     1       0.286   4.576  20.419  0.00  0.00    +0.000 OA
BRANCH   4   6
ATOM      6  C   UNL     1       2.930   4.872  20.324  0.00  0.00    +0.000 C 
BRANCH   6   7
ATOM      7  C   UNL     1       2.509   6.195  19.751  0.00  0.00    +0.000 A 
ATOM      8  C   UNL     1       2.730   6.489  18.393  0.00  0.00    +0.000 A 
ATOM      9  C   UNL     1       2.345   7.714  17.866  0.00  0.00    +0.000 A 
ATOM     10  C   UNL     1       1.751   8.673  18.684  0.00  0.00    +0.000 A 
ATOM     11  C   UNL     1       1.541   8.400  20.035  0.00  0.00    +0.000 A 
ATOM     12  C   UNL     1       1.921   7.170  20.567  0.00  0.00    +0.000 A 
ENDBRANCH   6   7
ENDBRANCH   4   6
ENDBRANCH   1   4
BRANCH   1  13
ATOM     13  C   UNL     1       2.521   1.839  18.837  0.00  0.00    +0.000 C 
BRANCH  13  14
ATOM     14  C   UNL     1       3.758   2.078  17.983  0.00  0.00    +0.000 C 
BRANCH  14  15
ATOM     15  O   UNL     1       3.597   3.256  17.173  0.00  0.00    +0.000 OA
BRANCH  15  16
ATOM     16  C   UNL     1       4.792   3.906  16.984  0.00  0.00    +0.000 A 
ATOM     17  C   UNL     1       5.072   4.341  15.674  0.00  0.00    +0.000 A 
ATOM     18  C   UNL     1       6.118   5.239  15.437  0.00  0.00    +0.000 A 
ATOM     19  C   UNL     1       6.811   5.695  16.536  0.00  0.00    +0.000 A 
ATOM     20  C   UNL     1       6.600   5.179  17.794  0.00  0.00    +0.000 A 
ATOM     21  C   UNL     1       5.646   4.228  18.040  0.00  0.00    +0.000 A 
ATOM     22  O   UNL     1       7.322   5.826  18.751  0.00  0.00    +0.000 OA
ATOM     23  C   UNL     1       7.680   6.996  17.994  0.00  0.00    +0.000 C 
ATOM     24  O   UNL     1       7.681   6.745  16.571  0.00  0.00    +0.000 OA
ENDBRANCH  15  16
ENDBRANCH  14  15
ENDBRANCH  13  14
ENDBRANCH   1  13
TORSDOF 7
ENDMDL
MODEL 3
REMARK VINA RESULT:      -7.3      1.340      1.737
REMARK  Name = 
REMARK  7 active torsions:
REMARK  status: ('A' for Active; 'I' for Inactive)
REMARK    1  A    between atoms: S_2  and  C_4
REMARK    2  A    between atoms: S_2  and  N_11
REMARK    3  A    between atoms: C_4  and  C_5
REMARK    4  A    between atoms: N_11  and  C_12
REMARK    5  A    between atoms: C_12  and  C_13
REMARK    6  A    between atoms: C_13  and  O_14
REMARK    7  A    between atoms: O_14  and  C_15
REMARK                            x       y       z     vdW  Elec       q    Type
REMARK                         _______ _______ _______ _____ _____    ______ ____
ROOT
ATOM      1  N   UNL     1       6.933   7.493  16.806  0.00  0.00    +0.000 NA
ATOM      2  H   UNL     1       6.198   8.197  16.783  0.00  0.00    +0.000 HD
ENDROOT
BRANCH   1   4
ATOM      3  O   UNL     1       7.540   5.052  16.764  0.00  0.00    +0.000 OA
ATOM      4  S   UNL     1       6.360   5.895  16.698  0.00  0.00    +0.000 S 
ATOM      5  O   UNL     1       5.441   5.836  15.582  0.00  0.00    +0.000 OA
BRANCH   4   6
ATOM      6  C   UNL     1       5.459   5.767  18.243  0.00  0.00    +0.000 C 
BRANCH   6   7
ATOM      7  C   UNL     1       4.247   4.905  18.036  0.00  0.00    +0.000 A 
ATOM      8  C   UNL     1       2.960   5.472  18.026  0.00  0.00    +0.000 A 
ATOM      9  C   UNL     1       1.840   4.673  17.839  0.00  0.00    +0.000 A 
ATOM     10  C   UNL     1       1.981   3.296  17.678  0.00  0.00    +0.000 A 
ATOM     11  C   UNL     1       3.250   2.719  17.702  0.00  0.00    +0.000 A 
ATOM     12  C   UNL     1       4.377   3.518  17.883  0.00  0.00    +0.000 A 
ENDBRANCH   6   7
ENDBRANCH   4   6
ENDBRANCH   1   4
BRANCH   1  13
ATOM     13  C   UNL     1       7.917   7.766  17.889  0.00  0.00    +0.000 C 
BRANCH  13  14
ATOM     14  C   UNL     1       8.315   9.231  18.002  0.00  0.00    +0.000 C 
BRANCH  14  15
ATOM     15  O   UNL     1       9.010   9.476  19.237  0.00  0.00    +0.000 OA
BRANCH  15  16
ATOM     16  C   UNL     1       9.644  10.694  19.228  0.00  0.00    +0.000 A 
ATOM     17  C   UNL     1       9.875  11.274  17.965  0.00  0.00    +0.000 A 
ATOM     18  C   UNL     1      10.259  12.616  17.865  0.00  0.00    +0.000 A 
ATOM     19  C   UNL     1      10.352  13.329  19.039  0.00  0.00    +0.000 A 
ATOM     20  C   UNL     1      10.232  12.722  20.269  0.00  0.00    +0.000 A 
ATOM     21  C   UNL     1       9.949  11.390  20.399  0.00  0.00    +0.000 A 
ATOM     22  O   UNL     1      10.267  13.617  21.296  0.00  0.00    +0.000 OA
ATOM     23  C   UNL     1      10.044  14.820  20.541  0.00  0.00    +0.000 C 
ATOM     24  O   UNL     1      10.456  14.683  19.162  0.00  0.00    +0.000 OA
ENDBRANCH  15  16
ENDBRANCH  14  15
ENDBRANCH  13  14
ENDBRANCH   1  13
TORSDOF 7
ENDMDL
MODEL 4
REMARK VINA RESULT:      -7.3      5.124      7.957
REMARK  Name = 
REMARK  7 active torsions:
REMARK  status: ('A' for Active; 'I' for Inactive)
REMARK    1  A    between atoms: S_2  and  C_4
REMARK    2  A    between atoms: S_2  and  N_11
REMARK    3  A    between atoms: C_4  and  C_5
REMARK    4  A    between atoms: N_11  and  C_12
REMARK    5  A    between atoms: C_12  and  C_13
REMARK    6  A    between atoms: C_13  and  O_14
REMARK    7  A    between atoms: O_14  and  C_15
REMARK                            x       y       z     vdW  Elec       q    Type
REMARK                         _______ _______ _______ _____ _____    ______ ____
ROOT
ATOM      1  N   UNL     1       7.380   4.885  16.403  0.00  0.00    +0.000 NA
ATOM      2  H   UNL     1       8.304   4.749  16.000  0.00  0.00    +0.000 HD
ENDROOT
BRANCH   1   4
ATOM      3  O   UNL     1       5.538   6.175  15.276  0.00  0.00    +0.000 OA
ATOM      4  S   UNL     1       6.118   4.844  15.261  0.00  0.00    +0.000 S 
ATOM      5  O   UNL     1       5.327   3.663  15.528  0.00  0.00    +0.000 OA
BRANCH   4   6
ATOM      6  C   UNL     1       7.055   4.628  13.748  0.00  0.00    +0.000 C 
BRANCH   6   7
ATOM      7  C   UNL     1       6.269   3.768  12.802  0.00  0.00    +0.000 A 
ATOM      8  C   UNL     1       6.874   2.669  12.164  0.00  0.00    +0.000 A 
ATOM      9  C   UNL     1       6.146   1.877  11.285  0.00  0.00    +0.000 A 
ATOM     10  C   UNL     1       4.813   2.176  11.013  0.00  0.00    +0.000 A 
ATOM     11  C   UNL     1       4.207   3.272  11.626  0.00  0.00    +0.000 A 
ATOM     12  C   UNL     1       4.930   4.065  12.513  0.00  0.00    +0.000 A 
ENDBRANCH   6   7
ENDBRANCH   4   6
ENDBRANCH   1   4
BRANCH   1  13
ATOM     13  C   UNL     1       7.362   6.024  17.361  0.00  0.00    +0.000 C 
BRANCH  13  14
ATOM     14  C   UNL     1       6.689   5.700  18.687  0.00  0.00    +0.000 C 
BRANCH  14  15
ATOM     15  O   UNL     1       6.292   4.318  18.731  0.00  0.00    +0.000 OA
BRANCH  15  16
ATOM     16  C   UNL     1       5.007   4.176  19.195  0.00  0.00    +0.000 A 
ATOM     17  C   UNL     1       4.305   5.364  19.479  0.00  0.00    +0.000 A 
ATOM     18  C   UNL     1       2.922   5.332  19.690  0.00  0.00    +0.000 A 
ATOM     19  C   UNL     1       2.298   4.111  19.563  0.00  0.00    +0.000 A 
ATOM     20  C   UNL     1       3.010   2.945  19.395  0.00  0.00    +0.000 A 
ATOM     21  C   UNL     1       4.373   2.935  19.280  0.00  0.00    +0.000 A 
ATOM     22  O   UNL     1       2.201   1.866  19.204  0.00  0.00    +0.000 OA
ATOM     23  C   UNL     1       0.979   2.562  18.903  0.00  0.00    +0.000 C 
ATOM     24  O   UNL     1       0.955   3.890  19.473  0.00  0.00    +0.000 OA
ENDBRANCH  15  16
ENDBRANCH  14  15
ENDBRANCH  13  14
ENDBRANCH   1  13
TORSDOF 7
ENDMDL
MODEL 5
REMARK VINA RESULT:      -7.2      1.437      1.874
REMARK  Name = 
REMARK  7 active torsions:
REMARK  status: ('A' for Active; 'I' for Inactive)
REMARK    1  A    between atoms: S_2  and  C_4
REMARK    2  A    between atoms: S_2  and  N_11
REMARK    3  A    between atoms: C_4  and  C_5
REMARK    4  A    between atoms: N_11  and  C_12
REMARK    5  A    between atoms: C_12  and  C_13
REMARK    6  A    between atoms: C_13  and  O_14
REMARK    7  A    between atoms: O_14  and  C_15
REMARK                            x       y       z     vdW  Elec       q    Type
REMARK                         _______ _______ _______ _____ _____    ______ ____
ROOT
ATOM      1  N   UNL     1       7.742   6.679  16.605  0.00  0.00    +0.000 NA
ATOM      2  H   UNL     1       8.298   7.062  15.843  0.00  0.00    +0.000 HD
ENDROOT
BRANCH   1   4
ATOM      3  O   UNL     1       7.343   4.509  15.397  0.00  0.00    +0.000 OA
ATOM      4  S   UNL     1       6.592   5.528  16.106  0.00  0.00    +0.000 S 
ATOM      5  O   UNL     1       5.500   6.244  15.484  0.00  0.00    +0.000 OA
BRANCH   4   6
ATOM      6  C   UNL     1       6.073   4.877  17.695  0.00  0.00    +0.000 C 
BRANCH   6   7
ATOM      7  C   UNL     1       4.579   4.731  17.702  0.00  0.00    +0.000 A 
ATOM      8  C   UNL     1       3.762   5.760  18.206  0.00  0.00    +0.000 A 
ATOM      9  C   UNL     1       2.381   5.621  18.216  0.00  0.00    +0.000 A 
ATOM     10  C   UNL     1       1.790   4.451  17.743  0.00  0.00    +0.000 A 
ATOM     11  C   UNL     1       2.589   3.418  17.255  0.00  0.00    +0.000 A 
ATOM     12  C   UNL     1       3.975   3.554  17.237  0.00  0.00    +0.000 A 
ENDBRANCH   6   7
ENDBRANCH   4   6
ENDBRANCH   1   4
BRANCH   1  13
ATOM     13  C   UNL     1       7.248   7.749  17.514  0.00  0.00    +0.000 C 
BRANCH  13  14
ATOM     14  C   UNL     1       8.360   8.534  18.197  0.00  0.00    +0.000 C 
BRANCH  14  15
ATOM     15  O   UNL     1       8.154   9.949  18.040  0.00  0.00    +0.000 OA
BRANCH  15  16
ATOM     16  C   UNL     1       9.158  10.675  18.633  0.00  0.00    +0.000 A 
ATOM     17  C   UNL     1      10.192  11.126  17.789  0.00  0.00    +0.000 A 
ATOM     18  C   UNL     1      11.100  12.090  18.241  0.00  0.00    +0.000 A 
ATOM     19  C   UNL     1      10.903  12.589  19.509  0.00  0.00    +0.000 A 
ATOM     20  C   UNL     1       9.959  12.060  20.360  0.00  0.00    +0.000 A 
ATOM     21  C   UNL     1       9.118  11.050  19.977  0.00  0.00    +0.000 A 
ATOM     22  O   UNL     1       9.867  12.752  21.529  0.00  0.00    +0.000 OA
ATOM     23  C   UNL     1      10.569  13.942  21.131  0.00  0.00    +0.000 C 
ATOM     24  O   UNL     1      11.495  13.692  20.050  0.00  0.00    +0.000 OA
ENDBRANCH  15  16
ENDBRANCH  14  15
ENDBRANCH  13  14
ENDBRANCH   1  13
TORSDOF 7
ENDMDL
MODEL 6
REMARK VINA RESULT:      -7.2      5.757      7.537
REMARK  Name = 
REMARK  7 active torsions:
REMARK  status: ('A' for Active; 'I' for Inactive)
REMARK    1  A    between atoms: S_2  and  C_4
REMARK    2  A    between atoms: S_2  and  N_11
REMARK    3  A    between atoms: C_4  and  C_5
REMARK    4  A    between atoms: N_11  and  C_12
REMARK    5  A    between atoms: C_12  and  C_13
REMARK    6  A    between atoms: C_13  and  O_14
REMARK    7  A    between atoms: O_14  and  C_15
REMARK                            x       y       z     vdW  Elec       q    Type
REMARK                         _______ _______ _______ _____ _____    ______ ____
ROOT
ATOM      1  N   UNL     1       1.756   3.727  18.652  0.00  0.00    +0.000 NA
ATOM      2  H   UNL     1       2.297   4.358  18.064  0.00  0.00    +0.000 HD
ENDROOT
BRANCH   1   4
ATOM      3  O   UNL     1       2.041   3.073  21.064  0.00  0.00    +0.000 OA
ATOM      4  S   UNL     1       1.646   4.226  20.276  0.00  0.00    +0.000 S 
ATOM      5  O   UNL     1       0.359   4.864  20.449  0.00  0.00    +0.000 OA
BRANCH   4   6
ATOM      6  C   UNL     1       2.953   5.452  20.330  0.00  0.00    +0.000 C 
BRANCH   6   7
ATOM      7  C   UNL     1       2.471   6.713  19.672  0.00  0.00    +0.000 A 
ATOM      8  C   UNL     1       1.769   7.682  20.413  0.00  0.00    +0.000 A 
ATOM      9  C   UNL     1       1.320   8.845  19.803  0.00  0.00    +0.000 A 
ATOM     10  C   UNL     1       1.544   9.056  18.444  0.00  0.00    +0.000 A 
ATOM     11  C   UNL     1       2.224   8.095  17.695  0.00  0.00    +0.000 A 
ATOM     12  C   UNL     1       2.682   6.930  18.304  0.00  0.00    +0.000 A 
ENDBRANCH   6   7
ENDBRANCH   4   6
ENDBRANCH   1   4
BRANCH   1  13
ATOM     13  C   UNL     1       2.137   2.306  18.426  0.00  0.00    +0.000 C 
BRANCH  13  14
ATOM     14  C   UNL     1       3.575   2.124  17.961  0.00  0.00    +0.000 C 
BRANCH  14  15
ATOM     15  O   UNL     1       4.448   3.051  18.631  0.00  0.00    +0.000 OA
BRANCH  15  16
ATOM     16  C   UNL     1       5.089   3.876  17.739  0.00  0.00    +0.000 A 
ATOM     17  C   UNL     1       6.233   4.547  18.213  0.00  0.00    +0.000 A 
ATOM     18  C   UNL     1       7.099   5.184  17.317  0.00  0.00    +0.000 A 
ATOM     19  C   UNL     1       6.798   5.081  15.977  0.00  0.00    +0.000 A 
ATOM     20  C   UNL     1       5.622   4.518  15.537  0.00  0.00    +0.000 A 
ATOM     21  C   UNL     1       4.710   3.971  16.399  0.00  0.00    +0.000 A 
ATOM     22  O   UNL     1       5.561   4.435  14.179  0.00  0.00    +0.000 OA
ATOM     23  C   UNL     1       6.952   4.653  13.888  0.00  0.00    +0.000 C 
ATOM     24  O   UNL     1       7.618   5.395  14.934  0.00  0.00    +0.000 OA
ENDBRANCH  15  16
ENDBRANCH  14  15
ENDBRANCH  13  14
ENDBRANCH   1  13
TORSDOF 7
ENDMDL
MODEL 7
REMARK VINA RESULT:      -7.1      0.811      1.292
REMARK  Name = 
REMARK  7 active torsions:
REMARK  status: ('A' for Active; 'I' for Inactive)
REMARK    1  A    between atoms: S_2  and  C_4
REMARK    2  A    between atoms: S_2  and  N_11
REMARK    3  A    between atoms: C_4  and  C_5
REMARK    4  A    between atoms: N_11  and  C_12
REMARK    5  A    between atoms: C_12  and  C_13
REMARK    6  A    between atoms: C_13  and  O_14
REMARK    7  A    between atoms: O_14  and  C_15
REMARK                            x       y       z     vdW  Elec       q    Type
REMARK                         _______ _______ _______ _____ _____    ______ ____
ROOT
ATOM      1  N   UNL     1       6.990   6.381  18.484  0.00  0.00    +0.000 NA
ATOM      2  H   UNL     1       7.383   6.333  19.421  0.00  0.00    +0.000 HD
ENDROOT
BRANCH   1   4
ATOM      3  O   UNL     1       6.157   4.027  18.788  0.00  0.00    +0.000 OA
ATOM      4  S   UNL     1       6.754   4.859  17.759  0.00  0.00    +0.000 S 
ATOM      5  O   UNL     1       7.990   4.492  17.102  0.00  0.00    +0.000 OA
BRANCH   4   6
ATOM      6  C   UNL     1       5.507   5.270  16.538  0.00  0.00    +0.000 C 
BRANCH   6   7
ATOM      7  C   UNL     1       4.156   4.877  17.064  0.00  0.00    +0.000 A 
ATOM      8  C   UNL     1       3.347   5.817  17.728  0.00  0.00    +0.000 A 
ATOM      9  C   UNL     1       2.100   5.452  18.218  0.00  0.00    +0.000 A 
ATOM     10  C   UNL     1       1.646   4.142  18.072  0.00  0.00    +0.000 A 
ATOM     11  C   UNL     1       2.446   3.198  17.429  0.00  0.00    +0.000 A 
ATOM     12  C   UNL     1       3.694   3.561  16.931  0.00  0.00    +0.000 A 
ENDBRANCH   6   7
ENDBRANCH   4   6
ENDBRANCH   1   4
BRANCH   1  13
ATOM     13  C   UNL     1       7.681   7.404  17.651  0.00  0.00    +0.000 C 
BRANCH  13  14
ATOM     14  C   UNL     1       8.545   8.366  18.455  0.00  0.00    +0.000 C 
BRANCH  14  15
ATOM     15  O   UNL     1       8.337   9.721  18.020  0.00  0.00    +0.000 OA
BRANCH  15  16
ATOM     16  C   UNL     1       9.232  10.583  18.604  0.00  0.00    +0.000 A 
ATOM     17  C   UNL     1      10.037  11.341  17.732  0.00  0.00    +0.000 A 
ATOM     18  C   UNL     1      10.773  12.428  18.217  0.00  0.00    +0.000 A 
ATOM     19  C   UNL     1      10.634  12.730  19.553  0.00  0.00    +0.000 A 
ATOM     20  C   UNL     1       9.933  11.916  20.414  0.00  0.00    +0.000 A 
ATOM     21  C   UNL     1       9.281  10.793  19.983  0.00  0.00    +0.000 A 
ATOM     22  O   UNL     1       9.843  12.440  21.668  0.00  0.00    +0.000 OA
ATOM     23  C   UNL     1      10.227  13.792  21.364  0.00  0.00    +0.000 C 
ATOM     24  O   UNL     1      11.044  13.872  20.175  0.00  0.00    +0.000 OA
ENDBRANCH  15  16
ENDBRANCH  14  15
ENDBRANCH  13  14
ENDBRANCH   1  13
TORSDOF 7
ENDMDL
MODEL 8
REMARK VINA RESULT:      -7.1      5.204      6.646
REMARK  Name = 
REMARK  7 active torsions:
REMARK  status: ('A' for Active; 'I' for Inactive)
REMARK    1  A    between atoms: S_2  and  C_4
REMARK    2  A    between atoms: S_2  and  N_11
REMARK    3  A    between atoms: C_4  and  C_5
REMARK    4  A    between atoms: N_11  and  C_12
REMARK    5  A    between atoms: C_12  and  C_13
REMARK    6  A    between atoms: C_13  and  O_14
REMARK    7  A    between atoms: O_14  and  C_15
REMARK                            x       y       z     vdW  Elec       q    Type
REMARK                         _______ _______ _______ _____ _____    ______ ____
ROOT
ATOM      1  N   UNL     1       5.902   4.032  18.216  0.00  0.00    +0.000 NA
ATOM      2  H   UNL     1       5.907   4.263  19.208  0.00  0.00    +0.000 HD
ENDROOT
BRANCH   1   4
ATOM      3  O   UNL     1       7.895   4.276  16.702  0.00  0.00    +0.000 OA
ATOM      4  S   UNL     1       6.830   5.090  17.258  0.00  0.00    +0.000 S 
ATOM      5  O   UNL     1       7.103   6.268  18.051  0.00  0.00    +0.000 OA
BRANCH   4   6
ATOM      6  C   UNL     1       5.650   5.478  15.965  0.00  0.00    +0.000 C 
BRANCH   6   7
ATOM      7  C   UNL     1       6.169   4.958  14.655  0.00  0.00    +0.000 A 
ATOM      8  C   UNL     1       7.322   5.514  14.072  0.00  0.00    +0.000 A 
ATOM      9  C   UNL     1       7.797   5.036  12.858  0.00  0.00    +0.000 A 
ATOM     10  C   UNL     1       7.124   4.011  12.196  0.00  0.00    +0.000 A 
ATOM     11  C   UNL     1       5.971   3.463  12.756  0.00  0.00    +0.000 A 
ATOM     12  C   UNL     1       5.493   3.935  13.976  0.00  0.00    +0.000 A 
ENDBRANCH   6   7
ENDBRANCH   4   6
ENDBRANCH   1   4
BRANCH   1  13
ATOM     13  C   UNL     1       4.525   3.743  17.729  0.00  0.00    +0.000 C 
BRANCH  13  14
ATOM     14  C   UNL     1       3.430   4.185  18.690  0.00  0.00    +0.000 C 
BRANCH  14  15
ATOM     15  O   UNL     1       3.839   5.351  19.426  0.00  0.00    +0.000 OA
BRANCH  15  16
ATOM     16  C   UNL     1       2.926   6.371  19.306  0.00  0.00    +0.000 A 
ATOM     17  C   UNL     1       2.175   6.681  20.457  0.00  0.00    +0.000 A 
ATOM     18  C   UNL     1       1.429   7.864  20.514  0.00  0.00    +0.000 A 
ATOM     19  C   UNL     1       1.506   8.705  19.426  0.00  0.00    +0.000 A 
ATOM     20  C   UNL     1       2.153   8.337  18.268  0.00  0.00    +0.000 A 
ATOM     21  C   UNL     1       2.813   7.144  18.150  0.00  0.00    +0.000 A 
ATOM     22  O   UNL     1       2.188   9.343  17.350  0.00  0.00    +0.000 OA
ATOM     23  C   UNL     1       1.837  10.437  18.215  0.00  0.00    +0.000 C 
ATOM     24  O   UNL     1       1.080   9.999  19.366  0.00  0.00    +0.000 OA
ENDBRANCH  15  16
ENDBRANCH  14  15
ENDBRANCH  13  14
ENDBRANCH   1  13
TORSDOF 7
ENDMDL
MODEL 9
REMARK VINA RESULT:      -7.1      1.338      1.939
REMARK  Name = 
REMARK  7 active torsions:
REMARK  status: ('A' for Active; 'I' for Inactive)
REMARK    1  A    between atoms: S_2  and  C_4
REMARK    2  A    between atoms: S_2  and  N_11
REMARK    3  A    between atoms: C_4  and  C_5
REMARK    4  A    between atoms: N_11  and  C_12
REMARK    5  A    between atoms: C_12  and  C_13
REMARK    6  A    between atoms: C_13  and  O_14
REMARK    7  A    between atoms: O_14  and  C_15
REMARK                            x       y       z     vdW  Elec       q    Type
REMARK                         _______ _______ _______ _____ _____    ______ ____
ROOT
ATOM      1  N   UNL     1       5.932   6.936  17.366  0.00  0.00    +0.000 NA
ATOM      2  H   UNL     1       5.474   7.808  17.623  0.00  0.00    +0.000 HD
ENDROOT
BRANCH   1   4
ATOM      3  O   UNL     1       5.531   5.272  19.209  0.00  0.00    +0.000 OA
ATOM      4  S   UNL     1       5.084   5.543  17.855  0.00  0.00    +0.000 S 
ATOM      5  O   UNL     1       5.211   4.564  16.798  0.00  0.00    +0.000 OA
BRANCH   4   6
ATOM      6  C   UNL     1       3.410   6.182  17.904  0.00  0.00    +0.000 C 
BRANCH   6   7
ATOM      7  C   UNL     1       2.518   5.172  18.568  0.00  0.00    +0.000 A 
ATOM      8  C   UNL     1       2.230   5.265  19.942  0.00  0.00    +0.000 A 
ATOM      9  C   UNL     1       1.410   4.328  20.554  0.00  0.00    +0.000 A 
ATOM     10  C   UNL     1       0.877   3.273  19.816  0.00  0.00    +0.000 A 
ATOM     11  C   UNL     1       1.168   3.160  18.457  0.00  0.00    +0.000 A 
ATOM     12  C   UNL     1       1.986   4.102  17.836  0.00  0.00    +0.000 A 
ENDBRANCH   6   7
ENDBRANCH   4   6
ENDBRANCH   1   4
BRANCH   1  13
ATOM     13  C   UNL     1       7.385   6.967  17.687  0.00  0.00    +0.000 C 
BRANCH  13  14
ATOM     14  C   UNL     1       8.003   8.356  17.603  0.00  0.00    +0.000 C 
BRANCH  14  15
ATOM     15  O   UNL     1       8.639   8.706  18.845  0.00  0.00    +0.000 OA
BRANCH  15  16
ATOM     16  C   UNL     1       9.060  10.013  18.847  0.00  0.00    +0.000 A 
ATOM     17  C   UNL     1       8.604  10.822  17.788  0.00  0.00    +0.000 A 
ATOM     18  C   UNL     1       8.751  12.213  17.849  0.00  0.00    +0.000 A 
ATOM     19  C   UNL     1       9.311  12.732  18.995  0.00  0.00    +0.000 A 
ATOM     20  C   UNL     1       9.851  11.925  19.970  0.00  0.00    +0.000 A 
ATOM     21  C   UNL     1       9.807  10.559  19.892  0.00  0.00    +0.000 A 
ATOM     22  O   UNL     1      10.273  12.631  21.055  0.00  0.00    +0.000 OA
ATOM     23  C   UNL     1       9.594  13.869  20.784  0.00  0.00    +0.000 C 
ATOM     24  O   UNL     1       9.318  14.041  19.376  0.00  0.00    +0.000 OA
ENDBRANCH  15  16
ENDBRANCH  14  15
ENDBRANCH  13  14
ENDBRANCH   1  13
TORSDOF 7
ENDMDL
