MODEL 1
REMARK VINA RESULT:      -8.9      0.000      0.000
REMARK  Name = 
REMARK  3 active torsions:
REMARK  status: ('A' for Active; 'I' for Inactive)
REMARK    1  A    between atoms: N_1  and  C_2
REMARK    2  A    between atoms: C_11  and  C_12
REMARK    3  A    between atoms: C_18  and  C_19
REMARK                            x       y       z     vdW  Elec       q    Type
REMARK                         _______ _______ _______ _____ _____    ______ ____
ROOT
ATOM      1  C   UNL     1       1.081   9.777  19.668  0.00  0.00    +0.000 A 
ATOM      2  N   UNL     1       1.227  10.672  18.675  0.00  0.00    +0.000 NA
ATOM      3  N   UNL     1       1.970  10.033  17.756  0.00  0.00    +0.000 N 
ATOM      4  C   UNL     1       2.267   8.740  18.080  0.00  0.00    +0.000 A 
ATOM      5  C   UNL     1       2.967   7.748  17.392  0.00  0.00    +0.000 A 
ATOM      6  C   UNL     1       3.063   6.501  18.013  0.00  0.00    +0.000 A 
ATOM      7  C   UNL     1       2.493   6.230  19.269  0.00  0.00    +0.000 A 
ATOM      8  C   UNL     1       1.809   7.274  19.925  0.00  0.00    +0.000 A 
ATOM      9  C   UNL     1       1.699   8.537  19.327  0.00  0.00    +0.000 A 
ATOM     10  H   UNL     1       2.225  10.529  16.916  0.00  0.00    +0.000 HD
ENDROOT
BRANCH   1  20
ATOM     11  C   UNL     1      -1.222  14.864  23.122  0.00  0.00    +0.000 C 
ATOM     12  C   UNL     1      -2.014  15.487  21.963  0.00  0.00    +0.000 C 
ATOM     13  C   UNL     1      -1.994  14.600  20.714  0.00  0.00    +0.000 C 
ATOM     14  C   UNL     1      -2.482  13.190  21.027  0.00  0.00    +0.000 C 
ATOM     15  N   UNL     1      -1.803  12.646  22.196  0.00  0.00    +0.000 N 
ATOM     16  C   UNL     1      -1.040  11.506  22.087  0.00  0.00    +0.000 A 
ATOM     17  C   UNL     1      -0.907  10.621  23.169  0.00  0.00    +0.000 A 
ATOM     18  N   UNL     1      -0.207   9.467  23.145  0.00  0.00    +0.000 NA
ATOM     19  C   UNL     1       0.398   9.208  21.963  0.00  0.00    +0.000 A 
ATOM     20  C   UNL     1       0.311  10.068  20.875  0.00  0.00    +0.000 A 
ATOM     21  N   UNL     1      -0.419  11.220  20.918  0.00  0.00    +0.000 NA
ATOM     22  C   UNL     1      -1.766  13.445  23.421  0.00  0.00    +0.000 C 
BRANCH  11  23
ATOM     23  N   UNL     1       0.215  14.828  22.808  0.00  0.00    +0.000 NA
ATOM     24  H   UNL     1       0.350  14.782  21.800  0.00  0.00    +0.000 HD
ATOM     25  H   UNL     1       0.602  13.953  23.180  0.00  0.00    +0.000 HD
ENDBRANCH  11  23
ENDBRANCH   1  20
BRANCH   7  26
ATOM     26  C   UNL     1       2.605   4.906  19.896  0.00  0.00    +0.000 A 
ATOM     27  C   UNL     1       3.809   4.180  19.881  0.00  0.00    +0.000 A 
ATOM     28  F   UNL     1       4.904   4.679  19.287  0.00  0.00    +0.000 F 
ATOM     29  C   UNL     1       3.930   2.934  20.486  0.00  0.00    +0.000 A 
ATOM     30  C   UNL     1       2.839   2.369  21.133  0.00  0.00    +0.000 A 
ATOM     31  C   UNL     1       1.627   3.055  21.165  0.00  0.00    +0.000 A 
ATOM     32  C   UNL     1       1.523   4.296  20.553  0.00  0.00    +0.000 A 
ATOM     33  F   UNL     1       0.325   4.903  20.606  0.00  0.00    +0.000 F 
ENDBRANCH   7  26
TORSDOF 3
ENDMDL
MODEL 2
REMARK VINA RESULT:      -8.9      0.029      1.511
REMARK  Name = 
REMARK  3 active torsions:
REMARK  status: ('A' for Active; 'I' for Inactive)
REMARK    1  A    between atoms: N_1  and  C_2
REMARK    2  A    between atoms: C_11  and  C_12
REMARK    3  A    between atoms: C_18  and  C_19
REMARK                            x       y       z     vdW  Elec       q    Type
REMARK                         _______ _______ _______ _____ _____    ______ ____
ROOT
ATOM      1  C   UNL     1       1.078   9.790  19.669  0.00  0.00    +0.000 A 
ATOM      2  N   UNL     1       1.212  10.681  18.670  0.00  0.00    +0.000 NA
ATOM      3  N   UNL     1       1.955  10.043  17.751  0.00  0.00    +0.000 N 
ATOM      4  C   UNL     1       2.264   8.754  18.080  0.00  0.00    +0.000 A 
ATOM      5  C   UNL     1       2.968   7.764  17.392  0.00  0.00    +0.000 A 
ATOM      6  C   UNL     1       3.077   6.521  18.019  0.00  0.00    +0.000 A 
ATOM      7  C   UNL     1       2.516   6.252  19.280  0.00  0.00    +0.000 A 
ATOM      8  C   UNL     1       1.827   7.294  19.934  0.00  0.00    +0.000 A 
ATOM      9  C   UNL     1       1.704   8.553  19.330  0.00  0.00    +0.000 A 
ATOM     10  H   UNL     1       2.202  10.537  16.907  0.00  0.00    +0.000 HD
ENDROOT
BRANCH   1  20
ATOM     11  C   UNL     1      -1.215  14.877  23.129  0.00  0.00    +0.000 C 
ATOM     12  C   UNL     1      -2.011  15.499  21.973  0.00  0.00    +0.000 C 
ATOM     13  C   UNL     1      -1.995  14.612  20.724  0.00  0.00    +0.000 C 
ATOM     14  C   UNL     1      -2.482  13.202  21.039  0.00  0.00    +0.000 C 
ATOM     15  N   UNL     1      -1.798  12.659  22.206  0.00  0.00    +0.000 N 
ATOM     16  C   UNL     1      -1.034  11.519  22.094  0.00  0.00    +0.000 A 
ATOM     17  C   UNL     1      -0.897  10.634  23.176  0.00  0.00    +0.000 A 
ATOM     18  N   UNL     1      -0.197   9.480  23.150  0.00  0.00    +0.000 NA
ATOM     19  C   UNL     1       0.404   9.221  21.966  0.00  0.00    +0.000 A 
ATOM     20  C   UNL     1       0.312  10.081  20.878  0.00  0.00    +0.000 A 
ATOM     21  N   UNL     1      -0.418  11.232  20.923  0.00  0.00    +0.000 NA
ATOM     22  C   UNL     1      -1.756  13.457  23.430  0.00  0.00    +0.000 C 
BRANCH  11  23
ATOM     23  N   UNL     1       0.222  14.841  22.810  0.00  0.00    +0.000 NA
ATOM     24  H   UNL     1       0.590  13.904  22.968  0.00  0.00    +0.000 HD
ATOM     25  H   UNL     1       0.713  15.448  23.475  0.00  0.00    +0.000 HD
ENDBRANCH  11  23
ENDBRANCH   1  20
BRANCH   7  26
ATOM     26  C   UNL     1       2.642   4.932  19.912  0.00  0.00    +0.000 A 
ATOM     27  C   UNL     1       1.559   4.317  20.565  0.00  0.00    +0.000 A 
ATOM     28  F   UNL     1       0.365   4.925  20.631  0.00  0.00    +0.000 F 
ATOM     29  C   UNL     1       1.663   3.061  21.150  0.00  0.00    +0.000 A 
ATOM     30  C   UNL     1       2.868   2.371  21.101  0.00  0.00    +0.000 A 
ATOM     31  C   UNL     1       3.965   2.948  20.468  0.00  0.00    +0.000 A 
ATOM     32  C   UNL     1       3.845   4.204  19.892  0.00  0.00    +0.000 A 
ATOM     33  F   UNL     1       4.942   4.715  19.307  0.00  0.00    +0.000 F 
ENDBRANCH   7  26
TORSDOF 3
ENDMDL
MODEL 3
REMARK VINA RESULT:      -8.6      1.041      1.202
REMARK  Name = 
REMARK  3 active torsions:
REMARK  status: ('A' for Active; 'I' for Inactive)
REMARK    1  A    between atoms: N_1  and  C_2
REMARK    2  A    between atoms: C_11  and  C_12
REMARK    3  A    between atoms: C_18  and  C_19
REMARK                            x       y       z     vdW  Elec       q    Type
REMARK                         _______ _______ _______ _____ _____    ______ ____
ROOT
ATOM      1  C   UNL     1       1.054   9.982  19.736  0.00  0.00    +0.000 A 
ATOM      2  N   UNL     1       1.409  10.933  18.855  0.00  0.00    +0.000 NA
ATOM      3  N   UNL     1       2.143  10.281  17.937  0.00  0.00    +0.000 N 
ATOM      4  C   UNL     1       2.235   8.936  18.151  0.00  0.00    +0.000 A 
ATOM      5  C   UNL     1       2.859   7.921  17.422  0.00  0.00    +0.000 A 
ATOM      6  C   UNL     1       2.730   6.622  17.918  0.00  0.00    +0.000 A 
ATOM      7  C   UNL     1       2.016   6.322  19.091  0.00  0.00    +0.000 A 
ATOM      8  C   UNL     1       1.418   7.389  19.793  0.00  0.00    +0.000 A 
ATOM      9  C   UNL     1       1.532   8.703  19.320  0.00  0.00    +0.000 A 
ATOM     10  H   UNL     1       2.539  10.811  17.175  0.00  0.00    +0.000 HD
ENDROOT
BRANCH   1  20
ATOM     11  C   UNL     1      -1.315  15.056  23.165  0.00  0.00    +0.000 C 
ATOM     12  C   UNL     1      -2.018  15.726  21.975  0.00  0.00    +0.000 C 
ATOM     13  C   UNL     1      -1.946  14.867  20.709  0.00  0.00    +0.000 C 
ATOM     14  C   UNL     1      -2.491  13.465  20.958  0.00  0.00    +0.000 C 
ATOM     15  N   UNL     1      -1.899  12.876  22.153  0.00  0.00    +0.000 N 
ATOM     16  C   UNL     1      -1.162  11.718  22.063  0.00  0.00    +0.000 A 
ATOM     17  C   UNL     1      -1.119  10.805  23.130  0.00  0.00    +0.000 A 
ATOM     18  N   UNL     1      -0.451   9.632  23.121  0.00  0.00    +0.000 NA
ATOM     19  C   UNL     1       0.217   9.382  21.972  0.00  0.00    +0.000 A 
ATOM     20  C   UNL     1       0.220  10.268  20.901  0.00  0.00    +0.000 A 
ATOM     21  N   UNL     1      -0.479  11.439  20.927  0.00  0.00    +0.000 NA
ATOM     22  C   UNL     1      -1.914  13.646  23.396  0.00  0.00    +0.000 C 
BRANCH  11  23
ATOM     23  N   UNL     1       0.138  14.985  22.937  0.00  0.00    +0.000 NA
ATOM     24  H   UNL     1       0.623  15.588  23.599  0.00  0.00    +0.000 HD
ATOM     25  H   UNL     1       0.336  15.374  22.009  0.00  0.00    +0.000 HD
ENDBRANCH  11  23
ENDBRANCH   1  20
BRANCH   7  26
ATOM     26  C   UNL     1       1.893   4.944  19.586  0.00  0.00    +0.000 A 
ATOM     27  C   UNL     1       2.198   4.605  20.916  0.00  0.00    +0.000 A 
ATOM     28  F   UNL     1       2.615   5.540  21.783  0.00  0.00    +0.000 F 
ATOM     29  C   UNL     1       2.068   3.308  21.397  0.00  0.00    +0.000 A 
ATOM     30  C   UNL     1       1.623   2.297  20.555  0.00  0.00    +0.000 A 
ATOM     31  C   UNL     1       1.316   2.592  19.230  0.00  0.00    +0.000 A 
ATOM     32  C   UNL     1       1.455   3.891  18.765  0.00  0.00    +0.000 A 
ATOM     33  F   UNL     1       1.156   4.111  17.472  0.00  0.00    +0.000 F 
ENDBRANCH   7  26
TORSDOF 3
ENDMDL
MODEL 4
REMARK VINA RESULT:      -8.6      1.036      1.232
REMARK  Name = 
REMARK  3 active torsions:
REMARK  status: ('A' for Active; 'I' for Inactive)
REMARK    1  A    between atoms: N_1  and  C_2
REMARK    2  A    between atoms: C_11  and  C_12
REMARK    3  A    between atoms: C_18  and  C_19
REMARK                            x       y       z     vdW  Elec       q    Type
REMARK                         _______ _______ _______ _____ _____    ______ ____
ROOT
ATOM      1  C   UNL     1       1.062   9.955  19.736  0.00  0.00    +0.000 A 
ATOM      2  N   UNL     1       1.422  10.900  18.850  0.00  0.00    +0.000 NA
ATOM      3  N   UNL     1       2.153  10.239  17.936  0.00  0.00    +0.000 N 
ATOM      4  C   UNL     1       2.238   8.895  18.156  0.00  0.00    +0.000 A 
ATOM      5  C   UNL     1       2.856   7.873  17.432  0.00  0.00    +0.000 A 
ATOM      6  C   UNL     1       2.721   6.577  17.935  0.00  0.00    +0.000 A 
ATOM      7  C   UNL     1       2.005   6.287  19.109  0.00  0.00    +0.000 A 
ATOM      8  C   UNL     1       1.412   7.360  19.806  0.00  0.00    +0.000 A 
ATOM      9  C   UNL     1       1.533   8.671  19.326  0.00  0.00    +0.000 A 
ATOM     10  H   UNL     1       2.552  10.763  17.171  0.00  0.00    +0.000 HD
ENDROOT
BRANCH   1  20
ATOM     11  C   UNL     1      -1.281  15.058  23.139  0.00  0.00    +0.000 C 
ATOM     12  C   UNL     1      -1.980  15.726  21.946  0.00  0.00    +0.000 C 
ATOM     13  C   UNL     1      -1.912  14.860  20.684  0.00  0.00    +0.000 C 
ATOM     14  C   UNL     1      -2.465  13.462  20.940  0.00  0.00    +0.000 C 
ATOM     15  N   UNL     1      -1.876  12.877  22.138  0.00  0.00    +0.000 N 
ATOM     16  C   UNL     1      -1.145  11.714  22.054  0.00  0.00    +0.000 A 
ATOM     17  C   UNL     1      -1.107  10.807  23.125  0.00  0.00    +0.000 A 
ATOM     18  N   UNL     1      -0.445   9.630  23.122  0.00  0.00    +0.000 NA
ATOM     19  C   UNL     1       0.222   9.371  21.975  0.00  0.00    +0.000 A 
ATOM     20  C   UNL     1       0.229  10.252  20.899  0.00  0.00    +0.000 A 
ATOM     21  N   UNL     1      -0.464  11.426  20.919  0.00  0.00    +0.000 NA
ATOM     22  C   UNL     1      -1.887  13.653  23.377  0.00  0.00    +0.000 C 
BRANCH  11  23
ATOM     23  N   UNL     1       0.171  14.978  22.912  0.00  0.00    +0.000 NA
ATOM     24  H   UNL     1       0.423  15.509  22.080  0.00  0.00    +0.000 HD
ATOM     25  H   UNL     1       0.410  14.003  22.702  0.00  0.00    +0.000 HD
ENDBRANCH  11  23
ENDBRANCH   1  20
BRANCH   7  26
ATOM     26  C   UNL     1       1.874   4.912  19.611  0.00  0.00    +0.000 A 
ATOM     27  C   UNL     1       1.427   3.863  18.788  0.00  0.00    +0.000 A 
ATOM     28  F   UNL     1       1.101   4.089  17.506  0.00  0.00    +0.000 F 
ATOM     29  C   UNL     1       1.317   2.557  19.248  0.00  0.00    +0.000 A 
ATOM     30  C   UNL     1       1.656   2.253  20.560  0.00  0.00    +0.000 A 
ATOM     31  C   UNL     1       2.099   3.265  21.408  0.00  0.00    +0.000 A 
ATOM     32  C   UNL     1       2.199   4.564  20.933  0.00  0.00    +0.000 A 
ATOM     33  F   UNL     1       2.619   5.500  21.802  0.00  0.00    +0.000 F 
ENDBRANCH   7  26
TORSDOF 3
ENDMDL
MODEL 5
REMARK VINA RESULT:      -8.3      5.429      8.661
REMARK  Name = 
REMARK  3 active torsions:
REMARK  status: ('A' for Active; 'I' for Inactive)
REMARK    1  A    between atoms: N_1  and  C_2
REMARK    2  A    between atoms: C_11  and  C_12
REMARK    3  A    between atoms: C_18  and  C_19
REMARK                            x       y       z     vdW  Elec       q    Type
REMARK                         _______ _______ _______ _____ _____    ______ ____
ROOT
ATOM      1  C   UNL     1      -2.415  11.457  17.885  0.00  0.00    +0.000 A 
ATOM      2  N   UNL     1      -2.331  11.282  16.554  0.00  0.00    +0.000 NA
ATOM      3  N   UNL     1      -3.595  11.416  16.119  0.00  0.00    +0.000 N 
ATOM      4  C   UNL     1      -4.492  11.728  17.099  0.00  0.00    +0.000 A 
ATOM      5  C   UNL     1      -5.864  11.985  17.054  0.00  0.00    +0.000 A 
ATOM      6  C   UNL     1      -6.482  12.307  18.264  0.00  0.00    +0.000 A 
ATOM      7  C   UNL     1      -5.783  12.376  19.482  0.00  0.00    +0.000 A 
ATOM      8  C   UNL     1      -4.402  12.094  19.469  0.00  0.00    +0.000 A 
ATOM      9  C   UNL     1      -3.755  11.765  18.270  0.00  0.00    +0.000 A 
ATOM     10  H   UNL     1      -3.777  11.302  15.133  0.00  0.00    +0.000 HD
ENDROOT
BRANCH   1  20
ATOM     11  C   UNL     1       3.271  14.569  18.930  0.00  0.00    +0.000 C 
ATOM     12  C   UNL     1       2.645  15.954  19.152  0.00  0.00    +0.000 C 
ATOM     13  C   UNL     1       1.115  15.896  19.164  0.00  0.00    +0.000 C 
ATOM     14  C   UNL     1       0.606  14.886  20.187  0.00  0.00    +0.000 C 
ATOM     15  N   UNL     1       1.283  13.604  20.040  0.00  0.00    +0.000 N 
ATOM     16  C   UNL     1       0.564  12.471  19.737  0.00  0.00    +0.000 A 
ATOM     17  C   UNL     1       0.984  11.209  20.187  0.00  0.00    +0.000 A 
ATOM     18  N   UNL     1       0.328  10.049  19.966  0.00  0.00    +0.000 NA
ATOM     19  C   UNL     1      -0.804  10.181  19.239  0.00  0.00    +0.000 A 
ATOM     20  C   UNL     1      -1.243  11.408  18.755  0.00  0.00    +0.000 A 
ATOM     21  N   UNL     1      -0.573  12.569  19.009  0.00  0.00    +0.000 NA
ATOM     22  C   UNL     1       2.745  13.583  20.002  0.00  0.00    +0.000 C 
BRANCH  11  23
ATOM     23  N   UNL     1       2.982  14.081  17.571  0.00  0.00    +0.000 NA
ATOM     24  H   UNL     1       2.059  13.651  17.546  0.00  0.00    +0.000 HD
ATOM     25  H   UNL     1       3.645  13.329  17.353  0.00  0.00    +0.000 HD
ENDBRANCH  11  23
ENDBRANCH   1  20
BRANCH   7  26
ATOM     26  C   UNL     1      -6.460  12.724  20.739  0.00  0.00    +0.000 A 
ATOM     27  C   UNL     1      -6.356  14.007  21.305  0.00  0.00    +0.000 A 
ATOM     28  F   UNL     1      -5.626  14.962  20.709  0.00  0.00    +0.000 F 
ATOM     29  C   UNL     1      -7.006  14.351  22.484  0.00  0.00    +0.000 A 
ATOM     30  C   UNL     1      -7.791  13.413  23.142  0.00  0.00    +0.000 A 
ATOM     31  C   UNL     1      -7.916  12.130  22.615  0.00  0.00    +0.000 A 
ATOM     32  C   UNL     1      -7.257  11.802  21.439  0.00  0.00    +0.000 A 
ATOM     33  F   UNL     1      -7.404  10.545  20.988  0.00  0.00    +0.000 F 
ENDBRANCH   7  26
TORSDOF 3
ENDMDL
MODEL 6
REMARK VINA RESULT:      -8.2      5.017     10.195
REMARK  Name = 
REMARK  3 active torsions:
REMARK  status: ('A' for Active; 'I' for Inactive)
REMARK    1  A    between atoms: N_1  and  C_2
REMARK    2  A    between atoms: C_11  and  C_12
REMARK    3  A    between atoms: C_18  and  C_19
REMARK                            x       y       z     vdW  Elec       q    Type
REMARK                         _______ _______ _______ _____ _____    ______ ____
ROOT
ATOM      1  C   UNL     1      -4.290  12.878  22.904  0.00  0.00    +0.000 A 
ATOM      2  N   UNL     1      -4.731  12.264  24.017  0.00  0.00    +0.000 NA
ATOM      3  N   UNL     1      -6.069  12.260  23.888  0.00  0.00    +0.000 N 
ATOM      4  C   UNL     1      -6.517  12.792  22.713  0.00  0.00    +0.000 A 
ATOM      5  C   UNL     1      -7.804  12.934  22.190  0.00  0.00    +0.000 A 
ATOM      6  C   UNL     1      -7.906  13.507  20.921  0.00  0.00    +0.000 A 
ATOM      7  C   UNL     1      -6.786  13.932  20.185  0.00  0.00    +0.000 A 
ATOM      8  C   UNL     1      -5.512  13.776  20.769  0.00  0.00    +0.000 A 
ATOM      9  C   UNL     1      -5.379  13.206  22.042  0.00  0.00    +0.000 A 
ATOM     10  H   UNL     1      -6.621  11.859  24.631  0.00  0.00    +0.000 HD
ENDROOT
BRANCH   1  20
ATOM     11  C   UNL     1       0.731  10.047  19.761  0.00  0.00    +0.000 C 
ATOM     12  C   UNL     1       0.047  10.012  18.386  0.00  0.00    +0.000 C 
ATOM     13  C   UNL     1      -1.303  10.733  18.400  0.00  0.00    +0.000 C 
ATOM     14  C   UNL     1      -1.165  12.162  18.916  0.00  0.00    +0.000 C 
ATOM     15  N   UNL     1      -0.419  12.198  20.167  0.00  0.00    +0.000 N 
ATOM     16  C   UNL     1      -1.010  12.682  21.312  0.00  0.00    +0.000 A 
ATOM     17  C   UNL     1      -0.245  13.314  22.306  0.00  0.00    +0.000 A 
ATOM     18  N   UNL     1      -0.739  13.846  23.444  0.00  0.00    +0.000 NA
ATOM     19  C   UNL     1      -2.078  13.716  23.582  0.00  0.00    +0.000 A 
ATOM     20  C   UNL     1      -2.869  13.077  22.634  0.00  0.00    +0.000 A 
ATOM     21  N   UNL     1      -2.348  12.565  21.482  0.00  0.00    +0.000 NA
ATOM     22  C   UNL     1       0.872  11.515  20.235  0.00  0.00    +0.000 C 
BRANCH  11  23
ATOM     23  N   UNL     1      -0.023   9.243  20.736  0.00  0.00    +0.000 NA
ATOM     24  H   UNL     1      -0.454   9.853  21.430  0.00  0.00    +0.000 HD
ATOM     25  H   UNL     1       0.643   8.659  21.254  0.00  0.00    +0.000 HD
ENDBRANCH  11  23
ENDBRANCH   1  20
BRANCH   7  26
ATOM     26  C   UNL     1      -6.924  14.527  18.848  0.00  0.00    +0.000 A 
ATOM     27  C   UNL     1      -7.163  13.740  17.708  0.00  0.00    +0.000 A 
ATOM     28  F   UNL     1      -7.271  12.406  17.807  0.00  0.00    +0.000 F 
ATOM     29  C   UNL     1      -7.312  14.295  16.443  0.00  0.00    +0.000 A 
ATOM     30  C   UNL     1      -7.228  15.672  16.276  0.00  0.00    +0.000 A 
ATOM     31  C   UNL     1      -6.988  16.485  17.380  0.00  0.00    +0.000 A 
ATOM     32  C   UNL     1      -6.838  15.914  18.635  0.00  0.00    +0.000 A 
ATOM     33  F   UNL     1      -6.595  16.750  19.660  0.00  0.00    +0.000 F 
ENDBRANCH   7  26
TORSDOF 3
ENDMDL
MODEL 7
REMARK VINA RESULT:      -8.2      5.473      8.799
REMARK  Name = 
REMARK  3 active torsions:
REMARK  status: ('A' for Active; 'I' for Inactive)
REMARK    1  A    between atoms: N_1  and  C_2
REMARK    2  A    between atoms: C_11  and  C_12
REMARK    3  A    between atoms: C_18  and  C_19
REMARK                            x       y       z     vdW  Elec       q    Type
REMARK                         _______ _______ _______ _____ _____    ______ ____
ROOT
ATOM      1  C   UNL     1      -2.642  11.497  18.010  0.00  0.00    +0.000 A 
ATOM      2  N   UNL     1      -2.616  11.330  16.676  0.00  0.00    +0.000 NA
ATOM      3  N   UNL     1      -3.893  11.501  16.294  0.00  0.00    +0.000 N 
ATOM      4  C   UNL     1      -4.741  11.829  17.312  0.00  0.00    +0.000 A 
ATOM      5  C   UNL     1      -6.106  12.122  17.325  0.00  0.00    +0.000 A 
ATOM      6  C   UNL     1      -6.665  12.452  18.561  0.00  0.00    +0.000 A 
ATOM      7  C   UNL     1      -5.916  12.493  19.750  0.00  0.00    +0.000 A 
ATOM      8  C   UNL     1      -4.544  12.174  19.679  0.00  0.00    +0.000 A 
ATOM      9  C   UNL     1      -3.956  11.838  18.452  0.00  0.00    +0.000 A 
ATOM     10  H   UNL     1      -4.118  11.400  15.315  0.00  0.00    +0.000 HD
ENDROOT
BRANCH   1  20
ATOM     11  C   UNL     1       3.130  14.500  18.897  0.00  0.00    +0.000 C 
ATOM     12  C   UNL     1       2.536  15.888  19.175  0.00  0.00    +0.000 C 
ATOM     13  C   UNL     1       1.006  15.853  19.247  0.00  0.00    +0.000 C 
ATOM     14  C   UNL     1       0.522  14.827  20.266  0.00  0.00    +0.000 C 
ATOM     15  N   UNL     1       1.173  13.539  20.064  0.00  0.00    +0.000 N 
ATOM     16  C   UNL     1       0.424  12.423  19.764  0.00  0.00    +0.000 A 
ATOM     17  C   UNL     1       0.842  11.145  20.168  0.00  0.00    +0.000 A 
ATOM     18  N   UNL     1       0.160  10.001  19.947  0.00  0.00    +0.000 NA
ATOM     19  C   UNL     1      -0.999  10.166  19.269  0.00  0.00    +0.000 A 
ATOM     20  C   UNL     1      -1.437  11.411  18.831  0.00  0.00    +0.000 A 
ATOM     21  N   UNL     1      -0.739  12.555  19.084  0.00  0.00    +0.000 NA
ATOM     22  C   UNL     1       2.632  13.496  19.966  0.00  0.00    +0.000 C 
BRANCH  11  23
ATOM     23  N   UNL     1       2.779  14.047  17.540  0.00  0.00    +0.000 NA
ATOM     24  H   UNL     1       2.579  13.049  17.548  0.00  0.00    +0.000 HD
ATOM     25  H   UNL     1       3.605  14.161  16.941  0.00  0.00    +0.000 HD
ENDBRANCH  11  23
ENDBRANCH   1  20
BRANCH   7  26
ATOM     26  C   UNL     1      -6.531  12.849  21.036  0.00  0.00    +0.000 A 
ATOM     27  C   UNL     1      -7.344  11.946  21.743  0.00  0.00    +0.000 A 
ATOM     28  F   UNL     1      -7.586  10.718  21.258  0.00  0.00    +0.000 F 
ATOM     29  C   UNL     1      -7.916  12.267  22.967  0.00  0.00    +0.000 A 
ATOM     30  C   UNL     1      -7.691  13.516  23.532  0.00  0.00    +0.000 A 
ATOM     31  C   UNL     1      -6.894  14.440  22.861  0.00  0.00    +0.000 A 
ATOM     32  C   UNL     1      -6.334  14.104  21.637  0.00  0.00    +0.000 A 
ATOM     33  F   UNL     1      -5.586  15.043  21.031  0.00  0.00    +0.000 F 
ENDBRANCH   7  26
TORSDOF 3
ENDMDL
MODEL 8
REMARK VINA RESULT:      -8.2      5.802      9.580
REMARK  Name = 
REMARK  3 active torsions:
REMARK  status: ('A' for Active; 'I' for Inactive)
REMARK    1  A    between atoms: N_1  and  C_2
REMARK    2  A    between atoms: C_11  and  C_12
REMARK    3  A    between atoms: C_18  and  C_19
REMARK                            x       y       z     vdW  Elec       q    Type
REMARK                         _______ _______ _______ _____ _____    ______ ____
ROOT
ATOM      1  C   UNL     1      -5.728  11.177  19.060  0.00  0.00    +0.000 A 
ATOM      2  N   UNL     1      -6.827  10.531  18.632  0.00  0.00    +0.000 NA
ATOM      3  N   UNL     1      -7.722  10.703  19.619  0.00  0.00    +0.000 N 
ATOM      4  C   UNL     1      -7.274  11.482  20.647  0.00  0.00    +0.000 A 
ATOM      5  C   UNL     1      -7.897  11.923  21.816  0.00  0.00    +0.000 A 
ATOM      6  C   UNL     1      -7.145  12.749  22.655  0.00  0.00    +0.000 A 
ATOM      7  C   UNL     1      -5.824  13.131  22.362  0.00  0.00    +0.000 A 
ATOM      8  C   UNL     1      -5.242  12.645  21.174  0.00  0.00    +0.000 A 
ATOM      9  C   UNL     1      -5.972  11.813  20.314  0.00  0.00    +0.000 A 
ATOM     10  H   UNL     1      -8.631  10.278  19.521  0.00  0.00    +0.000 HD
ENDROOT
BRANCH   1  20
ATOM     11  C   UNL     1       0.150  14.104  19.034  0.00  0.00    +0.000 C 
ATOM     12  C   UNL     1       0.583  13.582  20.412  0.00  0.00    +0.000 C 
ATOM     13  C   UNL     1      -0.432  12.596  20.997  0.00  0.00    +0.000 C 
ATOM     14  C   UNL     1      -0.711  11.449  20.031  0.00  0.00    +0.000 C 
ATOM     15  N   UNL     1      -1.015  11.949  18.696  0.00  0.00    +0.000 N 
ATOM     16  C   UNL     1      -2.236  11.685  18.119  0.00  0.00    +0.000 A 
ATOM     17  C   UNL     1      -2.363  11.562  16.726  0.00  0.00    +0.000 A 
ATOM     18  N   UNL     1      -3.510  11.274  16.074  0.00  0.00    +0.000 NA
ATOM     19  C   UNL     1      -4.584  11.117  16.881  0.00  0.00    +0.000 A 
ATOM     20  C   UNL     1      -4.506  11.252  18.263  0.00  0.00    +0.000 A 
ATOM     21  N   UNL     1      -3.331  11.524  18.899  0.00  0.00    +0.000 NA
ATOM     22  C   UNL     1      -0.100  12.909  18.080  0.00  0.00    +0.000 C 
BRANCH  11  23
ATOM     23  N   UNL     1      -1.050  14.948  19.152  0.00  0.00    +0.000 NA
ATOM     24  H   UNL     1      -1.619  14.637  19.938  0.00  0.00    +0.000 HD
ATOM     25  H   UNL     1      -1.627  14.804  18.316  0.00  0.00    +0.000 HD
ENDBRANCH  11  23
ENDBRANCH   1  20
BRANCH   7  26
ATOM     26  C   UNL     1      -5.059  14.006  23.262  0.00  0.00    +0.000 A 
ATOM     27  C   UNL     1      -5.309  15.387  23.340  0.00  0.00    +0.000 A 
ATOM     28  F   UNL     1      -6.262  15.955  22.586  0.00  0.00    +0.000 F 
ATOM     29  C   UNL     1      -4.603  16.220  24.200  0.00  0.00    +0.000 A 
ATOM     30  C   UNL     1      -3.614  15.692  25.020  0.00  0.00    +0.000 A 
ATOM     31  C   UNL     1      -3.334  14.329  24.969  0.00  0.00    +0.000 A 
ATOM     32  C   UNL     1      -4.046  13.513  24.102  0.00  0.00    +0.000 A 
ATOM     33  F   UNL     1      -3.721  12.208  24.088  0.00  0.00    +0.000 F 
ENDBRANCH   7  26
TORSDOF 3
ENDMDL
MODEL 9
REMARK VINA RESULT:      -8.2      2.547      4.507
REMARK  Name = 
REMARK  3 active torsions:
REMARK  status: ('A' for Active; 'I' for Inactive)
REMARK    1  A    between atoms: N_1  and  C_2
REMARK    2  A    between atoms: C_11  and  C_12
REMARK    3  A    between atoms: C_18  and  C_19
REMARK                            x       y       z     vdW  Elec       q    Type
REMARK                         _______ _______ _______ _____ _____    ______ ____
ROOT
ATOM      1  C   UNL     1       1.804   7.633  19.919  0.00  0.00    +0.000 A 
ATOM      2  N   UNL     1       1.140   7.251  21.025  0.00  0.00    +0.000 NA
ATOM      3  N   UNL     1       1.483   5.962  21.191  0.00  0.00    +0.000 N 
ATOM      4  C   UNL     1       2.386   5.502  20.277  0.00  0.00    +0.000 A 
ATOM      5  C   UNL     1       3.011   4.262  20.132  0.00  0.00    +0.000 A 
ATOM      6  C   UNL     1       3.922   4.138  19.082  0.00  0.00    +0.000 A 
ATOM      7  C   UNL     1       4.214   5.191  18.197  0.00  0.00    +0.000 A 
ATOM      8  C   UNL     1       3.543   6.417  18.383  0.00  0.00    +0.000 A 
ATOM      9  C   UNL     1       2.621   6.570  19.428  0.00  0.00    +0.000 A 
ATOM     10  H   UNL     1       1.079   5.455  21.964  0.00  0.00    +0.000 HD
ENDROOT
BRANCH   1  20
ATOM     11  C   UNL     1      -2.255  12.790  19.764  0.00  0.00    +0.000 C 
ATOM     12  C   UNL     1      -2.380  12.930  21.288  0.00  0.00    +0.000 C 
ATOM     13  C   UNL     1      -1.451  11.964  22.029  0.00  0.00    +0.000 C 
ATOM     14  C   UNL     1      -0.004  12.125  21.573  0.00  0.00    +0.000 C 
ATOM     15  N   UNL     1       0.093  12.101  20.119  0.00  0.00    +0.000 N 
ATOM     16  C   UNL     1       0.832  11.126  19.489  0.00  0.00    +0.000 A 
ATOM     17  C   UNL     1       1.470  11.383  18.265  0.00  0.00    +0.000 A 
ATOM     18  N   UNL     1       2.239  10.502  17.591  0.00  0.00    +0.000 NA
ATOM     19  C   UNL     1       2.355   9.294  18.190  0.00  0.00    +0.000 A 
ATOM     20  C   UNL     1       1.723   8.991  19.390  0.00  0.00    +0.000 A 
ATOM     21  N   UNL     1       0.966   9.906  20.061  0.00  0.00    +0.000 NA
ATOM     22  C   UNL     1      -0.777  12.983  19.342  0.00  0.00    +0.000 C 
BRANCH  11  23
ATOM     23  N   UNL     1      -2.769  11.485  19.318  0.00  0.00    +0.000 NA
ATOM     24  H   UNL     1      -2.657  10.796  20.060  0.00  0.00    +0.000 HD
ATOM     25  H   UNL     1      -2.181  11.157  18.543  0.00  0.00    +0.000 HD
ENDBRANCH  11  23
ENDBRANCH   1  20
BRANCH   7  26
ATOM     26  C   UNL     1       5.183   5.032  17.104  0.00  0.00    +0.000 A 
ATOM     27  C   UNL     1       4.914   4.219  15.989  0.00  0.00    +0.000 A 
ATOM     28  F   UNL     1       3.752   3.556  15.889  0.00  0.00    +0.000 F 
ATOM     29  C   UNL     1       5.816   4.076  14.942  0.00  0.00    +0.000 A 
ATOM     30  C   UNL     1       7.031   4.750  14.976  0.00  0.00    +0.000 A 
ATOM     31  C   UNL     1       7.336   5.561  16.066  0.00  0.00    +0.000 A 
ATOM     32  C   UNL     1       6.425   5.689  17.104  0.00  0.00    +0.000 A 
ATOM     33  F   UNL     1       6.783   6.475  18.134  0.00  0.00    +0.000 F 
ENDBRANCH   7  26
TORSDOF 3
ENDMDL
