MODEL 1
REMARK VINA RESULT:      -8.0      0.000      0.000
REMARK  Name = 
REMARK  9 active torsions:
REMARK  status: ('A' for Active; 'I' for Inactive)
REMARK    1  A    between atoms: C_1  and  C_2
REMARK    2  A    between atoms: C_5  and  N_6
REMARK    3  A    between atoms: N_6  and  S_7
REMARK    4  A    between atoms: S_7  and  C_10
REMARK    5  A    between atoms: C_13  and  C_14
REMARK    6  A    between atoms: N_16  and  C_17
REMARK    7  A    between atoms: C_17  and  C_18
REMARK    8  A    between atoms: C_18  and  C_19
REMARK    9  A    between atoms: C_19  and  N_20
REMARK                            x       y       z     vdW  Elec       q    Type
REMARK                         _______ _______ _______ _____ _____    ______ ____
ROOT
ATOM      1  C   UNL     1       1.500   8.929  19.191  0.00  0.00    +0.000 A 
ATOM      2  C   UNL     1       2.119   9.045  17.942  0.00  0.00    +0.000 A 
ATOM      3  C   UNL     1       2.998   8.042  17.502  0.00  0.00    +0.000 A 
ATOM      4  C   UNL     1       3.257   6.925  18.310  0.00  0.00    +0.000 A 
ATOM      5  C   UNL     1       2.653   6.839  19.574  0.00  0.00    +0.000 A 
ATOM      6  C   UNL     1       1.776   7.835  20.017  0.00  0.00    +0.000 A 
ENDROOT
BRANCH   4   7
ATOM      7  C   UNL     1       4.185   5.824  17.907  0.00  0.00    +0.000 C 
ATOM      8  O   UNL     1       5.340   5.817  18.322  0.00  0.00    +0.000 OA
ATOM      9  N   UNL     1       3.670   4.823  17.106  0.00  0.00    +0.000 N 
ATOM     10  H   UNL     1       2.677   4.794  16.917  0.00  0.00    +0.000 HD
BRANCH   9  11
ATOM     11  C   UNL     1       4.460   3.654  16.744  0.00  0.00    +0.000 C 
BRANCH  11  12
ATOM     12  C   UNL     1       4.482   2.606  17.858  0.00  0.00    +0.000 C 
BRANCH  12  13
ATOM     13  C   UNL     1       3.109   1.957  18.057  0.00  0.00    +0.000 C 
BRANCH  13  14
ATOM     14  N   UNL     1       2.451   2.398  19.280  0.00  0.00    +0.000 N 
ATOM     15  C   UNL     1       3.163   3.016  20.372  0.00  0.00    +0.000 C 
ATOM     16  C   UNL     1       2.096   3.146  21.443  0.00  0.00    +0.000 C 
ATOM     17  C   UNL     1       0.818   3.379  20.650  0.00  0.00    +0.000 C 
ATOM     18  C   UNL     1       1.085   2.639  19.359  0.00  0.00    +0.000 C 
ATOM     19  O   UNL     1       0.248   2.375  18.512  0.00  0.00    +0.000 OA
ENDBRANCH  13  14
ENDBRANCH  12  13
ENDBRANCH  11  12
ENDBRANCH   9  11
ENDBRANCH   4   7
BRANCH   1  20
ATOM     20  S   UNL     1       0.415  10.208  19.798  0.00  0.00    +0.000 S 
ATOM     21  O   UNL     1       1.217  11.239  20.420  0.00  0.00    +0.000 OA
ATOM     22  O   UNL     1      -0.641   9.536  20.527  0.00  0.00    +0.000 OA
BRANCH  20  23
ATOM     23  N   UNL     1      -0.296  10.807  18.395  0.00  0.00    +0.000 N 
ATOM     24  H   UNL     1       0.260  10.679  17.551  0.00  0.00    +0.000 HD
BRANCH  23  29
ATOM     25  C   UNL     1      -5.991  11.163  17.968  0.00  0.00    +0.000 C 
ATOM     26  C   UNL     1      -4.497  11.067  18.075  0.00  0.00    +0.000 A 
ATOM     27  C   UNL     1      -3.773  11.982  18.848  0.00  0.00    +0.000 A 
ATOM     28  C   UNL     1      -2.385  11.882  18.950  0.00  0.00    +0.000 A 
ATOM     29  C   UNL     1      -1.708  10.863  18.283  0.00  0.00    +0.000 A 
ATOM     30  C   UNL     1      -2.412   9.950  17.503  0.00  0.00    +0.000 A 
ATOM     31  C   UNL     1      -3.803  10.054  17.401  0.00  0.00    +0.000 A 
ENDBRANCH  23  29
ENDBRANCH  20  23
ENDBRANCH   1  20
TORSDOF 8
ENDMDL
MODEL 2
REMARK VINA RESULT:      -8.0      2.867      3.947
REMARK  Name = 
REMARK  9 active torsions:
REMARK  status: ('A' for Active; 'I' for Inactive)
REMARK    1  A    between atoms: C_1  and  C_2
REMARK    2  A    between atoms: C_5  and  N_6
REMARK    3  A    between atoms: N_6  and  S_7
REMARK    4  A    between atoms: S_7  and  C_10
REMARK    5  A    between atoms: C_13  and  C_14
REMARK    6  A    between atoms: N_16  and  C_17
REMARK    7  A    between atoms: C_17  and  C_18
REMARK    8  A    between atoms: C_18  and  C_19
REMARK    9  A    between atoms: C_19  and  N_20
REMARK                            x       y       z     vdW  Elec       q    Type
REMARK                         _______ _______ _______ _____ _____    ______ ____
ROOT
ATOM      1  C   UNL     1       0.953   9.606  19.346  0.00  0.00    +0.000 A 
ATOM      2  C   UNL     1       1.134   8.717  20.410  0.00  0.00    +0.000 A 
ATOM      3  C   UNL     1       1.932   7.574  20.238  0.00  0.00    +0.000 A 
ATOM      4  C   UNL     1       2.548   7.322  19.003  0.00  0.00    +0.000 A 
ATOM      5  C   UNL     1       2.332   8.207  17.937  0.00  0.00    +0.000 A 
ATOM      6  C   UNL     1       1.539   9.347  18.103  0.00  0.00    +0.000 A 
ENDROOT
BRANCH   4   7
ATOM      7  C   UNL     1       3.406   6.123  18.749  0.00  0.00    +0.000 C 
ATOM      8  O   UNL     1       4.061   5.637  19.666  0.00  0.00    +0.000 OA
ATOM      9  N   UNL     1       3.380   5.584  17.478  0.00  0.00    +0.000 N 
ATOM     10  H   UNL     1       2.712   5.927  16.802  0.00  0.00    +0.000 HD
BRANCH   9  11
ATOM     11  C   UNL     1       4.098   4.358  17.155  0.00  0.00    +0.000 C 
BRANCH  11  12
ATOM     12  C   UNL     1       3.149   3.185  16.905  0.00  0.00    +0.000 C 
BRANCH  12  13
ATOM     13  C   UNL     1       3.194   2.161  18.043  0.00  0.00    +0.000 C 
BRANCH  13  14
ATOM     14  N   UNL     1       2.620   2.671  19.281  0.00  0.00    +0.000 N 
ATOM     15  C   UNL     1       1.222   3.002  19.417  0.00  0.00    +0.000 C 
ATOM     16  C   UNL     1       1.152   3.621  20.801  0.00  0.00    +0.000 C 
ATOM     17  C   UNL     1       2.218   2.868  21.585  0.00  0.00    +0.000 C 
ATOM     18  C   UNL     1       3.231   2.516  20.520  0.00  0.00    +0.000 C 
ATOM     19  O   UNL     1       4.357   2.097  20.729  0.00  0.00    +0.000 OA
ENDBRANCH  13  14
ENDBRANCH  12  13
ENDBRANCH  11  12
ENDBRANCH   9  11
ENDBRANCH   4   7
BRANCH   1  20
ATOM     20  S   UNL     1      -0.092  11.041  19.519  0.00  0.00    +0.000 S 
ATOM     21  O   UNL     1       0.259  11.724  20.745  0.00  0.00    +0.000 OA
ATOM     22  O   UNL     1      -1.446  10.593  19.269  0.00  0.00    +0.000 OA
BRANCH  20  23
ATOM     23  N   UNL     1       0.336  11.990  18.196  0.00  0.00    +0.000 N 
ATOM     24  H   UNL     1      -0.361  12.019  17.453  0.00  0.00    +0.000 HD
BRANCH  23  29
ATOM     25  C   UNL     1       3.738  16.524  18.974  0.00  0.00    +0.000 C 
ATOM     26  C   UNL     1       2.851  15.331  18.771  0.00  0.00    +0.000 A 
ATOM     27  C   UNL     1       1.461  15.441  18.904  0.00  0.00    +0.000 A 
ATOM     28  C   UNL     1       0.640  14.330  18.706  0.00  0.00    +0.000 A 
ATOM     29  C   UNL     1       1.201  13.099  18.368  0.00  0.00    +0.000 A 
ATOM     30  C   UNL     1       2.581  12.971  18.241  0.00  0.00    +0.000 A 
ATOM     31  C   UNL     1       3.401  14.086  18.442  0.00  0.00    +0.000 A 
ENDBRANCH  23  29
ENDBRANCH  20  23
ENDBRANCH   1  20
TORSDOF 8
ENDMDL
MODEL 3
REMARK VINA RESULT:      -8.0      0.702      1.139
REMARK  Name = 
REMARK  9 active torsions:
REMARK  status: ('A' for Active; 'I' for Inactive)
REMARK    1  A    between atoms: C_1  and  C_2
REMARK    2  A    between atoms: C_5  and  N_6
REMARK    3  A    between atoms: N_6  and  S_7
REMARK    4  A    between atoms: S_7  and  C_10
REMARK    5  A    between atoms: C_13  and  C_14
REMARK    6  A    between atoms: N_16  and  C_17
REMARK    7  A    between atoms: C_17  and  C_18
REMARK    8  A    between atoms: C_18  and  C_19
REMARK    9  A    between atoms: C_19  and  N_20
REMARK                            x       y       z     vdW  Elec       q    Type
REMARK                         _______ _______ _______ _____ _____    ______ ____
ROOT
ATOM      1  C   UNL     1       1.350   9.068  19.770  0.00  0.00    +0.000 A 
ATOM      2  C   UNL     1       1.649   7.867  20.421  0.00  0.00    +0.000 A 
ATOM      3  C   UNL     1       2.392   6.877  19.756  0.00  0.00    +0.000 A 
ATOM      4  C   UNL     1       2.835   7.090  18.442  0.00  0.00    +0.000 A 
ATOM      5  C   UNL     1       2.500   8.288  17.792  0.00  0.00    +0.000 A 
ATOM      6  C   UNL     1       1.761   9.276  18.449  0.00  0.00    +0.000 A 
ENDROOT
BRANCH   4   7
ATOM      7  C   UNL     1       3.625   6.078  17.674  0.00  0.00    +0.000 C 
ATOM      8  O   UNL     1       4.449   6.451  16.845  0.00  0.00    +0.000 OA
ATOM      9  N   UNL     1       3.415   4.747  17.978  0.00  0.00    +0.000 N 
ATOM     10  H   UNL     1       2.840   4.499  18.771  0.00  0.00    +0.000 HD
BRANCH   9  11
ATOM     11  C   UNL     1       4.207   3.691  17.362  0.00  0.00    +0.000 C 
BRANCH  11  12
ATOM     12  C   UNL     1       3.425   2.382  17.242  0.00  0.00    +0.000 C 
BRANCH  12  13
ATOM     13  C   UNL     1       3.459   1.577  18.545  0.00  0.00    +0.000 C 
BRANCH  13  14
ATOM     14  N   UNL     1       2.637   2.168  19.593  0.00  0.00    +0.000 N 
ATOM     15  C   UNL     1       3.197   2.770  20.779  0.00  0.00    +0.000 C 
ATOM     16  C   UNL     1       1.967   3.090  21.610  0.00  0.00    +0.000 C 
ATOM     17  C   UNL     1       0.906   3.416  20.569  0.00  0.00    +0.000 C 
ATOM     18  C   UNL     1       1.322   2.568  19.389  0.00  0.00    +0.000 C 
ATOM     19  O   UNL     1       0.638   2.348  18.403  0.00  0.00    +0.000 OA
ENDBRANCH  13  14
ENDBRANCH  12  13
ENDBRANCH  11  12
ENDBRANCH   9  11
ENDBRANCH   4   7
BRANCH   1  20
ATOM     20  S   UNL     1       0.369  10.325  20.570  0.00  0.00    +0.000 S 
ATOM     21  O   UNL     1       1.236  11.124  21.408  0.00  0.00    +0.000 OA
ATOM     22  O   UNL     1      -0.791   9.652  21.116  0.00  0.00    +0.000 OA
BRANCH  20  23
ATOM     23  N   UNL     1      -0.192  11.252  19.283  0.00  0.00    +0.000 N 
ATOM     24  H   UNL     1       0.508  11.456  18.571  0.00  0.00    +0.000 HD
BRANCH  23  29
ATOM     25  C   UNL     1      -5.710  11.118  17.775  0.00  0.00    +0.000 C 
ATOM     26  C   UNL     1      -4.261  11.150  18.165  0.00  0.00    +0.000 A 
ATOM     27  C   UNL     1      -3.781  12.115  19.059  0.00  0.00    +0.000 A 
ATOM     28  C   UNL     1      -2.435  12.135  19.425  0.00  0.00    +0.000 A 
ATOM     29  C   UNL     1      -1.556  11.187  18.904  0.00  0.00    +0.000 A 
ATOM     30  C   UNL     1      -2.015  10.227  18.007  0.00  0.00    +0.000 A 
ATOM     31  C   UNL     1      -3.365  10.210  17.641  0.00  0.00    +0.000 A 
ENDBRANCH  23  29
ENDBRANCH  20  23
ENDBRANCH   1  20
TORSDOF 8
ENDMDL
MODEL 4
REMARK VINA RESULT:      -7.9      2.475      8.712
REMARK  Name = 
REMARK  9 active torsions:
REMARK  status: ('A' for Active; 'I' for Inactive)
REMARK    1  A    between atoms: C_1  and  C_2
REMARK    2  A    between atoms: C_5  and  N_6
REMARK    3  A    between atoms: N_6  and  S_7
REMARK    4  A    between atoms: S_7  and  C_10
REMARK    5  A    between atoms: C_13  and  C_14
REMARK    6  A    between atoms: N_16  and  C_17
REMARK    7  A    between atoms: C_17  and  C_18
REMARK    8  A    between atoms: C_18  and  C_19
REMARK    9  A    between atoms: C_19  and  N_20
REMARK                            x       y       z     vdW  Elec       q    Type
REMARK                         _______ _______ _______ _____ _____    ______ ____
ROOT
ATOM      1  C   UNL     1       2.148   4.697  18.768  0.00  0.00    +0.000 A 
ATOM      2  C   UNL     1       1.747   4.644  20.107  0.00  0.00    +0.000 A 
ATOM      3  C   UNL     1       1.522   5.836  20.816  0.00  0.00    +0.000 A 
ATOM      4  C   UNL     1       1.698   7.077  20.186  0.00  0.00    +0.000 A 
ATOM      5  C   UNL     1       2.131   7.112  18.852  0.00  0.00    +0.000 A 
ATOM      6  C   UNL     1       2.356   5.930  18.141  0.00  0.00    +0.000 A 
ENDROOT
BRANCH   4   7
ATOM      7  C   UNL     1       1.481   8.383  20.883  0.00  0.00    +0.000 C 
ATOM      8  O   UNL     1       1.988   8.579  21.983  0.00  0.00    +0.000 OA
ATOM      9  N   UNL     1       0.744   9.342  20.215  0.00  0.00    +0.000 N 
ATOM     10  H   UNL     1       0.478   9.188  19.252  0.00  0.00    +0.000 HD
BRANCH   9  11
ATOM     11  C   UNL     1       0.563  10.680  20.760  0.00  0.00    +0.000 C 
BRANCH  11  12
ATOM     12  C   UNL     1      -0.894  11.141  20.682  0.00  0.00    +0.000 C 
BRANCH  12  13
ATOM     13  C   UNL     1      -1.186  11.887  19.376  0.00  0.00    +0.000 C 
BRANCH  13  14
ATOM     14  N   UNL     1      -2.092  11.154  18.501  0.00  0.00    +0.000 N 
ATOM     15  C   UNL     1      -3.431  11.604  18.208  0.00  0.00    +0.000 C 
ATOM     16  C   UNL     1      -4.007  10.454  17.402  0.00  0.00    +0.000 C 
ATOM     17  C   UNL     1      -2.805   9.909  16.644  0.00  0.00    +0.000 C 
ATOM     18  C   UNL     1      -1.655  10.213  17.576  0.00  0.00    +0.000 C 
ATOM     19  O   UNL     1      -0.526   9.761  17.474  0.00  0.00    +0.000 OA
ENDBRANCH  13  14
ENDBRANCH  12  13
ENDBRANCH  11  12
ENDBRANCH   9  11
ENDBRANCH   4   7
BRANCH   1  20
ATOM     20  S   UNL     1       2.486   3.203  17.854  0.00  0.00    +0.000 S 
ATOM     21  O   UNL     1       2.214   3.445  16.454  0.00  0.00    +0.000 OA
ATOM     22  O   UNL     1       1.832   2.128  18.571  0.00  0.00    +0.000 OA
BRANCH  20  23
ATOM     23  N   UNL     1       4.138   2.978  18.083  0.00  0.00    +0.000 N 
ATOM     24  H   UNL     1       4.478   2.051  17.831  0.00  0.00    +0.000 HD
BRANCH  23  29
ATOM     25  C   UNL     1       7.649   7.471  17.603  0.00  0.00    +0.000 C 
ATOM     26  C   UNL     1       6.727   6.293  17.735  0.00  0.00    +0.000 A 
ATOM     27  C   UNL     1       6.084   5.758  16.612  0.00  0.00    +0.000 A 
ATOM     28  C   UNL     1       5.235   4.658  16.740  0.00  0.00    +0.000 A 
ATOM     29  C   UNL     1       5.024   4.080  17.991  0.00  0.00    +0.000 A 
ATOM     30  C   UNL     1       5.648   4.607  19.118  0.00  0.00    +0.000 A 
ATOM     31  C   UNL     1       6.497   5.710  18.988  0.00  0.00    +0.000 A 
ENDBRANCH  23  29
ENDBRANCH  20  23
ENDBRANCH   1  20
TORSDOF 8
ENDMDL
MODEL 5
REMARK VINA RESULT:      -7.8      0.960      1.488
REMARK  Name = 
REMARK  9 active torsions:
REMARK  status: ('A' for Active; 'I' for Inactive)
REMARK    1  A    between atoms: C_1  and  C_2
REMARK    2  A    between atoms: C_5  and  N_6
REMARK    3  A    between atoms: N_6  and  S_7
REMARK    4  A    between atoms: S_7  and  C_10
REMARK    5  A    between atoms: C_13  and  C_14
REMARK    6  A    between atoms: N_16  and  C_17
REMARK    7  A    between atoms: C_17  and  C_18
REMARK    8  A    between atoms: C_18  and  C_19
REMARK    9  A    between atoms: C_19  and  N_20
REMARK                            x       y       z     vdW  Elec       q    Type
REMARK                         _______ _______ _______ _____ _____    ______ ____
ROOT
ATOM      1  C   UNL     1       1.334   8.968  19.629  0.00  0.00    +0.000 A 
ATOM      2  C   UNL     1       1.821   9.138  18.328  0.00  0.00    +0.000 A 
ATOM      3  C   UNL     1       2.655   8.160  17.761  0.00  0.00    +0.000 A 
ATOM      4  C   UNL     1       3.001   7.015  18.494  0.00  0.00    +0.000 A 
ATOM      5  C   UNL     1       2.530   6.875  19.809  0.00  0.00    +0.000 A 
ATOM      6  C   UNL     1       1.699   7.845  20.378  0.00  0.00    +0.000 A 
ENDROOT
BRANCH   4   7
ATOM      7  C   UNL     1       3.888   5.938  17.955  0.00  0.00    +0.000 C 
ATOM      8  O   UNL     1       5.097   5.986  18.157  0.00  0.00    +0.000 OA
ATOM      9  N   UNL     1       3.281   4.897  17.280  0.00  0.00    +0.000 N 
ATOM     10  H   UNL     1       2.272   4.826  17.271  0.00  0.00    +0.000 HD
BRANCH   9  11
ATOM     11  C   UNL     1       4.042   3.749  16.806  0.00  0.00    +0.000 C 
BRANCH  11  12
ATOM     12  C   UNL     1       4.456   2.822  17.950  0.00  0.00    +0.000 C 
BRANCH  12  13
ATOM     13  C   UNL     1       3.292   1.946  18.424  0.00  0.00    +0.000 C 
BRANCH  13  14
ATOM     14  N   UNL     1       2.482   2.594  19.448  0.00  0.00    +0.000 N 
ATOM     15  C   UNL     1       1.083   2.893  19.264  0.00  0.00    +0.000 C 
ATOM     16  C   UNL     1       0.738   3.684  20.513  0.00  0.00    +0.000 C 
ATOM     17  C   UNL     1       1.634   3.075  21.582  0.00  0.00    +0.000 C 
ATOM     18  C   UNL     1       2.839   2.621  20.791  0.00  0.00    +0.000 C 
ATOM     19  O   UNL     1       3.904   2.269  21.269  0.00  0.00    +0.000 OA
ENDBRANCH  13  14
ENDBRANCH  12  13
ENDBRANCH  11  12
ENDBRANCH   9  11
ENDBRANCH   4   7
BRANCH   1  20
ATOM     20  S   UNL     1       0.311  10.213  20.394  0.00  0.00    +0.000 S 
ATOM     21  O   UNL     1       1.145  11.047  21.231  0.00  0.00    +0.000 OA
ATOM     22  O   UNL     1      -0.841   9.520  20.934  0.00  0.00    +0.000 OA
BRANCH  20  23
ATOM     23  N   UNL     1      -0.254  11.105  19.083  0.00  0.00    +0.000 N 
ATOM     24  H   UNL     1       0.409  11.194  18.315  0.00  0.00    +0.000 HD
BRANCH  23  29
ATOM     25  C   UNL     1      -5.854  11.139  17.907  0.00  0.00    +0.000 C 
ATOM     26  C   UNL     1      -4.386  11.133  18.221  0.00  0.00    +0.000 A 
ATOM     27  C   UNL     1      -3.531  10.196  17.629  0.00  0.00    +0.000 A 
ATOM     28  C   UNL     1      -2.166  10.200  17.918  0.00  0.00    +0.000 A 
ATOM     29  C   UNL     1      -1.642  11.145  18.799  0.00  0.00    +0.000 A 
ATOM     30  C   UNL     1      -2.480  12.078  19.403  0.00  0.00    +0.000 A 
ATOM     31  C   UNL     1      -3.848  12.070  19.112  0.00  0.00    +0.000 A 
ENDBRANCH  23  29
ENDBRANCH  20  23
ENDBRANCH   1  20
TORSDOF 8
ENDMDL
MODEL 6
REMARK VINA RESULT:      -7.7      2.465      4.538
REMARK  Name = 
REMARK  9 active torsions:
REMARK  status: ('A' for Active; 'I' for Inactive)
REMARK    1  A    between atoms: C_1  and  C_2
REMARK    2  A    between atoms: C_5  and  N_6
REMARK    3  A    between atoms: N_6  and  S_7
REMARK    4  A    between atoms: S_7  and  C_10
REMARK    5  A    between atoms: C_13  and  C_14
REMARK    6  A    between atoms: N_16  and  C_17
REMARK    7  A    between atoms: C_17  and  C_18
REMARK    8  A    between atoms: C_18  and  C_19
REMARK    9  A    between atoms: C_19  and  N_20
REMARK                            x       y       z     vdW  Elec       q    Type
REMARK                         _______ _______ _______ _____ _____    ______ ____
ROOT
ATOM      1  C   UNL     1       1.655   8.773  19.176  0.00  0.00    +0.000 A 
ATOM      2  C   UNL     1       1.731   7.711  20.084  0.00  0.00    +0.000 A 
ATOM      3  C   UNL     1       2.480   6.567  19.760  0.00  0.00    +0.000 A 
ATOM      4  C   UNL     1       3.151   6.486  18.531  0.00  0.00    +0.000 A 
ATOM      5  C   UNL     1       3.040   7.547  17.619  0.00  0.00    +0.000 A 
ATOM      6  C   UNL     1       2.296   8.688  17.936  0.00  0.00    +0.000 A 
ENDROOT
BRANCH   4   7
ATOM      7  C   UNL     1       3.961   5.298  18.121  0.00  0.00    +0.000 C 
ATOM      8  O   UNL     1       3.396   4.282  17.728  0.00  0.00    +0.000 OA
ATOM      9  N   UNL     1       5.336   5.423  18.162  0.00  0.00    +0.000 N 
ATOM     10  H   UNL     1       5.751   6.327  18.347  0.00  0.00    +0.000 HD
BRANCH   9  11
ATOM     11  C   UNL     1       6.213   4.362  17.686  0.00  0.00    +0.000 C 
BRANCH  11  12
ATOM     12  C   UNL     1       7.133   4.838  16.560  0.00  0.00    +0.000 C 
BRANCH  12  13
ATOM     13  C   UNL     1       6.344   5.440  15.394  0.00  0.00    +0.000 C 
BRANCH  13  14
ATOM     14  N   UNL     1       6.563   4.730  14.141  0.00  0.00    +0.000 N 
ATOM     15  C   UNL     1       5.546   3.925  13.510  0.00  0.00    +0.000 C 
ATOM     16  C   UNL     1       6.288   3.286  12.349  0.00  0.00    +0.000 C 
ATOM     17  C   UNL     1       7.303   4.347  11.947  0.00  0.00    +0.000 C 
ATOM     18  C   UNL     1       7.578   5.060  13.250  0.00  0.00    +0.000 C 
ATOM     19  O   UNL     1       8.492   5.844  13.446  0.00  0.00    +0.000 OA
ENDBRANCH  13  14
ENDBRANCH  12  13
ENDBRANCH  11  12
ENDBRANCH   9  11
ENDBRANCH   4   7
BRANCH   1  20
ATOM     20  S   UNL     1       0.676  10.219  19.537  0.00  0.00    +0.000 S 
ATOM     21  O   UNL     1       1.565  11.306  19.883  0.00  0.00    +0.000 OA
ATOM     22  O   UNL     1      -0.371   9.788  20.441  0.00  0.00    +0.000 OA
BRANCH  20  23
ATOM     23  N   UNL     1      -0.082  10.546  18.070  0.00  0.00    +0.000 N 
ATOM     24  H   UNL     1       0.414  10.199  17.251  0.00  0.00    +0.000 HD
BRANCH  23  29
ATOM     25  C   UNL     1      -5.762  11.202  17.852  0.00  0.00    +0.000 C 
ATOM     26  C   UNL     1      -4.272  11.026  17.904  0.00  0.00    +0.000 A 
ATOM     27  C   UNL     1      -3.462  11.970  18.547  0.00  0.00    +0.000 A 
ATOM     28  C   UNL     1      -2.078  11.797  18.599  0.00  0.00    +0.000 A 
ATOM     29  C   UNL     1      -1.492  10.676  18.014  0.00  0.00    +0.000 A 
ATOM     30  C   UNL     1      -2.283   9.733  17.363  0.00  0.00    +0.000 A 
ATOM     31  C   UNL     1      -3.669   9.910  17.311  0.00  0.00    +0.000 A 
ENDBRANCH  23  29
ENDBRANCH  20  23
ENDBRANCH   1  20
TORSDOF 8
ENDMDL
MODEL 7
REMARK VINA RESULT:      -7.7      1.988      3.888
REMARK  Name = 
REMARK  9 active torsions:
REMARK  status: ('A' for Active; 'I' for Inactive)
REMARK    1  A    between atoms: C_1  and  C_2
REMARK    2  A    between atoms: C_5  and  N_6
REMARK    3  A    between atoms: N_6  and  S_7
REMARK    4  A    between atoms: S_7  and  C_10
REMARK    5  A    between atoms: C_13  and  C_14
REMARK    6  A    between atoms: N_16  and  C_17
REMARK    7  A    between atoms: C_17  and  C_18
REMARK    8  A    between atoms: C_18  and  C_19
REMARK    9  A    between atoms: C_19  and  N_20
REMARK                            x       y       z     vdW  Elec       q    Type
REMARK                         _______ _______ _______ _____ _____    ______ ____
ROOT
ATOM      1  C   UNL     1       1.519   8.027  20.338  0.00  0.00    +0.000 A 
ATOM      2  C   UNL     1       1.610   6.783  20.971  0.00  0.00    +0.000 A 
ATOM      3  C   UNL     1       2.367   5.754  20.385  0.00  0.00    +0.000 A 
ATOM      4  C   UNL     1       3.030   5.969  19.168  0.00  0.00    +0.000 A 
ATOM      5  C   UNL     1       2.902   7.213  18.530  0.00  0.00    +0.000 A 
ATOM      6  C   UNL     1       2.152   8.241  19.109  0.00  0.00    +0.000 A 
ENDROOT
BRANCH   4   7
ATOM      7  C   UNL     1       3.846   4.918  18.487  0.00  0.00    +0.000 C 
ATOM      8  O   UNL     1       4.579   4.190  19.149  0.00  0.00    +0.000 OA
ATOM      9  N   UNL     1       3.695   4.786  17.120  0.00  0.00    +0.000 N 
ATOM     10  H   UNL     1       2.970   5.304  16.643  0.00  0.00    +0.000 HD
BRANCH   9  11
ATOM     11  C   UNL     1       4.366   3.726  16.378  0.00  0.00    +0.000 C 
BRANCH  11  12
ATOM     12  C   UNL     1       5.234   4.278  15.246  0.00  0.00    +0.000 C 
BRANCH  12  13
ATOM     13  C   UNL     1       6.721   4.277  15.615  0.00  0.00    +0.000 C 
BRANCH  13  14
ATOM     14  N   UNL     1       7.072   5.350  16.536  0.00  0.00    +0.000 N 
ATOM     15  C   UNL     1       6.454   6.652  16.492  0.00  0.00    +0.000 C 
ATOM     16  C   UNL     1       7.246   7.440  17.519  0.00  0.00    +0.000 C 
ATOM     17  C   UNL     1       7.614   6.397  18.565  0.00  0.00    +0.000 C 
ATOM     18  C   UNL     1       7.705   5.126  17.753  0.00  0.00    +0.000 C 
ATOM     19  O   UNL     1       8.185   4.074  18.142  0.00  0.00    +0.000 OA
ENDBRANCH  13  14
ENDBRANCH  12  13
ENDBRANCH  11  12
ENDBRANCH   9  11
ENDBRANCH   4   7
BRANCH   1  20
ATOM     20  S   UNL     1       0.530   9.338  21.032  0.00  0.00    +0.000 S 
ATOM     21  O   UNL     1       1.216   9.872  22.189  0.00  0.00    +0.000 OA
ATOM     22  O   UNL     1      -0.820   8.823  21.131  0.00  0.00    +0.000 OA
BRANCH  20  23
ATOM     23  N   UNL     1       0.501  10.489  19.805  0.00  0.00    +0.000 N 
ATOM     24  H   UNL     1       1.398  10.642  19.347  0.00  0.00    +0.000 HD
BRANCH  23  29
ATOM     25  C   UNL     1      -4.299  11.269  16.789  0.00  0.00    +0.000 C 
ATOM     26  C   UNL     1      -3.042  11.067  17.586  0.00  0.00    +0.000 A 
ATOM     27  C   UNL     1      -2.060  10.166  17.157  0.00  0.00    +0.000 A 
ATOM     28  C   UNL     1      -0.890   9.989  17.896  0.00  0.00    +0.000 A 
ATOM     29  C   UNL     1      -0.690  10.713  19.071  0.00  0.00    +0.000 A 
ATOM     30  C   UNL     1      -1.661  11.605  19.516  0.00  0.00    +0.000 A 
ATOM     31  C   UNL     1      -2.833  11.780  18.773  0.00  0.00    +0.000 A 
ENDBRANCH  23  29
ENDBRANCH  20  23
ENDBRANCH   1  20
TORSDOF 8
ENDMDL
MODEL 8
REMARK VINA RESULT:      -7.7      2.040      3.738
REMARK  Name = 
REMARK  9 active torsions:
REMARK  status: ('A' for Active; 'I' for Inactive)
REMARK    1  A    between atoms: C_1  and  C_2
REMARK    2  A    between atoms: C_5  and  N_6
REMARK    3  A    between atoms: N_6  and  S_7
REMARK    4  A    between atoms: S_7  and  C_10
REMARK    5  A    between atoms: C_13  and  C_14
REMARK    6  A    between atoms: N_16  and  C_17
REMARK    7  A    between atoms: C_17  and  C_18
REMARK    8  A    between atoms: C_18  and  C_19
REMARK    9  A    between atoms: C_19  and  N_20
REMARK                            x       y       z     vdW  Elec       q    Type
REMARK                         _______ _______ _______ _____ _____    ______ ____
ROOT
ATOM      1  C   UNL     1       1.532   7.931  20.461  0.00  0.00    +0.000 A 
ATOM      2  C   UNL     1       1.478   6.677  21.078  0.00  0.00    +0.000 A 
ATOM      3  C   UNL     1       2.092   5.570  20.467  0.00  0.00    +0.000 A 
ATOM      4  C   UNL     1       2.758   5.719  19.241  0.00  0.00    +0.000 A 
ATOM      5  C   UNL     1       2.776   6.978  18.620  0.00  0.00    +0.000 A 
ATOM      6  C   UNL     1       2.168   8.082  19.224  0.00  0.00    +0.000 A 
ENDROOT
BRANCH   4   7
ATOM      7  C   UNL     1       3.428   4.584  18.534  0.00  0.00    +0.000 C 
ATOM      8  O   UNL     1       3.553   3.503  19.099  0.00  0.00    +0.000 OA
ATOM      9  N   UNL     1       3.838   4.803  17.233  0.00  0.00    +0.000 N 
ATOM     10  H   UNL     1       3.577   5.659  16.762  0.00  0.00    +0.000 HD
BRANCH   9  11
ATOM     11  C   UNL     1       4.406   3.733  16.423  0.00  0.00    +0.000 C 
BRANCH  11  12
ATOM     12  C   UNL     1       5.352   4.268  15.346  0.00  0.00    +0.000 C 
BRANCH  12  13
ATOM     13  C   UNL     1       6.817   4.191  15.785  0.00  0.00    +0.000 C 
BRANCH  13  14
ATOM     14  N   UNL     1       7.090   4.986  16.975  0.00  0.00    +0.000 N 
ATOM     15  C   UNL     1       7.982   4.549  18.020  0.00  0.00    +0.000 C 
ATOM     16  C   UNL     1       7.814   5.621  19.082  0.00  0.00    +0.000 C 
ATOM     17  C   UNL     1       7.549   6.885  18.276  0.00  0.00    +0.000 C 
ATOM     18  C   UNL     1       6.860   6.356  17.040  0.00  0.00    +0.000 C 
ATOM     19  O   UNL     1       6.273   7.036  16.214  0.00  0.00    +0.000 OA
ENDBRANCH  13  14
ENDBRANCH  12  13
ENDBRANCH  11  12
ENDBRANCH   9  11
ENDBRANCH   4   7
BRANCH   1  20
ATOM     20  S   UNL     1       0.724   9.345  21.188  0.00  0.00    +0.000 S 
ATOM     21  O   UNL     1       1.550   9.846  22.264  0.00  0.00    +0.000 OA
ATOM     22  O   UNL     1      -0.653   8.957  21.414  0.00  0.00    +0.000 OA
BRANCH  20  23
ATOM     23  N   UNL     1       0.693  10.460  19.927  0.00  0.00    +0.000 N 
ATOM     24  H   UNL     1       1.597  10.631  19.491  0.00  0.00    +0.000 HD
BRANCH  23  29
ATOM     25  C   UNL     1      -4.066  11.237  16.846  0.00  0.00    +0.000 C 
ATOM     26  C   UNL     1      -2.814  11.031  17.649  0.00  0.00    +0.000 A 
ATOM     27  C   UNL     1      -2.583  11.768  18.817  0.00  0.00    +0.000 A 
ATOM     28  C   UNL     1      -1.422  11.566  19.564  0.00  0.00    +0.000 A 
ATOM     29  C   UNL     1      -0.483  10.621  19.153  0.00  0.00    +0.000 A 
ATOM     30  C   UNL     1      -0.693   9.888  17.989  0.00  0.00    +0.000 A 
ATOM     31  C   UNL     1      -1.857  10.093  17.241  0.00  0.00    +0.000 A 
ENDBRANCH  23  29
ENDBRANCH  20  23
ENDBRANCH   1  20
TORSDOF 8
ENDMDL
MODEL 9
REMARK VINA RESULT:      -7.7      2.970      9.023
REMARK  Name = 
REMARK  9 active torsions:
REMARK  status: ('A' for Active; 'I' for Inactive)
REMARK    1  A    between atoms: C_1  and  C_2
REMARK    2  A    between atoms: C_5  and  N_6
REMARK    3  A    between atoms: N_6  and  S_7
REMARK    4  A    between atoms: S_7  and  C_10
REMARK    5  A    between atoms: C_13  and  C_14
REMARK    6  A    between atoms: N_16  and  C_17
REMARK    7  A    between atoms: C_17  and  C_18
REMARK    8  A    between atoms: C_18  and  C_19
REMARK    9  A    between atoms: C_19  and  N_20
REMARK                            x       y       z     vdW  Elec       q    Type
REMARK                         _______ _______ _______ _____ _____    ______ ____
ROOT
ATOM      1  C   UNL     1       2.495   4.566  18.734  0.00  0.00    +0.000 A 
ATOM      2  C   UNL     1       2.530   5.726  17.953  0.00  0.00    +0.000 A 
ATOM      3  C   UNL     1       2.218   6.968  18.532  0.00  0.00    +0.000 A 
ATOM      4  C   UNL     1       1.873   7.048  19.889  0.00  0.00    +0.000 A 
ATOM      5  C   UNL     1       1.813   5.870  20.651  0.00  0.00    +0.000 A 
ATOM      6  C   UNL     1       2.123   4.632  20.080  0.00  0.00    +0.000 A 
ENDROOT
BRANCH   4   7
ATOM      7  C   UNL     1       1.525   8.334  20.568  0.00  0.00    +0.000 C 
ATOM      8  O   UNL     1       1.273   9.329  19.896  0.00  0.00    +0.000 OA
ATOM      9  N   UNL     1       1.457   8.324  21.947  0.00  0.00    +0.000 N 
ATOM     10  H   UNL     1       1.524   7.447  22.446  0.00  0.00    +0.000 HD
BRANCH   9  11
ATOM     11  C   UNL     1       1.027   9.496  22.697  0.00  0.00    +0.000 C 
BRANCH  11  12
ATOM     12  C   UNL     1      -0.495   9.655  22.694  0.00  0.00    +0.000 C 
BRANCH  12  13
ATOM     13  C   UNL     1      -0.920  11.094  23.000  0.00  0.00    +0.000 C 
BRANCH  13  14
ATOM     14  N   UNL     1      -1.147  11.882  21.796  0.00  0.00    +0.000 N 
ATOM     15  C   UNL     1      -2.464  12.250  21.340  0.00  0.00    +0.000 C 
ATOM     16  C   UNL     1      -2.188  12.911  20.001  0.00  0.00    +0.000 C 
ATOM     17  C   UNL     1      -0.834  13.575  20.202  0.00  0.00    +0.000 C 
ATOM     18  C   UNL     1      -0.164  12.672  21.211  0.00  0.00    +0.000 C 
ATOM     19  O   UNL     1       1.020  12.698  21.505  0.00  0.00    +0.000 OA
ENDBRANCH  13  14
ENDBRANCH  12  13
ENDBRANCH  11  12
ENDBRANCH   9  11
ENDBRANCH   4   7
BRANCH   1  20
ATOM     20  S   UNL     1       2.841   2.969  18.018  0.00  0.00    +0.000 S 
ATOM     21  O   UNL     1       2.433   2.986  16.630  0.00  0.00    +0.000 OA
ATOM     22  O   UNL     1       2.318   1.985  18.942  0.00  0.00    +0.000 OA
BRANCH  20  23
ATOM     23  N   UNL     1       4.517   2.858  18.118  0.00  0.00    +0.000 N 
ATOM     24  H   UNL     1       4.901   1.965  17.813  0.00  0.00    +0.000 HD
BRANCH  23  29
ATOM     25  C   UNL     1       7.672   7.593  17.511  0.00  0.00    +0.000 C 
ATOM     26  C   UNL     1       6.843   6.352  17.676  0.00  0.00    +0.000 A 
ATOM     27  C   UNL     1       6.310   5.694  16.562  0.00  0.00    +0.000 A 
ATOM     28  C   UNL     1       5.547   4.536  16.721  0.00  0.00    +0.000 A 
ATOM     29  C   UNL     1       5.314   4.023  17.996  0.00  0.00    +0.000 A 
ATOM     30  C   UNL     1       5.830   4.671  19.114  0.00  0.00    +0.000 A 
ATOM     31  C   UNL     1       6.593   5.832  18.952  0.00  0.00    +0.000 A 
ENDBRANCH  23  29
ENDBRANCH  20  23
ENDBRANCH   1  20
TORSDOF 8
ENDMDL
