MODEL 1
REMARK VINA RESULT:      -7.2      0.000      0.000
REMARK  Name = 
REMARK  8 active torsions:
REMARK  status: ('A' for Active; 'I' for Inactive)
REMARK    1  A    between atoms: C_1  and  C_2
REMARK    2  A    between atoms: C_4  and  C_5
REMARK    3  A    between atoms: N_6  and  C_7
REMARK    4  A    between atoms: C_7  and  C_8
REMARK    5  A    between atoms: N_10  and  N_11
REMARK    6  A    between atoms: C_12  and  C_13
REMARK    7  A    between atoms: C_15  and  N_16
REMARK    8  A    between atoms: C_21  and  O_22
REMARK                            x       y       z     vdW  Elec       q    Type
REMARK                         _______ _______ _______ _____ _____    ______ ____
ROOT
ATOM      1  N   UNL     1       2.416   5.004  19.231  0.00  0.00    +0.000 NA
ATOM      2  C   UNL     1       2.736   6.023  19.957  0.00  0.00    +0.000 C 
ENDROOT
BRANCH   2   3
ATOM      3  C   UNL     1       2.235   7.350  19.541  0.00  0.00    +0.000 A 
ATOM      4  C   UNL     1       1.490   8.112  20.458  0.00  0.00    +0.000 A 
ATOM      5  C   UNL     1       1.033   9.378  20.093  0.00  0.00    +0.000 A 
ATOM      6  C   UNL     1       1.320   9.894  18.821  0.00  0.00    +0.000 A 
ATOM      7  C   UNL     1       2.058   9.129  17.910  0.00  0.00    +0.000 A 
ATOM      8  C   UNL     1       2.512   7.858  18.269  0.00  0.00    +0.000 A 
BRANCH   5   9
ATOM      9  N   UNL     1       0.241  10.173  21.043  0.00  0.00    +0.000 N 
ATOM     10  O   UNL     1       0.661  10.287  22.200  0.00  0.00    +0.000 OA
ATOM     11  O   UNL     1      -0.816  10.668  20.627  0.00  0.00    +0.000 OA
ENDBRANCH   5   9
BRANCH   8  12
ATOM     12  O   UNL     1       3.235   7.115  17.381  0.00  0.00    +0.000 OA
ATOM     13  H   UNL     1       3.561   6.312  17.823  0.00  0.00    +0.000 HD
ENDBRANCH   8  12
ENDBRANCH   2   3
BRANCH   1  16
ATOM     14  C   UNL     1       3.576   3.026  18.732  0.00  0.00    +0.000 C 
ATOM     15  O   UNL     1       3.962   1.900  19.051  0.00  0.00    +0.000 OA
ATOM     16  N   UNL     1       2.812   3.777  19.601  0.00  0.00    +0.000 N 
ATOM     17  H   UNL     1       2.536   3.370  20.489  0.00  0.00    +0.000 HD
BRANCH  14  18
ATOM     18  C   UNL     1       3.938   3.670  17.405  0.00  0.00    +0.000 C 
BRANCH  18  24
ATOM     19  C   UNL     1       7.889   5.707  19.321  0.00  0.00    +0.000 C 
ATOM     20  C   UNL     1       7.011   5.122  18.279  0.00  0.00    +0.000 A 
ATOM     21  C   UNL     1       7.320   4.870  16.927  0.00  0.00    +0.000 A 
ATOM     22  C   UNL     1       6.183   4.304  16.389  0.00  0.00    +0.000 A 
ATOM     23  C   UNL     1       5.927   3.801  15.018  0.00  0.00    +0.000 C 
ATOM     24  N   UNL     1       5.261   4.275  17.410  0.00  0.00    +0.000 N 
ATOM     25  N   UNL     1       5.762   4.749  18.575  0.00  0.00    +0.000 NA
ENDBRANCH  18  24
ENDBRANCH  14  18
ENDBRANCH   1  16
TORSDOF 6
ENDMDL
MODEL 2
REMARK VINA RESULT:      -6.9      2.620      7.127
REMARK  Name = 
REMARK  8 active torsions:
REMARK  status: ('A' for Active; 'I' for Inactive)
REMARK    1  A    between atoms: C_1  and  C_2
REMARK    2  A    between atoms: C_4  and  C_5
REMARK    3  A    between atoms: N_6  and  C_7
REMARK    4  A    between atoms: C_7  and  C_8
REMARK    5  A    between atoms: N_10  and  N_11
REMARK    6  A    between atoms: C_12  and  C_13
REMARK    7  A    between atoms: C_15  and  N_16
REMARK    8  A    between atoms: C_21  and  O_22
REMARK                            x       y       z     vdW  Elec       q    Type
REMARK                         _______ _______ _______ _____ _____    ______ ____
ROOT
ATOM      1  N   UNL     1       3.130   4.424  18.109  0.00  0.00    +0.000 NA
ATOM      2  C   UNL     1       3.972   3.535  17.696  0.00  0.00    +0.000 C 
ENDROOT
BRANCH   2   3
ATOM      3  C   UNL     1       5.245   4.010  17.114  0.00  0.00    +0.000 A 
ATOM      4  C   UNL     1       5.393   4.008  15.716  0.00  0.00    +0.000 A 
ATOM      5  C   UNL     1       6.576   4.479  15.147  0.00  0.00    +0.000 A 
ATOM      6  C   UNL     1       7.611   4.961  15.962  0.00  0.00    +0.000 A 
ATOM      7  C   UNL     1       7.459   4.958  17.353  0.00  0.00    +0.000 A 
ATOM      8  C   UNL     1       6.279   4.480  17.928  0.00  0.00    +0.000 A 
BRANCH   5   9
ATOM      9  N   UNL     1       6.743   4.465  13.686  0.00  0.00    +0.000 N 
ATOM     10  O   UNL     1       6.099   3.636  13.034  0.00  0.00    +0.000 OA
ATOM     11  O   UNL     1       7.539   5.280  13.197  0.00  0.00    +0.000 OA
ENDBRANCH   5   9
BRANCH   8  12
ATOM     12  O   UNL     1       6.131   4.480  19.285  0.00  0.00    +0.000 OA
ATOM     13  H   UNL     1       6.990   4.662  19.703  0.00  0.00    +0.000 HD
ENDBRANCH   8  12
ENDBRANCH   2   3
BRANCH   1  16
ATOM     14  C   UNL     1       1.569   4.658  19.844  0.00  0.00    +0.000 C 
ATOM     15  O   UNL     1       0.514   4.326  20.390  0.00  0.00    +0.000 OA
ATOM     16  N   UNL     1       1.985   4.032  18.687  0.00  0.00    +0.000 N 
ATOM     17  H   UNL     1       1.432   3.266  18.318  0.00  0.00    +0.000 HD
BRANCH  14  18
ATOM     18  C   UNL     1       2.445   5.780  20.371  0.00  0.00    +0.000 C 
BRANCH  18  24
ATOM     19  C   UNL     1      -0.007   9.697  21.811  0.00  0.00    +0.000 C 
ATOM     20  C   UNL     1       0.790   8.827  20.914  0.00  0.00    +0.000 A 
ATOM     21  C   UNL     1       1.302   9.135  19.637  0.00  0.00    +0.000 A 
ATOM     22  C   UNL     1       1.985   8.008  19.231  0.00  0.00    +0.000 A 
ATOM     23  C   UNL     1       2.756   7.757  17.991  0.00  0.00    +0.000 C 
ATOM     24  N   UNL     1       1.827   7.091  20.245  0.00  0.00    +0.000 N 
ATOM     25  N   UNL     1       1.120   7.587  21.288  0.00  0.00    +0.000 NA
ENDBRANCH  18  24
ENDBRANCH  14  18
ENDBRANCH   1  16
TORSDOF 6
ENDMDL
MODEL 3
REMARK VINA RESULT:      -6.8      2.670      7.827
REMARK  Name = 
REMARK  8 active torsions:
REMARK  status: ('A' for Active; 'I' for Inactive)
REMARK    1  A    between atoms: C_1  and  C_2
REMARK    2  A    between atoms: C_4  and  C_5
REMARK    3  A    between atoms: N_6  and  C_7
REMARK    4  A    between atoms: C_7  and  C_8
REMARK    5  A    between atoms: N_10  and  N_11
REMARK    6  A    between atoms: C_12  and  C_13
REMARK    7  A    between atoms: C_15  and  N_16
REMARK    8  A    between atoms: C_21  and  O_22
REMARK                            x       y       z     vdW  Elec       q    Type
REMARK                         _______ _______ _______ _____ _____    ______ ____
ROOT
ATOM      1  N   UNL     1       2.391   7.018  19.643  0.00  0.00    +0.000 NA
ATOM      2  C   UNL     1       2.999   5.908  19.905  0.00  0.00    +0.000 C 
ENDROOT
BRANCH   2   3
ATOM      3  C   UNL     1       3.764   5.268  18.815  0.00  0.00    +0.000 A 
ATOM      4  C   UNL     1       5.169   5.285  18.870  0.00  0.00    +0.000 A 
ATOM      5  C   UNL     1       5.907   4.662  17.865  0.00  0.00    +0.000 A 
ATOM      6  C   UNL     1       5.255   4.013  16.807  0.00  0.00    +0.000 A 
ATOM      7  C   UNL     1       3.856   4.002  16.754  0.00  0.00    +0.000 A 
ATOM      8  C   UNL     1       3.112   4.631  17.755  0.00  0.00    +0.000 A 
BRANCH   5   9
ATOM      9  N   UNL     1       7.376   4.690  17.911  0.00  0.00    +0.000 N 
ATOM     10  O   UNL     1       7.998   4.382  16.888  0.00  0.00    +0.000 OA
ATOM     11  O   UNL     1       7.905   5.008  18.986  0.00  0.00    +0.000 OA
ENDBRANCH   5   9
BRANCH   8  12
ATOM     12  O   UNL     1       1.749   4.617  17.704  0.00  0.00    +0.000 OA
ATOM     13  H   UNL     1       1.451   5.064  16.893  0.00  0.00    +0.000 HD
ENDBRANCH   8  12
ENDBRANCH   2   3
BRANCH   1  16
ATOM     14  C   UNL     1       1.173   8.891  20.357  0.00  0.00    +0.000 C 
ATOM     15  O   UNL     1       0.547   9.494  21.232  0.00  0.00    +0.000 OA
ATOM     16  N   UNL     1       1.726   7.654  20.618  0.00  0.00    +0.000 N 
ATOM     17  H   UNL     1       1.646   7.269  21.553  0.00  0.00    +0.000 HD
BRANCH  14  18
ATOM     18  C   UNL     1       1.344   9.436  18.951  0.00  0.00    +0.000 C 
BRANCH  18  24
ATOM     19  C   UNL     1      -3.084  10.305  17.199  0.00  0.00    +0.000 C 
ATOM     20  C   UNL     1      -1.756  10.601  17.788  0.00  0.00    +0.000 A 
ATOM     21  C   UNL     1      -1.260  11.845  18.228  0.00  0.00    +0.000 A 
ATOM     22  C   UNL     1       0.005  11.588  18.710  0.00  0.00    +0.000 A 
ATOM     23  C   UNL     1       0.993  12.503  19.330  0.00  0.00    +0.000 C 
ATOM     24  N   UNL     1       0.214  10.242  18.513  0.00  0.00    +0.000 N 
ATOM     25  N   UNL     1      -0.863   9.624  17.973  0.00  0.00    +0.000 NA
ENDBRANCH  18  24
ENDBRANCH  14  18
ENDBRANCH   1  16
TORSDOF 6
ENDMDL
MODEL 4
REMARK VINA RESULT:      -6.8      2.250      4.117
REMARK  Name = 
REMARK  8 active torsions:
REMARK  status: ('A' for Active; 'I' for Inactive)
REMARK    1  A    between atoms: C_1  and  C_2
REMARK    2  A    between atoms: C_4  and  C_5
REMARK    3  A    between atoms: N_6  and  C_7
REMARK    4  A    between atoms: C_7  and  C_8
REMARK    5  A    between atoms: N_10  and  N_11
REMARK    6  A    between atoms: C_12  and  C_13
REMARK    7  A    between atoms: C_15  and  N_16
REMARK    8  A    between atoms: C_21  and  O_22
REMARK                            x       y       z     vdW  Elec       q    Type
REMARK                         _______ _______ _______ _____ _____    ______ ____
ROOT
ATOM      1  N   UNL     1       5.782   4.677  19.291  0.00  0.00    +0.000 NA
ATOM      2  C   UNL     1       4.800   3.861  19.490  0.00  0.00    +0.000 C 
ENDROOT
BRANCH   2   3
ATOM      3  C   UNL     1       3.481   4.439  19.824  0.00  0.00    +0.000 A 
ATOM      4  C   UNL     1       3.304   5.830  19.718  0.00  0.00    +0.000 A 
ATOM      5  C   UNL     1       2.058   6.390  20.002  0.00  0.00    +0.000 A 
ATOM      6  C   UNL     1       0.985   5.572  20.383  0.00  0.00    +0.000 A 
ATOM      7  C   UNL     1       1.168   4.189  20.490  0.00  0.00    +0.000 A 
ATOM      8  C   UNL     1       2.415   3.624  20.213  0.00  0.00    +0.000 A 
BRANCH   5   9
ATOM      9  N   UNL     1       1.872   7.845  19.908  0.00  0.00    +0.000 N 
ATOM     10  O   UNL     1       2.103   8.394  18.826  0.00  0.00    +0.000 OA
ATOM     11  O   UNL     1       1.507   8.439  20.934  0.00  0.00    +0.000 OA
ENDBRANCH   5   9
BRANCH   8  12
ATOM     12  O   UNL     1       2.592   2.275  20.315  0.00  0.00    +0.000 OA
ATOM     13  H   UNL     1       3.230   1.981  19.642  0.00  0.00    +0.000 HD
ENDBRANCH   8  12
ENDBRANCH   2   3
BRANCH   1  16
ATOM     14  C   UNL     1       7.557   4.618  17.758  0.00  0.00    +0.000 C 
ATOM     15  O   UNL     1       8.665   4.199  17.416  0.00  0.00    +0.000 OA
ATOM     16  N   UNL     1       6.983   4.195  18.940  0.00  0.00    +0.000 N 
ATOM     17  H   UNL     1       7.467   3.501  19.499  0.00  0.00    +0.000 HD
BRANCH  14  18
ATOM     18  C   UNL     1       6.779   5.636  16.943  0.00  0.00    +0.000 C 
BRANCH  18  24
ATOM     19  C   UNL     1       7.564   4.794  12.242  0.00  0.00    +0.000 C 
ATOM     20  C   UNL     1       6.857   4.764  13.545  0.00  0.00    +0.000 A 
ATOM     21  C   UNL     1       5.651   4.106  13.862  0.00  0.00    +0.000 A 
ATOM     22  C   UNL     1       5.431   4.365  15.198  0.00  0.00    +0.000 A 
ATOM     23  C   UNL     1       4.338   3.908  16.090  0.00  0.00    +0.000 C 
ATOM     24  N   UNL     1       6.471   5.172  15.599  0.00  0.00    +0.000 N 
ATOM     25  N   UNL     1       7.362   5.402  14.605  0.00  0.00    +0.000 NA
ENDBRANCH  18  24
ENDBRANCH  14  18
ENDBRANCH   1  16
TORSDOF 6
ENDMDL
MODEL 5
REMARK VINA RESULT:      -6.7      2.570      7.636
REMARK  Name = 
REMARK  8 active torsions:
REMARK  status: ('A' for Active; 'I' for Inactive)
REMARK    1  A    between atoms: C_1  and  C_2
REMARK    2  A    between atoms: C_4  and  C_5
REMARK    3  A    between atoms: N_6  and  C_7
REMARK    4  A    between atoms: C_7  and  C_8
REMARK    5  A    between atoms: N_10  and  N_11
REMARK    6  A    between atoms: C_12  and  C_13
REMARK    7  A    between atoms: C_15  and  N_16
REMARK    8  A    between atoms: C_21  and  O_22
REMARK                            x       y       z     vdW  Elec       q    Type
REMARK                         _______ _______ _______ _____ _____    ______ ____
ROOT
ATOM      1  N   UNL     1       2.340   6.868  19.585  0.00  0.00    +0.000 NA
ATOM      2  C   UNL     1       3.283   6.008  19.785  0.00  0.00    +0.000 C 
ENDROOT
BRANCH   2   3
ATOM      3  C   UNL     1       3.862   5.335  18.603  0.00  0.00    +0.000 A 
ATOM      4  C   UNL     1       5.218   5.549  18.297  0.00  0.00    +0.000 A 
ATOM      5  C   UNL     1       5.789   4.899  17.203  0.00  0.00    +0.000 A 
ATOM      6  C   UNL     1       5.019   4.031  16.414  0.00  0.00    +0.000 A 
ATOM      7  C   UNL     1       3.670   3.825  16.722  0.00  0.00    +0.000 A 
ATOM      8  C   UNL     1       3.091   4.478  17.812  0.00  0.00    +0.000 A 
BRANCH   5   9
ATOM      9  N   UNL     1       7.202   5.131  16.869  0.00  0.00    +0.000 N 
ATOM     10  O   UNL     1       8.024   4.261  17.176  0.00  0.00    +0.000 OA
ATOM     11  O   UNL     1       7.486   6.202  16.312  0.00  0.00    +0.000 OA
ENDBRANCH   5   9
BRANCH   8  12
ATOM     12  O   UNL     1       1.776   4.274  18.112  0.00  0.00    +0.000 OA
ATOM     13  H   UNL     1       1.522   3.371  17.852  0.00  0.00    +0.000 HD
ENDBRANCH   8  12
ENDBRANCH   2   3
BRANCH   1  16
ATOM     14  C   UNL     1       1.267   8.782  20.417  0.00  0.00    +0.000 C 
ATOM     15  O   UNL     1       0.774   9.412  21.355  0.00  0.00    +0.000 OA
ATOM     16  N   UNL     1       1.822   7.536  20.627  0.00  0.00    +0.000 N 
ATOM     17  H   UNL     1       1.856   7.166  21.571  0.00  0.00    +0.000 HD
BRANCH  14  18
ATOM     18  C   UNL     1       1.265   9.301  18.991  0.00  0.00    +0.000 C 
BRANCH  18  24
ATOM     19  C   UNL     1       1.598  14.120  18.682  0.00  0.00    +0.000 C 
ATOM     20  C   UNL     1       0.954  12.785  18.699  0.00  0.00    +0.000 A 
ATOM     21  C   UNL     1      -0.402  12.472  18.471  0.00  0.00    +0.000 A 
ATOM     22  C   UNL     1      -0.486  11.100  18.576  0.00  0.00    +0.000 A 
ATOM     23  C   UNL     1      -1.653  10.202  18.402  0.00  0.00    +0.000 C 
ATOM     24  N   UNL     1       0.783  10.670  18.886  0.00  0.00    +0.000 N 
ATOM     25  N   UNL     1       1.677  11.686  18.939  0.00  0.00    +0.000 NA
ENDBRANCH  18  24
ENDBRANCH  14  18
ENDBRANCH   1  16
TORSDOF 6
ENDMDL
MODEL 6
REMARK VINA RESULT:      -6.7      2.527      6.988
REMARK  Name = 
REMARK  8 active torsions:
REMARK  status: ('A' for Active; 'I' for Inactive)
REMARK    1  A    between atoms: C_1  and  C_2
REMARK    2  A    between atoms: C_4  and  C_5
REMARK    3  A    between atoms: N_6  and  C_7
REMARK    4  A    between atoms: C_7  and  C_8
REMARK    5  A    between atoms: N_10  and  N_11
REMARK    6  A    between atoms: C_12  and  C_13
REMARK    7  A    between atoms: C_15  and  N_16
REMARK    8  A    between atoms: C_21  and  O_22
REMARK                            x       y       z     vdW  Elec       q    Type
REMARK                         _______ _______ _______ _____ _____    ______ ____
ROOT
ATOM      1  N   UNL     1       1.867   7.271  20.594  0.00  0.00    +0.000 NA
ATOM      2  C   UNL     1       1.918   5.992  20.768  0.00  0.00    +0.000 C 
ENDROOT
BRANCH   2   3
ATOM      3  C   UNL     1       2.150   5.144  19.580  0.00  0.00    +0.000 A 
ATOM      4  C   UNL     1       3.168   5.504  18.678  0.00  0.00    +0.000 A 
ATOM      5  C   UNL     1       3.420   4.700  17.567  0.00  0.00    +0.000 A 
ATOM      6  C   UNL     1       2.671   3.535  17.351  0.00  0.00    +0.000 A 
ATOM      7  C   UNL     1       1.657   3.183  18.250  0.00  0.00    +0.000 A 
ATOM      8  C   UNL     1       1.395   3.988  19.361  0.00  0.00    +0.000 A 
BRANCH   5   9
ATOM      9  N   UNL     1       4.472   5.080  16.613  0.00  0.00    +0.000 N 
ATOM     10  O   UNL     1       5.072   4.179  16.016  0.00  0.00    +0.000 OA
ATOM     11  O   UNL     1       4.706   6.290  16.477  0.00  0.00    +0.000 OA
ENDBRANCH   5   9
BRANCH   8  12
ATOM     12  O   UNL     1       0.409   3.643  20.238  0.00  0.00    +0.000 OA
ATOM     13  H   UNL     1       0.595   4.041  21.106  0.00  0.00    +0.000 HD
ENDBRANCH   8  12
ENDBRANCH   2   3
BRANCH   1  16
ATOM     14  C   UNL     1       0.920   9.205  21.526  0.00  0.00    +0.000 C 
ATOM     15  O   UNL     1       0.746   9.957  22.486  0.00  0.00    +0.000 OA
ATOM     16  N   UNL     1       1.705   8.077  21.653  0.00  0.00    +0.000 N 
ATOM     17  H   UNL     1       2.171   7.901  22.537  0.00  0.00    +0.000 HD
BRANCH  14  18
ATOM     18  C   UNL     1       0.268   9.437  20.175  0.00  0.00    +0.000 C 
BRANCH  18  24
ATOM     19  C   UNL     1       1.931  13.840  19.042  0.00  0.00    +0.000 C 
ATOM     20  C   UNL     1       1.722  12.377  18.924  0.00  0.00    +0.000 A 
ATOM     21  C   UNL     1       2.295  11.491  17.989  0.00  0.00    +0.000 A 
ATOM     22  C   UNL     1       1.803  10.244  18.312  0.00  0.00    +0.000 A 
ATOM     23  C   UNL     1       2.080   8.923  17.700  0.00  0.00    +0.000 C 
ATOM     24  N   UNL     1       0.955  10.442  19.378  0.00  0.00    +0.000 N 
ATOM     25  N   UNL     1       0.916  11.736  19.776  0.00  0.00    +0.000 NA
ENDBRANCH  18  24
ENDBRANCH  14  18
ENDBRANCH   1  16
TORSDOF 6
ENDMDL
MODEL 7
REMARK VINA RESULT:      -6.7      0.872      2.017
REMARK  Name = 
REMARK  8 active torsions:
REMARK  status: ('A' for Active; 'I' for Inactive)
REMARK    1  A    between atoms: C_1  and  C_2
REMARK    2  A    between atoms: C_4  and  C_5
REMARK    3  A    between atoms: N_6  and  C_7
REMARK    4  A    between atoms: C_7  and  C_8
REMARK    5  A    between atoms: N_10  and  N_11
REMARK    6  A    between atoms: C_12  and  C_13
REMARK    7  A    between atoms: C_15  and  N_16
REMARK    8  A    between atoms: C_21  and  O_22
REMARK                            x       y       z     vdW  Elec       q    Type
REMARK                         _______ _______ _______ _____ _____    ______ ____
ROOT
ATOM      1  N   UNL     1       2.943   5.301  18.976  0.00  0.00    +0.000 NA
ATOM      2  C   UNL     1       2.571   6.124  19.899  0.00  0.00    +0.000 C 
ENDROOT
BRANCH   2   3
ATOM      3  C   UNL     1       2.142   7.477  19.484  0.00  0.00    +0.000 A 
ATOM      4  C   UNL     1       1.367   8.244  20.371  0.00  0.00    +0.000 A 
ATOM      5  C   UNL     1       0.978   9.534  20.008  0.00  0.00    +0.000 A 
ATOM      6  C   UNL     1       1.362  10.067  18.770  0.00  0.00    +0.000 A 
ATOM      7  C   UNL     1       2.130   9.297  17.889  0.00  0.00    +0.000 A 
ATOM      8  C   UNL     1       2.517   8.003  18.245  0.00  0.00    +0.000 A 
BRANCH   5   9
ATOM      9  N   UNL     1       0.155  10.335  20.926  0.00  0.00    +0.000 N 
ATOM     10  O   UNL     1      -0.929  10.764  20.514  0.00  0.00    +0.000 OA
ATOM     11  O   UNL     1       0.610  10.548  22.059  0.00  0.00    +0.000 OA
ENDBRANCH   5   9
BRANCH   8  12
ATOM     12  O   UNL     1       3.269   7.254  17.387  0.00  0.00    +0.000 OA
ATOM     13  H   UNL     1       2.742   7.043  16.596  0.00  0.00    +0.000 HD
ENDBRANCH   8  12
ENDBRANCH   2   3
BRANCH   1  16
ATOM     14  C   UNL     1       4.631   3.742  19.450  0.00  0.00    +0.000 C 
ATOM     15  O   UNL     1       4.981   2.602  19.764  0.00  0.00    +0.000 OA
ATOM     16  N   UNL     1       3.294   4.050  19.307  0.00  0.00    +0.000 N 
ATOM     17  H   UNL     1       2.606   3.313  19.422  0.00  0.00    +0.000 HD
BRANCH  14  18
ATOM     18  C   UNL     1       5.622   4.873  19.240  0.00  0.00    +0.000 C 
BRANCH  18  24
ATOM     19  C   UNL     1       5.754   3.889  14.503  0.00  0.00    +0.000 C 
ATOM     20  C   UNL     1       6.114   4.549  15.780  0.00  0.00    +0.000 A 
ATOM     21  C   UNL     1       7.017   5.613  15.983  0.00  0.00    +0.000 A 
ATOM     22  C   UNL     1       6.982   5.874  17.336  0.00  0.00    +0.000 A 
ATOM     23  C   UNL     1       7.695   6.906  18.126  0.00  0.00    +0.000 C 
ATOM     24  N   UNL     1       6.106   4.957  17.871  0.00  0.00    +0.000 N 
ATOM     25  N   UNL     1       5.552   4.158  16.928  0.00  0.00    +0.000 NA
ENDBRANCH  18  24
ENDBRANCH  14  18
ENDBRANCH   1  16
TORSDOF 6
ENDMDL
MODEL 8
REMARK VINA RESULT:      -6.7      1.246      2.239
REMARK  Name = 
REMARK  8 active torsions:
REMARK  status: ('A' for Active; 'I' for Inactive)
REMARK    1  A    between atoms: C_1  and  C_2
REMARK    2  A    between atoms: C_4  and  C_5
REMARK    3  A    between atoms: N_6  and  C_7
REMARK    4  A    between atoms: C_7  and  C_8
REMARK    5  A    between atoms: N_10  and  N_11
REMARK    6  A    between atoms: C_12  and  C_13
REMARK    7  A    between atoms: C_15  and  N_16
REMARK    8  A    between atoms: C_21  and  O_22
REMARK                            x       y       z     vdW  Elec       q    Type
REMARK                         _______ _______ _______ _____ _____    ______ ____
ROOT
ATOM      1  N   UNL     1       2.236   5.661  19.260  0.00  0.00    +0.000 NA
ATOM      2  C   UNL     1       2.520   6.532  20.171  0.00  0.00    +0.000 C 
ENDROOT
BRANCH   2   3
ATOM      3  C   UNL     1       1.803   7.824  20.136  0.00  0.00    +0.000 A 
ATOM      4  C   UNL     1       1.218   8.308  21.320  0.00  0.00    +0.000 A 
ATOM      5  C   UNL     1       0.562   9.538  21.313  0.00  0.00    +0.000 A 
ATOM      6  C   UNL     1       0.491  10.296  20.135  0.00  0.00    +0.000 A 
ATOM      7  C   UNL     1       1.072   9.808  18.958  0.00  0.00    +0.000 A 
ATOM      8  C   UNL     1       1.724   8.573  18.958  0.00  0.00    +0.000 A 
BRANCH   5   9
ATOM      9  N   UNL     1      -0.064  10.041  22.544  0.00  0.00    +0.000 N 
ATOM     10  O   UNL     1       0.431   9.710  23.628  0.00  0.00    +0.000 OA
ATOM     11  O   UNL     1      -1.068  10.759  22.419  0.00  0.00    +0.000 OA
ENDBRANCH   5   9
BRANCH   8  12
ATOM     12  O   UNL     1       2.292   8.100  17.812  0.00  0.00    +0.000 OA
ATOM     13  H   UNL     1       3.243   7.954  17.959  0.00  0.00    +0.000 HD
ENDBRANCH   8  12
ENDBRANCH   2   3
BRANCH   1  16
ATOM     14  C   UNL     1       3.861   4.201  18.406  0.00  0.00    +0.000 C 
ATOM     15  O   UNL     1       4.432   3.108  18.415  0.00  0.00    +0.000 OA
ATOM     16  N   UNL     1       2.830   4.459  19.286  0.00  0.00    +0.000 N 
ATOM     17  H   UNL     1       2.521   3.722  19.910  0.00  0.00    +0.000 HD
BRANCH  14  18
ATOM     18  C   UNL     1       4.267   5.328  17.474  0.00  0.00    +0.000 C 
BRANCH  18  24
ATOM     19  C   UNL     1       6.128   3.739  13.298  0.00  0.00    +0.000 C 
ATOM     20  C   UNL     1       6.111   4.290  14.674  0.00  0.00    +0.000 A 
ATOM     21  C   UNL     1       7.205   4.737  15.443  0.00  0.00    +0.000 A 
ATOM     22  C   UNL     1       6.665   5.172  16.634  0.00  0.00    +0.000 A 
ATOM     23  C   UNL     1       7.326   5.777  17.815  0.00  0.00    +0.000 C 
ATOM     24  N   UNL     1       5.311   4.943  16.537  0.00  0.00    +0.000 N 
ATOM     25  N   UNL     1       4.957   4.427  15.336  0.00  0.00    +0.000 NA
ENDBRANCH  18  24
ENDBRANCH  14  18
ENDBRANCH   1  16
TORSDOF 6
ENDMDL
MODEL 9
REMARK VINA RESULT:      -6.7      2.461      7.926
REMARK  Name = 
REMARK  8 active torsions:
REMARK  status: ('A' for Active; 'I' for Inactive)
REMARK    1  A    between atoms: C_1  and  C_2
REMARK    2  A    between atoms: C_4  and  C_5
REMARK    3  A    between atoms: N_6  and  C_7
REMARK    4  A    between atoms: C_7  and  C_8
REMARK    5  A    between atoms: N_10  and  N_11
REMARK    6  A    between atoms: C_12  and  C_13
REMARK    7  A    between atoms: C_15  and  N_16
REMARK    8  A    between atoms: C_21  and  O_22
REMARK                            x       y       z     vdW  Elec       q    Type
REMARK                         _______ _______ _______ _____ _____    ______ ____
ROOT
ATOM      1  N   UNL     1       1.487   8.304  21.042  0.00  0.00    +0.000 NA
ATOM      2  C   UNL     1       1.530   7.105  20.563  0.00  0.00    +0.000 C 
ENDROOT
BRANCH   2   3
ATOM      3  C   UNL     1       2.567   6.803  19.554  0.00  0.00    +0.000 A 
ATOM      4  C   UNL     1       3.459   5.743  19.794  0.00  0.00    +0.000 A 
ATOM      5  C   UNL     1       4.426   5.426  18.840  0.00  0.00    +0.000 A 
ATOM      6  C   UNL     1       4.506   6.153  17.645  0.00  0.00    +0.000 A 
ATOM      7  C   UNL     1       3.619   7.210  17.413  0.00  0.00    +0.000 A 
ATOM      8  C   UNL     1       2.653   7.537  18.367  0.00  0.00    +0.000 A 
BRANCH   5   9
ATOM      9  N   UNL     1       5.370   4.327  19.093  0.00  0.00    +0.000 N 
ATOM     10  O   UNL     1       4.919   3.254  19.508  0.00  0.00    +0.000 OA
ATOM     11  O   UNL     1       6.572   4.553  18.888  0.00  0.00    +0.000 OA
ENDBRANCH   5   9
BRANCH   8  12
ATOM     12  O   UNL     1       1.787   8.566  18.139  0.00  0.00    +0.000 OA
ATOM     13  H   UNL     1       1.049   8.513  18.771  0.00  0.00    +0.000 HD
ENDBRANCH   8  12
ENDBRANCH   2   3
BRANCH   1  16
ATOM     14  C   UNL     1       0.066   9.879  22.043  0.00  0.00    +0.000 C 
ATOM     15  O   UNL     1      -0.767  10.179  22.901  0.00  0.00    +0.000 OA
ATOM     16  N   UNL     1       0.592   8.604  21.994  0.00  0.00    +0.000 N 
ATOM     17  H   UNL     1       0.315   7.932  22.702  0.00  0.00    +0.000 HD
BRANCH  14  18
ATOM     18  C   UNL     1       0.533  10.856  20.980  0.00  0.00    +0.000 C 
BRANCH  18  24
ATOM     19  C   UNL     1      -2.002   9.897  16.969  0.00  0.00    +0.000 C 
ATOM     20  C   UNL     1      -1.598  10.615  18.201  0.00  0.00    +0.000 A 
ATOM     21  C   UNL     1      -2.217  11.734  18.796  0.00  0.00    +0.000 A 
ATOM     22  C   UNL     1      -1.479  12.006  19.927  0.00  0.00    +0.000 A 
ATOM     23  C   UNL     1      -1.674  13.047  20.965  0.00  0.00    +0.000 C 
ATOM     24  N   UNL     1      -0.460  11.081  19.940  0.00  0.00    +0.000 N 
ATOM     25  N   UNL     1      -0.536  10.211  18.905  0.00  0.00    +0.000 NA
ENDBRANCH  18  24
ENDBRANCH  14  18
ENDBRANCH   1  16
TORSDOF 6
ENDMDL
