MODEL 1
REMARK VINA RESULT:      -7.8      0.000      0.000
REMARK  Name = 
REMARK  9 active torsions:
REMARK  status: ('A' for Active; 'I' for Inactive)
REMARK    1  A    between atoms: C_1  and  C_2
REMARK    2  A    between atoms: C_2  and  C_3
REMARK    3  A    between atoms: C_7  and  C_8
REMARK    4  A    between atoms: C_12  and  C_13
REMARK    5  A    between atoms: C_13  and  C_14
REMARK    6  A    between atoms: C_13  and  C_15
REMARK    7  A    between atoms: C_13  and  C_16
REMARK    8  A    between atoms: C_18  and  C_19
REMARK    9  A    between atoms: C_20  and  C_21
REMARK                            x       y       z     vdW  Elec       q    Type
REMARK                         _______ _______ _______ _____ _____    ______ ____
ROOT
ATOM      1  C   UNL     1       6.525   6.817  16.915  0.00  0.00    +0.000 A 
ATOM      2  N   UNL     1       7.586   6.227  16.308  0.00  0.00    +0.000 NA
ATOM      3  C   UNL     1       7.527   4.900  16.118  0.00  0.00    +0.000 A 
ATOM      4  C   UNL     1       6.467   4.113  16.534  0.00  0.00    +0.000 A 
ATOM      5  C   UNL     1       5.342   4.701  17.146  0.00  0.00    +0.000 A 
ATOM      6  C   UNL     1       5.370   6.113  17.293  0.00  0.00    +0.000 A 
ENDROOT
BRANCH   5   7
ATOM      7  C   UNL     1       4.235   3.813  17.633  0.00  0.00    +0.000 A 
ATOM      8  C   UNL     1       3.627   2.862  16.807  0.00  0.00    +0.000 A 
ATOM      9  C   UNL     1       2.613   2.065  17.299  0.00  0.00    +0.000 A 
ATOM     10  N   UNL     1       2.092   2.201  18.531  0.00  0.00    +0.000 NA
ATOM     11  C   UNL     1       2.597   3.168  19.331  0.00  0.00    +0.000 A 
ATOM     12  C   UNL     1       3.691   3.947  18.923  0.00  0.00    +0.000 A 
BRANCH  11  13
ATOM     13  C   UNL     1       1.878   3.423  20.659  0.00  0.00    +0.000 C 
ATOM     14  C   UNL     1       2.400   2.469  21.759  0.00  0.00    +0.000 C 
ATOM     15  C   UNL     1       2.109   4.869  21.127  0.00  0.00    +0.000 C 
ATOM     16  C   UNL     1       0.365   3.167  20.506  0.00  0.00    +0.000 C 
ENDBRANCH  11  13
ENDBRANCH   5   7
BRANCH   1  18
ATOM     17  C   UNL     1       8.041   8.610  17.851  0.00  0.00    +0.000 C 
ATOM     18  C   UNL     1       6.707   8.293  17.200  0.00  0.00    +0.000 C 
ENDBRANCH   1  18
BRANCH   6  19
ATOM     19  C   UNL     1       4.234   6.845  17.794  0.00  0.00    +0.000 C 
ATOM     20  C   UNL     1       3.299   7.486  18.191  0.00  0.00    +0.000 C 
BRANCH  20  21
ATOM     21  C   UNL     1       2.213   8.302  18.633  0.00  0.00    +0.000 A 
ATOM     22  C   UNL     1       1.557   9.154  17.749  0.00  0.00    +0.000 A 
ATOM     23  C   UNL     1       0.532   9.970  18.225  0.00  0.00    +0.000 A 
ATOM     24  C   UNL     1       0.200   9.918  19.572  0.00  0.00    +0.000 A 
ATOM     25  N   UNL     1      -0.804  10.733  20.084  0.00  0.00    +0.000 N 
ATOM     26  N   UNL     1       0.795   9.078  20.438  0.00  0.00    +0.000 NA
ATOM     27  C   UNL     1       1.786   8.288  19.951  0.00  0.00    +0.000 A 
ATOM     28  H   UNL     1      -0.644  11.708  19.861  0.00  0.00    +0.000 HD
ATOM     29  H   UNL     1      -0.828  10.575  21.090  0.00  0.00    +0.000 HD
ENDBRANCH  20  21
ENDBRANCH   6  19
TORSDOF 5
ENDMDL
MODEL 2
REMARK VINA RESULT:      -7.7      0.544      1.243
REMARK  Name = 
REMARK  9 active torsions:
REMARK  status: ('A' for Active; 'I' for Inactive)
REMARK    1  A    between atoms: C_1  and  C_2
REMARK    2  A    between atoms: C_2  and  C_3
REMARK    3  A    between atoms: C_7  and  C_8
REMARK    4  A    between atoms: C_12  and  C_13
REMARK    5  A    between atoms: C_13  and  C_14
REMARK    6  A    between atoms: C_13  and  C_15
REMARK    7  A    between atoms: C_13  and  C_16
REMARK    8  A    between atoms: C_18  and  C_19
REMARK    9  A    between atoms: C_20  and  C_21
REMARK                            x       y       z     vdW  Elec       q    Type
REMARK                         _______ _______ _______ _____ _____    ______ ____
ROOT
ATOM      1  C   UNL     1       6.530   6.824  16.846  0.00  0.00    +0.000 A 
ATOM      2  N   UNL     1       7.570   6.222  16.214  0.00  0.00    +0.000 NA
ATOM      3  C   UNL     1       7.485   4.898  16.013  0.00  0.00    +0.000 A 
ATOM      4  C   UNL     1       6.419   4.125  16.440  0.00  0.00    +0.000 A 
ATOM      5  C   UNL     1       5.316   4.726  17.079  0.00  0.00    +0.000 A 
ATOM      6  C   UNL     1       5.370   6.136  17.239  0.00  0.00    +0.000 A 
ENDROOT
BRANCH   5   7
ATOM      7  C   UNL     1       4.203   3.852  17.578  0.00  0.00    +0.000 A 
ATOM      8  C   UNL     1       3.549   2.935  16.748  0.00  0.00    +0.000 A 
ATOM      9  C   UNL     1       2.531   2.150  17.251  0.00  0.00    +0.000 A 
ATOM     10  N   UNL     1       2.050   2.268  18.501  0.00  0.00    +0.000 NA
ATOM     11  C   UNL     1       2.602   3.202  19.309  0.00  0.00    +0.000 A 
ATOM     12  C   UNL     1       3.700   3.966  18.886  0.00  0.00    +0.000 A 
BRANCH  11  13
ATOM     13  C   UNL     1       1.928   3.441  20.663  0.00  0.00    +0.000 C 
ATOM     14  C   UNL     1       0.403   3.205  20.568  0.00  0.00    +0.000 C 
ATOM     15  C   UNL     1       2.498   2.484  21.723  0.00  0.00    +0.000 C 
ATOM     16  C   UNL     1       2.142   4.899  21.118  0.00  0.00    +0.000 C 
ENDBRANCH  11  13
ENDBRANCH   5   7
BRANCH   1  18
ATOM     17  C   UNL     1       8.038   8.568  17.881  0.00  0.00    +0.000 C 
ATOM     18  C   UNL     1       6.741   8.294  17.141  0.00  0.00    +0.000 C 
ENDBRANCH   1  18
BRANCH   6  19
ATOM     19  C   UNL     1       4.256   6.882  17.767  0.00  0.00    +0.000 C 
ATOM     20  C   UNL     1       3.337   7.533  18.185  0.00  0.00    +0.000 C 
BRANCH  20  21
ATOM     21  C   UNL     1       2.268   8.360  18.646  0.00  0.00    +0.000 A 
ATOM     22  C   UNL     1       1.803   8.260  19.954  0.00  0.00    +0.000 A 
ATOM     23  C   UNL     1       0.728   9.051  20.357  0.00  0.00    +0.000 A 
ATOM     24  C   UNL     1       0.143   9.910  19.437  0.00  0.00    +0.000 A 
ATOM     25  N   UNL     1      -0.944  10.699  19.800  0.00  0.00    +0.000 N 
ATOM     26  N   UNL     1       0.596  10.051  18.179  0.00  0.00    +0.000 NA
ATOM     27  C   UNL     1       1.648   9.276  17.811  0.00  0.00    +0.000 A 
ATOM     28  H   UNL     1      -1.692  10.144  20.198  0.00  0.00    +0.000 HD
ATOM     29  H   UNL     1      -1.244  11.192  18.961  0.00  0.00    +0.000 HD
ENDBRANCH  20  21
ENDBRANCH   6  19
TORSDOF 5
ENDMDL
MODEL 3
REMARK VINA RESULT:      -7.2      1.757      6.991
REMARK  Name = 
REMARK  9 active torsions:
REMARK  status: ('A' for Active; 'I' for Inactive)
REMARK    1  A    between atoms: C_1  and  C_2
REMARK    2  A    between atoms: C_2  and  C_3
REMARK    3  A    between atoms: C_7  and  C_8
REMARK    4  A    between atoms: C_12  and  C_13
REMARK    5  A    between atoms: C_13  and  C_14
REMARK    6  A    between atoms: C_13  and  C_15
REMARK    7  A    between atoms: C_13  and  C_16
REMARK    8  A    between atoms: C_18  and  C_19
REMARK    9  A    between atoms: C_20  and  C_21
REMARK                            x       y       z     vdW  Elec       q    Type
REMARK                         _______ _______ _______ _____ _____    ______ ____
ROOT
ATOM      1  C   UNL     1       3.340   3.009  20.101  0.00  0.00    +0.000 A 
ATOM      2  N   UNL     1       2.529   2.627  21.121  0.00  0.00    +0.000 NA
ATOM      3  C   UNL     1       1.605   3.507  21.535  0.00  0.00    +0.000 A 
ATOM      4  C   UNL     1       1.464   4.777  21.002  0.00  0.00    +0.000 A 
ATOM      5  C   UNL     1       2.277   5.193  19.929  0.00  0.00    +0.000 A 
ATOM      6  C   UNL     1       3.214   4.243  19.443  0.00  0.00    +0.000 A 
ENDROOT
BRANCH   5   7
ATOM      7  C   UNL     1       2.135   6.593  19.411  0.00  0.00    +0.000 A 
ATOM      8  C   UNL     1       2.781   7.025  18.248  0.00  0.00    +0.000 A 
ATOM      9  C   UNL     1       2.619   8.323  17.807  0.00  0.00    +0.000 A 
ATOM     10  N   UNL     1       1.931   9.258  18.485  0.00  0.00    +0.000 NA
ATOM     11  C   UNL     1       1.359   8.900  19.658  0.00  0.00    +0.000 A 
ATOM     12  C   UNL     1       1.409   7.573  20.112  0.00  0.00    +0.000 A 
BRANCH  11  13
ATOM     13  C   UNL     1       0.730  10.016  20.498  0.00  0.00    +0.000 C 
ATOM     14  C   UNL     1      -0.764  10.195  20.142  0.00  0.00    +0.000 C 
ATOM     15  C   UNL     1       0.831   9.683  21.996  0.00  0.00    +0.000 C 
ATOM     16  C   UNL     1       1.435  11.358  20.221  0.00  0.00    +0.000 C 
ENDBRANCH  11  13
ENDBRANCH   5   7
BRANCH   1  18
ATOM     17  C   UNL     1       4.038   1.064  18.644  0.00  0.00    +0.000 C 
ATOM     18  C   UNL     1       4.431   2.014  19.762  0.00  0.00    +0.000 C 
ENDBRANCH   1  18
BRANCH   6  19
ATOM     19  C   UNL     1       4.019   4.501  18.276  0.00  0.00    +0.000 C 
ATOM     20  C   UNL     1       4.713   4.688  17.313  0.00  0.00    +0.000 C 
BRANCH  20  21
ATOM     21  C   UNL     1       5.581   4.862  16.193  0.00  0.00    +0.000 A 
ATOM     22  C   UNL     1       5.301   4.254  14.973  0.00  0.00    +0.000 A 
ATOM     23  C   UNL     1       6.194   4.409  13.914  0.00  0.00    +0.000 A 
ATOM     24  C   UNL     1       7.346   5.159  14.109  0.00  0.00    +0.000 A 
ATOM     25  N   UNL     1       8.268   5.318  13.079  0.00  0.00    +0.000 N 
ATOM     26  N   UNL     1       7.620   5.787  15.266  0.00  0.00    +0.000 NA
ATOM     27  C   UNL     1       6.734   5.627  16.281  0.00  0.00    +0.000 A 
ATOM     28  H   UNL     1       8.562   4.426  12.700  0.00  0.00    +0.000 HD
ATOM     29  H   UNL     1       9.052   5.842  13.463  0.00  0.00    +0.000 HD
ENDBRANCH  20  21
ENDBRANCH   6  19
TORSDOF 5
ENDMDL
MODEL 4
REMARK VINA RESULT:      -6.9      1.745      5.454
REMARK  Name = 
REMARK  9 active torsions:
REMARK  status: ('A' for Active; 'I' for Inactive)
REMARK    1  A    between atoms: C_1  and  C_2
REMARK    2  A    between atoms: C_2  and  C_3
REMARK    3  A    between atoms: C_7  and  C_8
REMARK    4  A    between atoms: C_12  and  C_13
REMARK    5  A    between atoms: C_13  and  C_14
REMARK    6  A    between atoms: C_13  and  C_15
REMARK    7  A    between atoms: C_13  and  C_16
REMARK    8  A    between atoms: C_18  and  C_19
REMARK    9  A    between atoms: C_20  and  C_21
REMARK                            x       y       z     vdW  Elec       q    Type
REMARK                         _______ _______ _______ _____ _____    ______ ____
ROOT
ATOM      1  C   UNL     1       2.713   3.432  20.576  0.00  0.00    +0.000 A 
ATOM      2  N   UNL     1       3.121   2.220  21.030  0.00  0.00    +0.000 NA
ATOM      3  C   UNL     1       4.349   1.811  20.677  0.00  0.00    +0.000 A 
ATOM      4  C   UNL     1       5.193   2.541  19.856  0.00  0.00    +0.000 A 
ATOM      5  C   UNL     1       4.805   3.811  19.388  0.00  0.00    +0.000 A 
ATOM      6  C   UNL     1       3.533   4.278  19.810  0.00  0.00    +0.000 A 
ENDROOT
BRANCH   5   7
ATOM      7  C   UNL     1       5.720   4.552  18.458  0.00  0.00    +0.000 A 
ATOM      8  C   UNL     1       6.597   5.543  18.911  0.00  0.00    +0.000 A 
ATOM      9  C   UNL     1       7.423   6.197  18.019  0.00  0.00    +0.000 A 
ATOM     10  N   UNL     1       7.383   6.002  16.689  0.00  0.00    +0.000 NA
ATOM     11  C   UNL     1       6.489   5.110  16.204  0.00  0.00    +0.000 A 
ATOM     12  C   UNL     1       5.688   4.347  17.067  0.00  0.00    +0.000 A 
BRANCH  11  13
ATOM     13  C   UNL     1       6.337   5.030  14.682  0.00  0.00    +0.000 C 
ATOM     14  C   UNL     1       5.241   6.003  14.187  0.00  0.00    +0.000 C 
ATOM     15  C   UNL     1       7.659   5.400  13.989  0.00  0.00    +0.000 C 
ATOM     16  C   UNL     1       5.916   3.608  14.260  0.00  0.00    +0.000 C 
ENDBRANCH  11  13
ENDBRANCH   5   7
BRANCH   1  18
ATOM     17  C   UNL     1       0.286   3.267  19.890  0.00  0.00    +0.000 C 
ATOM     18  C   UNL     1       1.279   3.780  20.917  0.00  0.00    +0.000 C 
ENDBRANCH   1  18
BRANCH   6  19
ATOM     19  C   UNL     1       3.071   5.608  19.499  0.00  0.00    +0.000 C 
ATOM     20  C   UNL     1       2.665   6.715  19.270  0.00  0.00    +0.000 C 
BRANCH  20  21
ATOM     21  C   UNL     1       2.139   8.025  19.051  0.00  0.00    +0.000 A 
ATOM     22  C   UNL     1       1.364   8.653  20.021  0.00  0.00    +0.000 A 
ATOM     23  C   UNL     1       0.829   9.912  19.755  0.00  0.00    +0.000 A 
ATOM     24  C   UNL     1       1.076  10.502  18.522  0.00  0.00    +0.000 A 
ATOM     25  N   UNL     1       0.541  11.749  18.216  0.00  0.00    +0.000 N 
ATOM     26  N   UNL     1       1.851   9.931  17.584  0.00  0.00    +0.000 NA
ATOM     27  C   UNL     1       2.367   8.708  17.867  0.00  0.00    +0.000 A 
ATOM     28  H   UNL     1      -0.462  11.769  18.353  0.00  0.00    +0.000 HD
ATOM     29  H   UNL     1       0.795  11.950  17.251  0.00  0.00    +0.000 HD
ENDBRANCH  20  21
ENDBRANCH   6  19
TORSDOF 5
ENDMDL
MODEL 5
REMARK VINA RESULT:      -6.9      1.368      5.974
REMARK  Name = 
REMARK  9 active torsions:
REMARK  status: ('A' for Active; 'I' for Inactive)
REMARK    1  A    between atoms: C_1  and  C_2
REMARK    2  A    between atoms: C_2  and  C_3
REMARK    3  A    between atoms: C_7  and  C_8
REMARK    4  A    between atoms: C_12  and  C_13
REMARK    5  A    between atoms: C_13  and  C_14
REMARK    6  A    between atoms: C_13  and  C_15
REMARK    7  A    between atoms: C_13  and  C_16
REMARK    8  A    between atoms: C_18  and  C_19
REMARK    9  A    between atoms: C_20  and  C_21
REMARK                            x       y       z     vdW  Elec       q    Type
REMARK                         _______ _______ _______ _____ _____    ______ ____
ROOT
ATOM      1  C   UNL     1       1.618   9.145  19.210  0.00  0.00    +0.000 A 
ATOM      2  N   UNL     1       0.786   9.663  20.150  0.00  0.00    +0.000 NA
ATOM      3  C   UNL     1       0.392   8.849  21.141  0.00  0.00    +0.000 A 
ATOM      4  C   UNL     1       0.763   7.517  21.230  0.00  0.00    +0.000 A 
ATOM      5  C   UNL     1       1.643   6.958  20.282  0.00  0.00    +0.000 A 
ATOM      6  C   UNL     1       2.114   7.832  19.267  0.00  0.00    +0.000 A 
ENDROOT
BRANCH   5   7
ATOM      7  C   UNL     1       1.980   5.500  20.378  0.00  0.00    +0.000 A 
ATOM      8  C   UNL     1       1.932   4.804  21.590  0.00  0.00    +0.000 A 
ATOM      9  C   UNL     1       2.248   3.461  21.630  0.00  0.00    +0.000 A 
ATOM     10  N   UNL     1       2.698   2.771  20.567  0.00  0.00    +0.000 NA
ATOM     11  C   UNL     1       2.838   3.431  19.394  0.00  0.00    +0.000 A 
ATOM     12  C   UNL     1       2.444   4.772  19.267  0.00  0.00    +0.000 A 
BRANCH  11  13
ATOM     13  C   UNL     1       3.513   2.678  18.244  0.00  0.00    +0.000 C 
ATOM     14  C   UNL     1       3.631   1.170  18.569  0.00  0.00    +0.000 C 
ATOM     15  C   UNL     1       2.697   2.829  16.950  0.00  0.00    +0.000 C 
ATOM     16  C   UNL     1       4.941   3.214  18.018  0.00  0.00    +0.000 C 
ENDBRANCH  11  13
ENDBRANCH   5   7
BRANCH   1  18
ATOM     17  C   UNL     1       1.801  11.547  18.444  0.00  0.00    +0.000 C 
ATOM     18  C   UNL     1       1.930  10.083  18.063  0.00  0.00    +0.000 C 
ENDBRANCH   1  18
BRANCH   6  19
ATOM     19  C   UNL     1       3.108   7.416  18.310  0.00  0.00    +0.000 C 
ATOM     20  C   UNL     1       3.948   7.042  17.537  0.00  0.00    +0.000 C 
BRANCH  20  21
ATOM     21  C   UNL     1       4.972   6.557  16.667  0.00  0.00    +0.000 A 
ATOM     22  C   UNL     1       4.653   5.797  15.545  0.00  0.00    +0.000 A 
ATOM     23  C   UNL     1       5.680   5.302  14.744  0.00  0.00    +0.000 A 
ATOM     24  C   UNL     1       6.996   5.572  15.093  0.00  0.00    +0.000 A 
ATOM     25  N   UNL     1       8.046   5.077  14.326  0.00  0.00    +0.000 N 
ATOM     26  N   UNL     1       7.329   6.334  16.150  0.00  0.00    +0.000 NA
ATOM     27  C   UNL     1       6.312   6.811  16.913  0.00  0.00    +0.000 A 
ATOM     28  H   UNL     1       7.978   4.074  14.202  0.00  0.00    +0.000 HD
ATOM     29  H   UNL     1       8.908   5.342  14.800  0.00  0.00    +0.000 HD
ENDBRANCH  20  21
ENDBRANCH   6  19
TORSDOF 5
ENDMDL
MODEL 6
REMARK VINA RESULT:      -6.9      1.646      5.380
REMARK  Name = 
REMARK  9 active torsions:
REMARK  status: ('A' for Active; 'I' for Inactive)
REMARK    1  A    between atoms: C_1  and  C_2
REMARK    2  A    between atoms: C_2  and  C_3
REMARK    3  A    between atoms: C_7  and  C_8
REMARK    4  A    between atoms: C_12  and  C_13
REMARK    5  A    between atoms: C_13  and  C_14
REMARK    6  A    between atoms: C_13  and  C_15
REMARK    7  A    between atoms: C_13  and  C_16
REMARK    8  A    between atoms: C_18  and  C_19
REMARK    9  A    between atoms: C_20  and  C_21
REMARK                            x       y       z     vdW  Elec       q    Type
REMARK                         _______ _______ _______ _____ _____    ______ ____
ROOT
ATOM      1  C   UNL     1       2.724   3.431  20.612  0.00  0.00    +0.000 A 
ATOM      2  N   UNL     1       3.146   2.230  21.085  0.00  0.00    +0.000 NA
ATOM      3  C   UNL     1       4.381   1.833  20.742  0.00  0.00    +0.000 A 
ATOM      4  C   UNL     1       5.219   2.563  19.916  0.00  0.00    +0.000 A 
ATOM      5  C   UNL     1       4.817   3.822  19.429  0.00  0.00    +0.000 A 
ATOM      6  C   UNL     1       3.536   4.278  19.839  0.00  0.00    +0.000 A 
ENDROOT
BRANCH   5   7
ATOM      7  C   UNL     1       5.726   4.562  18.493  0.00  0.00    +0.000 A 
ATOM      8  C   UNL     1       6.626   5.533  18.944  0.00  0.00    +0.000 A 
ATOM      9  C   UNL     1       7.446   6.187  18.046  0.00  0.00    +0.000 A 
ATOM     10  N   UNL     1       7.378   6.013  16.715  0.00  0.00    +0.000 NA
ATOM     11  C   UNL     1       6.462   5.143  16.233  0.00  0.00    +0.000 A 
ATOM     12  C   UNL     1       5.665   4.379  17.100  0.00  0.00    +0.000 A 
BRANCH  11  13
ATOM     13  C   UNL     1       6.281   5.087  14.714  0.00  0.00    +0.000 C 
ATOM     14  C   UNL     1       5.819   3.681  14.266  0.00  0.00    +0.000 C 
ATOM     15  C   UNL     1       5.225   6.109  14.260  0.00  0.00    +0.000 C 
ATOM     16  C   UNL     1       7.618   5.381  14.004  0.00  0.00    +0.000 C 
ENDBRANCH  11  13
ENDBRANCH   5   7
BRANCH   1  18
ATOM     17  C   UNL     1       0.312   3.313  19.867  0.00  0.00    +0.000 C 
ATOM     18  C   UNL     1       1.284   3.764  20.942  0.00  0.00    +0.000 C 
ENDBRANCH   1  18
BRANCH   6  19
ATOM     19  C   UNL     1       3.058   5.596  19.508  0.00  0.00    +0.000 C 
ATOM     20  C   UNL     1       2.643   6.698  19.266  0.00  0.00    +0.000 C 
BRANCH  20  21
ATOM     21  C   UNL     1       2.115   8.004  19.036  0.00  0.00    +0.000 A 
ATOM     22  C   UNL     1       2.357   8.670  17.838  0.00  0.00    +0.000 A 
ATOM     23  C   UNL     1       1.864   9.963  17.666  0.00  0.00    +0.000 A 
ATOM     24  C   UNL     1       1.153  10.555  18.701  0.00  0.00    +0.000 A 
ATOM     25  N   UNL     1       0.663  11.851  18.570  0.00  0.00    +0.000 N 
ATOM     26  N   UNL     1       0.875   9.919  19.853  0.00  0.00    +0.000 NA
ATOM     27  C   UNL     1       1.360   8.659  19.996  0.00  0.00    +0.000 A 
ATOM     28  H   UNL     1       1.394  12.502  18.309  0.00  0.00    +0.000 HD
ATOM     29  H   UNL     1       0.239  12.098  19.462  0.00  0.00    +0.000 HD
ENDBRANCH  20  21
ENDBRANCH   6  19
TORSDOF 5
ENDMDL
MODEL 7
REMARK VINA RESULT:      -6.7      6.101     10.678
REMARK  Name = 
REMARK  9 active torsions:
REMARK  status: ('A' for Active; 'I' for Inactive)
REMARK    1  A    between atoms: C_1  and  C_2
REMARK    2  A    between atoms: C_2  and  C_3
REMARK    3  A    between atoms: C_7  and  C_8
REMARK    4  A    between atoms: C_12  and  C_13
REMARK    5  A    between atoms: C_13  and  C_14
REMARK    6  A    between atoms: C_13  and  C_15
REMARK    7  A    between atoms: C_13  and  C_16
REMARK    8  A    between atoms: C_18  and  C_19
REMARK    9  A    between atoms: C_20  and  C_21
REMARK                            x       y       z     vdW  Elec       q    Type
REMARK                         _______ _______ _______ _____ _____    ______ ____
ROOT
ATOM      1  C   UNL     1      -5.312  13.234  21.940  0.00  0.00    +0.000 A 
ATOM      2  N   UNL     1      -5.527  13.869  23.121  0.00  0.00    +0.000 NA
ATOM      3  C   UNL     1      -4.453  14.144  23.877  0.00  0.00    +0.000 A 
ATOM      4  C   UNL     1      -3.161  13.787  23.530  0.00  0.00    +0.000 A 
ATOM      5  C   UNL     1      -2.905  13.147  22.301  0.00  0.00    +0.000 A 
ATOM      6  C   UNL     1      -4.030  12.910  21.467  0.00  0.00    +0.000 A 
ENDROOT
BRANCH   5   7
ATOM      7  C   UNL     1      -1.501  12.727  21.980  0.00  0.00    +0.000 A 
ATOM      8  C   UNL     1      -0.523  13.644  21.581  0.00  0.00    +0.000 A 
ATOM      9  C   UNL     1       0.757  13.211  21.299  0.00  0.00    +0.000 A 
ATOM     10  N   UNL     1       1.121  11.917  21.297  0.00  0.00    +0.000 NA
ATOM     11  C   UNL     1       0.180  10.992  21.597  0.00  0.00    +0.000 A 
ATOM     12  C   UNL     1      -1.113  11.375  21.984  0.00  0.00    +0.000 A 
BRANCH  11  13
ATOM     13  C   UNL     1       0.566   9.521  21.421  0.00  0.00    +0.000 C 
ATOM     14  C   UNL     1       1.025   9.243  19.970  0.00  0.00    +0.000 C 
ATOM     15  C   UNL     1       1.717   9.149  22.370  0.00  0.00    +0.000 C 
ATOM     16  C   UNL     1      -0.647   8.612  21.702  0.00  0.00    +0.000 C 
ENDBRANCH  11  13
ENDBRANCH   5   7
BRANCH   1  18
ATOM     17  C   UNL     1      -7.610  12.190  22.084  0.00  0.00    +0.000 C 
ATOM     18  C   UNL     1      -6.574  12.854  21.194  0.00  0.00    +0.000 C 
ENDBRANCH   1  18
BRANCH   6  19
ATOM     19  C   UNL     1      -3.888  12.373  20.138  0.00  0.00    +0.000 C 
ATOM     20  C   UNL     1      -3.740  11.903  19.041  0.00  0.00    +0.000 C 
BRANCH  20  21
ATOM     21  C   UNL     1      -3.507  11.317  17.761  0.00  0.00    +0.000 A 
ATOM     22  C   UNL     1      -2.396  10.508  17.538  0.00  0.00    +0.000 A 
ATOM     23  C   UNL     1      -2.176   9.989  16.264  0.00  0.00    +0.000 A 
ATOM     24  C   UNL     1      -3.067  10.302  15.246  0.00  0.00    +0.000 A 
ATOM     25  N   UNL     1      -2.866   9.817  13.957  0.00  0.00    +0.000 N 
ATOM     26  N   UNL     1      -4.166  11.050  15.444  0.00  0.00    +0.000 NA
ATOM     27  C   UNL     1      -4.364  11.540  16.694  0.00  0.00    +0.000 A 
ATOM     28  H   UNL     1      -1.940  10.042  13.614  0.00  0.00    +0.000 HD
ATOM     29  H   UNL     1      -3.594  10.222  13.373  0.00  0.00    +0.000 HD
ENDBRANCH  20  21
ENDBRANCH   6  19
TORSDOF 5
ENDMDL
MODEL 8
REMARK VINA RESULT:      -6.7      5.352      9.582
REMARK  Name = 
REMARK  9 active torsions:
REMARK  status: ('A' for Active; 'I' for Inactive)
REMARK    1  A    between atoms: C_1  and  C_2
REMARK    2  A    between atoms: C_2  and  C_3
REMARK    3  A    between atoms: C_7  and  C_8
REMARK    4  A    between atoms: C_12  and  C_13
REMARK    5  A    between atoms: C_13  and  C_14
REMARK    6  A    between atoms: C_13  and  C_15
REMARK    7  A    between atoms: C_13  and  C_16
REMARK    8  A    between atoms: C_18  and  C_19
REMARK    9  A    between atoms: C_20  and  C_21
REMARK                            x       y       z     vdW  Elec       q    Type
REMARK                         _______ _______ _______ _____ _____    ______ ____
ROOT
ATOM      1  C   UNL     1      -4.486  11.580  17.075  0.00  0.00    +0.000 A 
ATOM      2  N   UNL     1      -4.380  10.847  15.937  0.00  0.00    +0.000 NA
ATOM      3  C   UNL     1      -3.235  10.175  15.742  0.00  0.00    +0.000 A 
ATOM      4  C   UNL     1      -2.163  10.218  16.616  0.00  0.00    +0.000 A 
ATOM      5  C   UNL     1      -2.252  10.952  17.815  0.00  0.00    +0.000 A 
ATOM      6  C   UNL     1      -3.484  11.615  18.059  0.00  0.00    +0.000 A 
ENDROOT
BRANCH   5   7
ATOM      7  C   UNL     1      -1.053  11.022  18.714  0.00  0.00    +0.000 A 
ATOM      8  C   UNL     1      -0.093  12.034  18.596  0.00  0.00    +0.000 A 
ATOM      9  C   UNL     1       0.993  12.060  19.447  0.00  0.00    +0.000 A 
ATOM     10  N   UNL     1       1.249  11.103  20.355  0.00  0.00    +0.000 NA
ATOM     11  C   UNL     1       0.387  10.064  20.443  0.00  0.00    +0.000 A 
ATOM     12  C   UNL     1      -0.784  10.028  19.672  0.00  0.00    +0.000 A 
BRANCH  11  13
ATOM     13  C   UNL     1       0.785   8.901  21.357  0.00  0.00    +0.000 C 
ATOM     14  C   UNL     1       1.620   9.406  22.557  0.00  0.00    +0.000 C 
ATOM     15  C   UNL     1      -0.466   8.195  21.905  0.00  0.00    +0.000 C 
ATOM     16  C   UNL     1       1.653   7.886  20.586  0.00  0.00    +0.000 C 
ENDBRANCH  11  13
ENDBRANCH   5   7
BRANCH   1  18
ATOM     17  C   UNL     1      -6.863  11.686  17.927  0.00  0.00    +0.000 C 
ATOM     18  C   UNL     1      -5.754  12.401  17.176  0.00  0.00    +0.000 C 
ENDBRANCH   1  18
BRANCH   6  19
ATOM     19  C   UNL     1      -3.744  12.299  19.301  0.00  0.00    +0.000 C 
ATOM     20  C   UNL     1      -3.936  12.895  20.326  0.00  0.00    +0.000 C 
BRANCH  20  21
ATOM     21  C   UNL     1      -4.110  13.644  21.529  0.00  0.00    +0.000 A 
ATOM     22  C   UNL     1      -4.349  13.001  22.741  0.00  0.00    +0.000 A 
ATOM     23  C   UNL     1      -4.560  13.766  23.887  0.00  0.00    +0.000 A 
ATOM     24  C   UNL     1      -4.537  15.151  23.787  0.00  0.00    +0.000 A 
ATOM     25  N   UNL     1      -4.763  15.943  24.907  0.00  0.00    +0.000 N 
ATOM     26  N   UNL     1      -4.272  15.794  22.636  0.00  0.00    +0.000 NA
ATOM     27  C   UNL     1      -4.064  15.029  21.534  0.00  0.00    +0.000 A 
ATOM     28  H   UNL     1      -5.631  15.699  25.369  0.00  0.00    +0.000 HD
ATOM     29  H   UNL     1      -4.763  16.910  24.589  0.00  0.00    +0.000 HD
ENDBRANCH  20  21
ENDBRANCH   6  19
TORSDOF 5
ENDMDL
MODEL 9
REMARK VINA RESULT:      -6.6      6.897     10.157
REMARK  Name = 
REMARK  9 active torsions:
REMARK  status: ('A' for Active; 'I' for Inactive)
REMARK    1  A    between atoms: C_1  and  C_2
REMARK    2  A    between atoms: C_2  and  C_3
REMARK    3  A    between atoms: C_7  and  C_8
REMARK    4  A    between atoms: C_12  and  C_13
REMARK    5  A    between atoms: C_13  and  C_14
REMARK    6  A    between atoms: C_13  and  C_15
REMARK    7  A    between atoms: C_13  and  C_16
REMARK    8  A    between atoms: C_18  and  C_19
REMARK    9  A    between atoms: C_20  and  C_21
REMARK                            x       y       z     vdW  Elec       q    Type
REMARK                         _______ _______ _______ _____ _____    ______ ____
ROOT
ATOM      1  C   UNL     1      -4.367  11.406  17.200  0.00  0.00    +0.000 A 
ATOM      2  N   UNL     1      -4.243  10.635  16.090  0.00  0.00    +0.000 NA
ATOM      3  C   UNL     1      -3.073  10.002  15.907  0.00  0.00    +0.000 A 
ATOM      4  C   UNL     1      -1.995  10.123  16.766  0.00  0.00    +0.000 A 
ATOM      5  C   UNL     1      -2.102  10.899  17.937  0.00  0.00    +0.000 A 
ATOM      6  C   UNL     1      -3.357  11.520  18.170  0.00  0.00    +0.000 A 
ENDROOT
BRANCH   5   7
ATOM      7  C   UNL     1      -0.897  11.053  18.818  0.00  0.00    +0.000 A 
ATOM      8  C   UNL     1      -0.637  10.181  19.881  0.00  0.00    +0.000 A 
ATOM      9  C   UNL     1       0.486  10.360  20.664  0.00  0.00    +0.000 A 
ATOM     10  N   UNL     1       1.330  11.397  20.527  0.00  0.00    +0.000 NA
ATOM     11  C   UNL     1       1.066  12.309  19.563  0.00  0.00    +0.000 A 
ATOM     12  C   UNL     1      -0.006  12.132  18.675  0.00  0.00    +0.000 A 
BRANCH  11  13
ATOM     13  C   UNL     1       1.935  13.569  19.535  0.00  0.00    +0.000 C 
ATOM     14  C   UNL     1       1.059  14.837  19.402  0.00  0.00    +0.000 C 
ATOM     15  C   UNL     1       2.755  13.685  20.831  0.00  0.00    +0.000 C 
ATOM     16  C   UNL     1       2.888  13.537  18.324  0.00  0.00    +0.000 C 
ENDBRANCH  11  13
ENDBRANCH   5   7
BRANCH   1  18
ATOM     17  C   UNL     1      -6.749  11.433  18.044  0.00  0.00    +0.000 C 
ATOM     18  C   UNL     1      -5.667  12.179  17.284  0.00  0.00    +0.000 C 
ENDBRANCH   1  18
BRANCH   6  19
ATOM     19  C   UNL     1      -3.633  12.241  19.387  0.00  0.00    +0.000 C 
ATOM     20  C   UNL     1      -3.827  12.856  20.401  0.00  0.00    +0.000 C 
BRANCH  20  21
ATOM     21  C   UNL     1      -3.992  13.604  21.606  0.00  0.00    +0.000 A 
ATOM     22  C   UNL     1      -4.811  13.136  22.629  0.00  0.00    +0.000 A 
ATOM     23  C   UNL     1      -4.985  13.914  23.772  0.00  0.00    +0.000 A 
ATOM     24  C   UNL     1      -4.343  15.143  23.854  0.00  0.00    +0.000 A 
ATOM     25  N   UNL     1      -4.510  15.954  24.972  0.00  0.00    +0.000 N 
ATOM     26  N   UNL     1      -3.519  15.601  22.895  0.00  0.00    +0.000 NA
ATOM     27  C   UNL     1      -3.359  14.823  21.794  0.00  0.00    +0.000 A 
ATOM     28  H   UNL     1      -5.490  16.123  25.168  0.00  0.00    +0.000 HD
ATOM     29  H   UNL     1      -4.007  16.819  24.787  0.00  0.00    +0.000 HD
ENDBRANCH  20  21
ENDBRANCH   6  19
TORSDOF 5
ENDMDL
