MODEL 1
REMARK VINA RESULT:      -9.1      0.000      0.000
REMARK  Name = 
REMARK  6 active torsions:
REMARK  status: ('A' for Active; 'I' for Inactive)
REMARK    1  A    between atoms: O_1  and  C_2
REMARK    2  A    between atoms: C_2  and  C_3
REMARK    3  A    between atoms: N_5  and  C_6
REMARK    4  A    between atoms: C_6  and  C_7
REMARK    5  A    between atoms: C_14  and  N_15
REMARK    6  A    between atoms: N_23  and  C_24
REMARK                            x       y       z     vdW  Elec       q    Type
REMARK                         _______ _______ _______ _____ _____    ______ ____
ROOT
ATOM      1  N   UNL     1       2.463   6.577  19.466  0.00  0.00    +0.000 N 
ATOM      2  C   UNL     1       1.885   6.526  20.702  0.00  0.00    +0.000 A 
ATOM      3  N   UNL     1       1.252   7.641  20.986  0.00  0.00    +0.000 NA
ATOM      4  C   UNL     1       1.427   8.458  19.881  0.00  0.00    +0.000 A 
ATOM      5  C   UNL     1       0.994   9.776  19.583  0.00  0.00    +0.000 A 
ATOM      6  N   UNL     1       0.218  10.548  20.419  0.00  0.00    +0.000 N 
ATOM      7  C   UNL     1      -0.712   9.962  21.395  0.00  0.00    +0.000 C 
ATOM      8  C   UNL     1      -0.594  10.705  22.744  0.00  0.00    +0.000 C 
ATOM      9  N   UNL     1      -0.782  12.156  22.537  0.00  0.00    +0.000 N 
ATOM     10  C   UNL     1       0.112  12.748  21.519  0.00  0.00    +0.000 C 
ATOM     11  C   UNL     1       0.020  11.981  20.176  0.00  0.00    +0.000 C 
ATOM     12  N   UNL     1       1.440  10.308  18.406  0.00  0.00    +0.000 NA
ATOM     13  C   UNL     1       2.215   9.565  17.586  0.00  0.00    +0.000 A 
ATOM     14  N   UNL     1       2.643   8.298  17.757  0.00  0.00    +0.000 NA
ATOM     15  C   UNL     1       2.213   7.814  18.934  0.00  0.00    +0.000 A 
ENDROOT
BRANCH   1  20
ATOM     16  C   UNL     1       3.145   3.299  18.032  0.00  0.00    +0.000 C 
ATOM     17  C   UNL     1       4.353   2.906  18.921  0.00  0.00    +0.000 C 
ATOM     18  N   UNL     1       5.284   4.039  19.162  0.00  0.00    +0.000 NA
ATOM     19  C   UNL     1       4.482   5.166  19.701  0.00  0.00    +0.000 C 
ATOM     20  C   UNL     1       3.250   5.530  18.839  0.00  0.00    +0.000 C 
ATOM     21  O   UNL     1       2.402   4.372  18.639  0.00  0.00    +0.000 OA
BRANCH  16  22
ATOM     22  C   UNL     1       2.227   2.100  17.783  0.00  0.00    +0.000 C 
BRANCH  22  23
ATOM     23  O   UNL     1       1.719   1.614  19.020  0.00  0.00    +0.000 OA
ATOM     24  H   UNL     1       0.758   1.766  19.021  0.00  0.00    +0.000 HD
ENDBRANCH  22  23
ENDBRANCH  16  22
BRANCH  18  25
ATOM     25  C   UNL     1       6.000   4.382  17.915  0.00  0.00    +0.000 C 
BRANCH  25  26
ATOM     26  C   UNL     1       6.766   5.677  17.993  0.00  0.00    +0.000 A 
ATOM     27  C   UNL     1       7.771   5.860  18.944  0.00  0.00    +0.000 A 
ATOM     28  C   UNL     1       8.430   7.076  18.985  0.00  0.00    +0.000 A 
ATOM     29  N   UNL     1       8.165   8.106  18.149  0.00  0.00    +0.000 NA
ATOM     30  C   UNL     1       7.194   7.906  17.233  0.00  0.00    +0.000 A 
ATOM     31  C   UNL     1       6.478   6.728  17.114  0.00  0.00    +0.000 A 
ENDBRANCH  25  26
ENDBRANCH  18  25
ENDBRANCH   1  20
BRANCH   9  32
ATOM     32  C   UNL     1      -1.680  12.894  23.276  0.00  0.00    +0.000 A 
ATOM     33  C   UNL     1      -2.976  12.429  23.549  0.00  0.00    +0.000 A 
ATOM     34  C   UNL     1      -3.902  13.191  24.271  0.00  0.00    +0.000 A 
ATOM     35  C   UNL     1      -3.550  14.448  24.744  0.00  0.00    +0.000 A 
ATOM     36  C   UNL     1      -2.272  14.937  24.496  0.00  0.00    +0.000 A 
ATOM     37  C   UNL     1      -1.355  14.166  23.773  0.00  0.00    +0.000 A 
ENDBRANCH   9  32
TORSDOF 6
ENDMDL
MODEL 2
REMARK VINA RESULT:      -8.5      1.893      2.244
REMARK  Name = 
REMARK  6 active torsions:
REMARK  status: ('A' for Active; 'I' for Inactive)
REMARK    1  A    between atoms: O_1  and  C_2
REMARK    2  A    between atoms: C_2  and  C_3
REMARK    3  A    between atoms: N_5  and  C_6
REMARK    4  A    between atoms: C_6  and  C_7
REMARK    5  A    between atoms: C_14  and  N_15
REMARK    6  A    between atoms: N_23  and  C_24
REMARK                            x       y       z     vdW  Elec       q    Type
REMARK                         _______ _______ _______ _____ _____    ______ ____
ROOT
ATOM      1  N   UNL     1       2.251   6.587  19.560  0.00  0.00    +0.000 N 
ATOM      2  C   UNL     1       1.682   6.583  20.801  0.00  0.00    +0.000 A 
ATOM      3  N   UNL     1       1.103   7.730  21.073  0.00  0.00    +0.000 NA
ATOM      4  C   UNL     1       1.307   8.521  19.952  0.00  0.00    +0.000 A 
ATOM      5  C   UNL     1       0.933   9.852  19.636  0.00  0.00    +0.000 A 
ATOM      6  N   UNL     1       0.202  10.673  20.466  0.00  0.00    +0.000 N 
ATOM      7  C   UNL     1      -0.746  10.148  21.458  0.00  0.00    +0.000 C 
ATOM      8  C   UNL     1      -0.582  10.906  22.794  0.00  0.00    +0.000 C 
ATOM      9  N   UNL     1      -0.704  12.360  22.565  0.00  0.00    +0.000 N 
ATOM     10  C   UNL     1       0.208  12.893  21.530  0.00  0.00    +0.000 C 
ATOM     11  C   UNL     1       0.069  12.109  20.200  0.00  0.00    +0.000 C 
ATOM     12  N   UNL     1       1.394  10.344  18.447  0.00  0.00    +0.000 NA
ATOM     13  C   UNL     1       2.125   9.553  17.633  0.00  0.00    +0.000 A 
ATOM     14  N   UNL     1       2.496   8.270  17.822  0.00  0.00    +0.000 NA
ATOM     15  C   UNL     1       2.053   7.825  19.010  0.00  0.00    +0.000 A 
ENDROOT
BRANCH   1  20
ATOM     16  C   UNL     1       3.916   3.353  19.373  0.00  0.00    +0.000 C 
ATOM     17  C   UNL     1       5.293   3.833  18.849  0.00  0.00    +0.000 C 
ATOM     18  N   UNL     1       5.179   4.893  17.814  0.00  0.00    +0.000 NA
ATOM     19  C   UNL     1       4.338   5.978  18.380  0.00  0.00    +0.000 C 
ATOM     20  C   UNL     1       2.983   5.494  18.945  0.00  0.00    +0.000 C 
ATOM     21  O   UNL     1       3.179   4.455  19.935  0.00  0.00    +0.000 OA
BRANCH  16  22
ATOM     22  C   UNL     1       4.075   2.242  20.414  0.00  0.00    +0.000 C 
BRANCH  22  23
ATOM     23  O   UNL     1       5.326   1.587  20.235  0.00  0.00    +0.000 OA
ATOM     24  H   UNL     1       5.172   0.815  19.665  0.00  0.00    +0.000 HD
ENDBRANCH  22  23
ENDBRANCH  16  22
BRANCH  18  25
ATOM     25  C   UNL     1       4.628   4.326  16.566  0.00  0.00    +0.000 C 
BRANCH  25  26
ATOM     26  C   UNL     1       5.570   4.413  15.393  0.00  0.00    +0.000 A 
ATOM     27  C   UNL     1       6.724   5.195  15.455  0.00  0.00    +0.000 A 
ATOM     28  C   UNL     1       7.544   5.256  14.343  0.00  0.00    +0.000 A 
ATOM     29  N   UNL     1       7.300   4.594  13.189  0.00  0.00    +0.000 NA
ATOM     30  C   UNL     1       6.182   3.838  13.151  0.00  0.00    +0.000 A 
ATOM     31  C   UNL     1       5.300   3.715  14.209  0.00  0.00    +0.000 A 
ENDBRANCH  25  26
ENDBRANCH  18  25
ENDBRANCH   1  20
BRANCH   9  32
ATOM     32  C   UNL     1      -1.560  13.152  23.299  0.00  0.00    +0.000 A 
ATOM     33  C   UNL     1      -2.884  12.767  23.562  0.00  0.00    +0.000 A 
ATOM     34  C   UNL     1      -3.767  13.584  24.278  0.00  0.00    +0.000 A 
ATOM     35  C   UNL     1      -3.341  14.816  24.755  0.00  0.00    +0.000 A 
ATOM     36  C   UNL     1      -2.034  15.225  24.518  0.00  0.00    +0.000 A 
ATOM     37  C   UNL     1      -1.161  14.400  23.801  0.00  0.00    +0.000 A 
ENDBRANCH   9  32
TORSDOF 6
ENDMDL
MODEL 3
REMARK VINA RESULT:      -8.4      2.820      3.745
REMARK  Name = 
REMARK  6 active torsions:
REMARK  status: ('A' for Active; 'I' for Inactive)
REMARK    1  A    between atoms: O_1  and  C_2
REMARK    2  A    between atoms: C_2  and  C_3
REMARK    3  A    between atoms: N_5  and  C_6
REMARK    4  A    between atoms: C_6  and  C_7
REMARK    5  A    between atoms: C_14  and  N_15
REMARK    6  A    between atoms: N_23  and  C_24
REMARK                            x       y       z     vdW  Elec       q    Type
REMARK                         _______ _______ _______ _____ _____    ______ ____
ROOT
ATOM      1  N   UNL     1       1.973   7.703  18.914  0.00  0.00    +0.000 N 
ATOM      2  C   UNL     1       1.835   8.557  17.858  0.00  0.00    +0.000 A 
ATOM      3  N   UNL     1       1.453   9.752  18.247  0.00  0.00    +0.000 NA
ATOM      4  C   UNL     1       1.335   9.671  19.626  0.00  0.00    +0.000 A 
ATOM      5  C   UNL     1       0.956  10.616  20.614  0.00  0.00    +0.000 A 
ATOM      6  N   UNL     1       0.630  11.928  20.351  0.00  0.00    +0.000 N 
ATOM      7  C   UNL     1       1.164  12.657  19.192  0.00  0.00    +0.000 C 
ATOM      8  C   UNL     1       0.036  13.468  18.516  0.00  0.00    +0.000 C 
ATOM      9  N   UNL     1      -0.625  14.335  19.512  0.00  0.00    +0.000 N 
ATOM     10  C   UNL     1      -1.120  13.622  20.709  0.00  0.00    +0.000 C 
ATOM     11  C   UNL     1       0.002  12.780  21.366  0.00  0.00    +0.000 C 
ATOM     12  N   UNL     1       0.863  10.148  21.895  0.00  0.00    +0.000 NA
ATOM     13  C   UNL     1       1.166   8.860  22.160  0.00  0.00    +0.000 A 
ATOM     14  N   UNL     1       1.573   7.900  21.306  0.00  0.00    +0.000 NA
ATOM     15  C   UNL     1       1.627   8.382  20.052  0.00  0.00    +0.000 A 
ENDROOT
BRANCH   1  20
ATOM     16  C   UNL     1       2.027   4.188  19.865  0.00  0.00    +0.000 C 
ATOM     17  C   UNL     1       3.555   4.031  20.077  0.00  0.00    +0.000 C 
ATOM     18  N   UNL     1       4.356   4.737  19.044  0.00  0.00    +0.000 NA
ATOM     19  C   UNL     1       3.895   6.149  19.013  0.00  0.00    +0.000 C 
ATOM     20  C   UNL     1       2.365   6.307  18.848  0.00  0.00    +0.000 C 
ATOM     21  O   UNL     1       1.658   5.579  19.882  0.00  0.00    +0.000 OA
BRANCH  16  22
ATOM     22  C   UNL     1       1.238   3.422  20.930  0.00  0.00    +0.000 C 
BRANCH  22  23
ATOM     23  O   UNL     1       2.092   3.091  22.020  0.00  0.00    +0.000 OA
ATOM     24  H   UNL     1       2.966   2.874  21.651  0.00  0.00    +0.000 HD
ENDBRANCH  22  23
ENDBRANCH  16  22
BRANCH  18  25
ATOM     25  C   UNL     1       4.219   4.055  17.740  0.00  0.00    +0.000 C 
BRANCH  25  26
ATOM     26  C   UNL     1       5.331   4.367  16.773  0.00  0.00    +0.000 A 
ATOM     27  C   UNL     1       6.618   4.659  17.228  0.00  0.00    +0.000 A 
ATOM     28  C   UNL     1       7.597   4.958  16.298  0.00  0.00    +0.000 A 
ATOM     29  N   UNL     1       7.388   4.979  14.962  0.00  0.00    +0.000 NA
ATOM     30  C   UNL     1       6.138   4.689  14.542  0.00  0.00    +0.000 A 
ATOM     31  C   UNL     1       5.092   4.379  15.393  0.00  0.00    +0.000 A 
ENDBRANCH  25  26
ENDBRANCH  18  25
ENDBRANCH   1  20
BRANCH   9  32
ATOM     32  C   UNL     1      -0.808  15.685  19.306  0.00  0.00    +0.000 A 
ATOM     33  C   UNL     1      -1.655  16.453  20.121  0.00  0.00    +0.000 A 
ATOM     34  C   UNL     1      -1.869  17.817  19.893  0.00  0.00    +0.000 A 
ATOM     35  C   UNL     1      -1.233  18.453  18.836  0.00  0.00    +0.000 A 
ATOM     36  C   UNL     1      -0.383  17.724  18.013  0.00  0.00    +0.000 A 
ATOM     37  C   UNL     1      -0.176  16.361  18.251  0.00  0.00    +0.000 A 
ENDBRANCH   9  32
TORSDOF 6
ENDMDL
MODEL 4
REMARK VINA RESULT:      -8.3      2.784      3.843
REMARK  Name = 
REMARK  6 active torsions:
REMARK  status: ('A' for Active; 'I' for Inactive)
REMARK    1  A    between atoms: O_1  and  C_2
REMARK    2  A    between atoms: C_2  and  C_3
REMARK    3  A    between atoms: N_5  and  C_6
REMARK    4  A    between atoms: C_6  and  C_7
REMARK    5  A    between atoms: C_14  and  N_15
REMARK    6  A    between atoms: N_23  and  C_24
REMARK                            x       y       z     vdW  Elec       q    Type
REMARK                         _______ _______ _______ _____ _____    ______ ____
ROOT
ATOM      1  N   UNL     1       2.058   7.605  18.952  0.00  0.00    +0.000 N 
ATOM      2  C   UNL     1       1.991   8.467  17.895  0.00  0.00    +0.000 A 
ATOM      3  N   UNL     1       1.620   9.669  18.272  0.00  0.00    +0.000 NA
ATOM      4  C   UNL     1       1.436   9.585  19.643  0.00  0.00    +0.000 A 
ATOM      5  C   UNL     1       1.034  10.535  20.617  0.00  0.00    +0.000 A 
ATOM      6  N   UNL     1       0.753  11.856  20.347  0.00  0.00    +0.000 N 
ATOM      7  C   UNL     1       1.358  12.576  19.218  0.00  0.00    +0.000 C 
ATOM      8  C   UNL     1       0.284  13.418  18.495  0.00  0.00    +0.000 C 
ATOM      9  N   UNL     1      -0.402  14.297  19.464  0.00  0.00    +0.000 N 
ATOM     10  C   UNL     1      -0.970  13.591  20.632  0.00  0.00    +0.000 C 
ATOM     11  C   UNL     1       0.099  12.719  21.337  0.00  0.00    +0.000 C 
ATOM     12  N   UNL     1       0.870  10.064  21.890  0.00  0.00    +0.000 NA
ATOM     13  C   UNL     1       1.128   8.768  22.163  0.00  0.00    +0.000 A 
ATOM     14  N   UNL     1       1.551   7.802  21.323  0.00  0.00    +0.000 NA
ATOM     15  C   UNL     1       1.675   8.288  20.076  0.00  0.00    +0.000 A 
ENDROOT
BRANCH   1  20
ATOM     16  C   UNL     1       1.963   4.081  19.867  0.00  0.00    +0.000 C 
ATOM     17  C   UNL     1       3.469   3.883  20.175  0.00  0.00    +0.000 C 
ATOM     18  N   UNL     1       4.353   4.578  19.203  0.00  0.00    +0.000 NA
ATOM     19  C   UNL     1       3.930   6.001  19.157  0.00  0.00    +0.000 C 
ATOM     20  C   UNL     1       2.419   6.200  18.896  0.00  0.00    +0.000 C 
ATOM     21  O   UNL     1       1.628   5.482  19.875  0.00  0.00    +0.000 OA
BRANCH  16  22
ATOM     22  C   UNL     1       1.088   3.327  20.871  0.00  0.00    +0.000 C 
BRANCH  22  23
ATOM     23  O   UNL     1       1.851   3.001  22.028  0.00  0.00    +0.000 OA
ATOM     24  H   UNL     1       2.618   3.599  22.050  0.00  0.00    +0.000 HD
ENDBRANCH  22  23
ENDBRANCH  16  22
BRANCH  18  25
ATOM     25  C   UNL     1       4.283   3.912  17.886  0.00  0.00    +0.000 C 
BRANCH  25  26
ATOM     26  C   UNL     1       5.360   4.349  16.927  0.00  0.00    +0.000 A 
ATOM     27  C   UNL     1       5.068   4.593  15.584  0.00  0.00    +0.000 A 
ATOM     28  C   UNL     1       6.098   4.973  14.742  0.00  0.00    +0.000 A 
ATOM     29  N   UNL     1       7.380   5.130  15.141  0.00  0.00    +0.000 NA
ATOM     30  C   UNL     1       7.640   4.894  16.445  0.00  0.00    +0.000 A 
ATOM     31  C   UNL     1       6.680   4.510  17.364  0.00  0.00    +0.000 A 
ENDBRANCH  25  26
ENDBRANCH  18  25
ENDBRANCH   1  20
BRANCH   9  32
ATOM     32  C   UNL     1      -0.542  15.652  19.257  0.00  0.00    +0.000 A 
ATOM     33  C   UNL     1       0.352  16.376  18.452  0.00  0.00    +0.000 A 
ATOM     34  C   UNL     1       0.233  17.758  18.267  0.00  0.00    +0.000 A 
ATOM     35  C   UNL     1      -0.794  18.456  18.887  0.00  0.00    +0.000 A 
ATOM     36  C   UNL     1      -1.700  17.769  19.686  0.00  0.00    +0.000 A 
ATOM     37  C   UNL     1      -1.571  16.387  19.863  0.00  0.00    +0.000 A 
ENDBRANCH   9  32
TORSDOF 6
ENDMDL
MODEL 5
REMARK VINA RESULT:      -8.3      1.653      3.718
REMARK  Name = 
REMARK  6 active torsions:
REMARK  status: ('A' for Active; 'I' for Inactive)
REMARK    1  A    between atoms: O_1  and  C_2
REMARK    2  A    between atoms: C_2  and  C_3
REMARK    3  A    between atoms: N_5  and  C_6
REMARK    4  A    between atoms: C_6  and  C_7
REMARK    5  A    between atoms: C_14  and  N_15
REMARK    6  A    between atoms: N_23  and  C_24
REMARK                            x       y       z     vdW  Elec       q    Type
REMARK                         _______ _______ _______ _____ _____    ______ ____
ROOT
ATOM      1  N   UNL     1       2.610   6.478  19.555  0.00  0.00    +0.000 N 
ATOM      2  C   UNL     1       2.027   6.454  20.789  0.00  0.00    +0.000 A 
ATOM      3  N   UNL     1       1.370   7.564  21.037  0.00  0.00    +0.000 NA
ATOM      4  C   UNL     1       1.535   8.351  19.908  0.00  0.00    +0.000 A 
ATOM      5  C   UNL     1       1.077   9.650  19.569  0.00  0.00    +0.000 A 
ATOM      6  N   UNL     1       0.283  10.431  20.378  0.00  0.00    +0.000 N 
ATOM      7  C   UNL     1      -0.641   9.858  21.367  0.00  0.00    +0.000 C 
ATOM      8  C   UNL     1      -0.544  10.643  22.693  0.00  0.00    +0.000 C 
ATOM      9  N   UNL     1      -0.759  12.083  22.442  0.00  0.00    +0.000 N 
ATOM     10  C   UNL     1       0.128  12.661  21.410  0.00  0.00    +0.000 C 
ATOM     11  C   UNL     1       0.058  11.852  20.090  0.00  0.00    +0.000 C 
ATOM     12  N   UNL     1       1.519  10.155  18.378  0.00  0.00    +0.000 NA
ATOM     13  C   UNL     1       2.312   9.403  17.585  0.00  0.00    +0.000 A 
ATOM     14  N   UNL     1       2.764   8.151  17.795  0.00  0.00    +0.000 NA
ATOM     15  C   UNL     1       2.338   7.694  18.985  0.00  0.00    +0.000 A 
ENDROOT
BRANCH   1  20
ATOM     16  C   UNL     1       5.555   4.976  18.027  0.00  0.00    +0.000 C 
ATOM     17  C   UNL     1       4.888   4.417  16.744  0.00  0.00    +0.000 C 
ATOM     18  N   UNL     1       3.553   3.817  17.002  0.00  0.00    +0.000 NA
ATOM     19  C   UNL     1       2.737   4.836  17.709  0.00  0.00    +0.000 C 
ATOM     20  C   UNL     1       3.420   5.429  18.964  0.00  0.00    +0.000 C 
ATOM     21  O   UNL     1       4.718   5.980  18.632  0.00  0.00    +0.000 OA
BRANCH  16  22
ATOM     22  C   UNL     1       6.938   5.557  17.725  0.00  0.00    +0.000 C 
BRANCH  22  23
ATOM     23  O   UNL     1       7.788   4.540  17.206  0.00  0.00    +0.000 OA
ATOM     24  H   UNL     1       7.376   3.683  17.412  0.00  0.00    +0.000 HD
ENDBRANCH  22  23
ENDBRANCH  16  22
BRANCH  18  25
ATOM     25  C   UNL     1       3.700   2.562  17.767  0.00  0.00    +0.000 C 
BRANCH  25  26
ATOM     26  C   UNL     1       2.919   2.541  19.055  0.00  0.00    +0.000 A 
ATOM     27  C   UNL     1       1.524   2.509  19.047  0.00  0.00    +0.000 A 
ATOM     28  C   UNL     1       0.855   2.512  20.258  0.00  0.00    +0.000 A 
ATOM     29  N   UNL     1       1.472   2.537  21.461  0.00  0.00    +0.000 NA
ATOM     30  C   UNL     1       2.822   2.562  21.447  0.00  0.00    +0.000 A 
ATOM     31  C   UNL     1       3.580   2.563  20.289  0.00  0.00    +0.000 A 
ENDBRANCH  25  26
ENDBRANCH  18  25
ENDBRANCH   1  20
BRANCH   9  32
ATOM     32  C   UNL     1      -1.675  12.825  23.154  0.00  0.00    +0.000 A 
ATOM     33  C   UNL     1      -1.366  14.097  23.662  0.00  0.00    +0.000 A 
ATOM     34  C   UNL     1      -2.282  14.839  24.415  0.00  0.00    +0.000 A 
ATOM     35  C   UNL     1      -3.544  14.323  24.681  0.00  0.00    +0.000 A 
ATOM     36  C   UNL     1      -3.884  13.069  24.188  0.00  0.00    +0.000 A 
ATOM     37  C   UNL     1      -2.960  12.336  23.436  0.00  0.00    +0.000 A 
ENDBRANCH   9  32
TORSDOF 6
ENDMDL
MODEL 6
REMARK VINA RESULT:      -8.2      1.004      1.182
REMARK  Name = 
REMARK  6 active torsions:
REMARK  status: ('A' for Active; 'I' for Inactive)
REMARK    1  A    between atoms: O_1  and  C_2
REMARK    2  A    between atoms: C_2  and  C_3
REMARK    3  A    between atoms: N_5  and  C_6
REMARK    4  A    between atoms: C_6  and  C_7
REMARK    5  A    between atoms: C_14  and  N_15
REMARK    6  A    between atoms: N_23  and  C_24
REMARK                            x       y       z     vdW  Elec       q    Type
REMARK                         _______ _______ _______ _____ _____    ______ ____
ROOT
ATOM      1  N   UNL     1       1.879   6.991  19.724  0.00  0.00    +0.000 N 
ATOM      2  C   UNL     1       1.245   7.072  20.930  0.00  0.00    +0.000 A 
ATOM      3  N   UNL     1       0.759   8.273  21.143  0.00  0.00    +0.000 NA
ATOM      4  C   UNL     1       1.095   9.012  20.019  0.00  0.00    +0.000 A 
ATOM      5  C   UNL     1       0.862  10.362  19.653  0.00  0.00    +0.000 A 
ATOM      6  N   UNL     1       0.164  11.267  20.420  0.00  0.00    +0.000 N 
ATOM      7  C   UNL     1      -0.882  10.857  21.368  0.00  0.00    +0.000 C 
ATOM      8  C   UNL     1      -0.723  11.633  22.694  0.00  0.00    +0.000 C 
ATOM      9  N   UNL     1      -0.699  13.086  22.426  0.00  0.00    +0.000 N 
ATOM     10  C   UNL     1       0.313  13.506  21.434  0.00  0.00    +0.000 C 
ATOM     11  C   UNL     1       0.177  12.702  20.116  0.00  0.00    +0.000 C 
ATOM     12  N   UNL     1       1.430  10.778  18.481  0.00  0.00    +0.000 NA
ATOM     13  C   UNL     1       2.130   9.903  17.729  0.00  0.00    +0.000 A 
ATOM     14  N   UNL     1       2.372   8.598  17.966  0.00  0.00    +0.000 NA
ATOM     15  C   UNL     1       1.826   8.227  19.137  0.00  0.00    +0.000 A 
ENDROOT
BRANCH   1  20
ATOM     16  C   UNL     1       2.230   3.519  18.682  0.00  0.00    +0.000 C 
ATOM     17  C   UNL     1       3.492   3.158  19.507  0.00  0.00    +0.000 C 
ATOM     18  N   UNL     1       4.506   4.243  19.516  0.00  0.00    +0.000 NA
ATOM     19  C   UNL     1       3.825   5.483  19.969  0.00  0.00    +0.000 C 
ATOM     20  C   UNL     1       2.541   5.821  19.176  0.00  0.00    +0.000 C 
ATOM     21  O   UNL     1       1.611   4.710  19.204  0.00  0.00    +0.000 OA
BRANCH  16  22
ATOM     22  C   UNL     1       1.224   2.365  18.672  0.00  0.00    +0.000 C 
BRANCH  22  23
ATOM     23  O   UNL     1       0.059   2.734  19.401  0.00  0.00    +0.000 OA
ATOM     24  H   UNL     1      -0.476   3.307  18.826  0.00  0.00    +0.000 HD
ENDBRANCH  22  23
ENDBRANCH  16  22
BRANCH  18  25
ATOM     25  C   UNL     1       5.120   4.376  18.179  0.00  0.00    +0.000 C 
BRANCH  25  26
ATOM     26  C   UNL     1       6.099   5.516  18.071  0.00  0.00    +0.000 A 
ATOM     27  C   UNL     1       7.233   5.568  18.883  0.00  0.00    +0.000 A 
ATOM     28  C   UNL     1       8.089   6.647  18.757  0.00  0.00    +0.000 A 
ATOM     29  N   UNL     1       7.899   7.663  17.884  0.00  0.00    +0.000 NA
ATOM     30  C   UNL     1       6.799   7.591  17.104  0.00  0.00    +0.000 A 
ATOM     31  C   UNL     1       5.884   6.554  17.156  0.00  0.00    +0.000 A 
ENDBRANCH  25  26
ENDBRANCH  18  25
ENDBRANCH   1  20
BRANCH   9  32
ATOM     32  C   UNL     1      -1.518  13.970  23.093  0.00  0.00    +0.000 A 
ATOM     33  C   UNL     1      -1.141  14.558  24.311  0.00  0.00    +0.000 A 
ATOM     34  C   UNL     1      -1.986  15.430  25.007  0.00  0.00    +0.000 A 
ATOM     35  C   UNL     1      -3.239  15.740  24.496  0.00  0.00    +0.000 A 
ATOM     36  C   UNL     1      -3.641  15.180  23.290  0.00  0.00    +0.000 A 
ATOM     37  C   UNL     1      -2.788  14.310  22.602  0.00  0.00    +0.000 A 
ENDBRANCH   9  32
TORSDOF 6
ENDMDL
MODEL 7
REMARK VINA RESULT:      -8.1      1.781      2.160
REMARK  Name = 
REMARK  6 active torsions:
REMARK  status: ('A' for Active; 'I' for Inactive)
REMARK    1  A    between atoms: O_1  and  C_2
REMARK    2  A    between atoms: C_2  and  C_3
REMARK    3  A    between atoms: N_5  and  C_6
REMARK    4  A    between atoms: C_6  and  C_7
REMARK    5  A    between atoms: C_14  and  N_15
REMARK    6  A    between atoms: N_23  and  C_24
REMARK                            x       y       z     vdW  Elec       q    Type
REMARK                         _______ _______ _______ _____ _____    ______ ____
ROOT
ATOM      1  N   UNL     1       1.535   7.271  20.090  0.00  0.00    +0.000 N 
ATOM      2  C   UNL     1       0.917   7.469  21.291  0.00  0.00    +0.000 A 
ATOM      3  N   UNL     1       0.515   8.712  21.430  0.00  0.00    +0.000 NA
ATOM      4  C   UNL     1       0.891   9.354  20.261  0.00  0.00    +0.000 A 
ATOM      5  C   UNL     1       0.746  10.693  19.812  0.00  0.00    +0.000 A 
ATOM      6  N   UNL     1       0.116  11.688  20.525  0.00  0.00    +0.000 N 
ATOM      7  C   UNL     1      -0.947  11.408  21.501  0.00  0.00    +0.000 C 
ATOM      8  C   UNL     1      -0.725  12.253  22.775  0.00  0.00    +0.000 C 
ATOM      9  N   UNL     1      -0.606  13.681  22.417  0.00  0.00    +0.000 N 
ATOM     10  C   UNL     1       0.424  13.970  21.397  0.00  0.00    +0.000 C 
ATOM     11  C   UNL     1       0.223  13.098  20.132  0.00  0.00    +0.000 C 
ATOM     12  N   UNL     1       1.331  10.996  18.615  0.00  0.00    +0.000 NA
ATOM     13  C   UNL     1       1.965  10.030  17.916  0.00  0.00    +0.000 A 
ATOM     14  N   UNL     1       2.120   8.729  18.233  0.00  0.00    +0.000 NA
ATOM     15  C   UNL     1       1.560   8.469  19.427  0.00  0.00    +0.000 A 
ENDROOT
BRANCH   1  20
ATOM     16  C   UNL     1       2.246   3.699  20.062  0.00  0.00    +0.000 C 
ATOM     17  C   UNL     1       3.794   3.773  20.056  0.00  0.00    +0.000 C 
ATOM     18  N   UNL     1       4.317   4.842  19.166  0.00  0.00    +0.000 NA
ATOM     19  C   UNL     1       3.656   6.112  19.561  0.00  0.00    +0.000 C 
ATOM     20  C   UNL     1       2.112   6.027  19.613  0.00  0.00    +0.000 C 
ATOM     21  O   UNL     1       1.684   4.954  20.488  0.00  0.00    +0.000 OA
BRANCH  16  22
ATOM     22  C   UNL     1       1.749   2.568  20.965  0.00  0.00    +0.000 C 
BRANCH  22  23
ATOM     23  O   UNL     1       2.556   2.493  22.135  0.00  0.00    +0.000 OA
ATOM     24  H   UNL     1       1.965   2.317  22.887  0.00  0.00    +0.000 HD
ENDBRANCH  22  23
ENDBRANCH  16  22
BRANCH  18  25
ATOM     25  C   UNL     1       4.084   4.485  17.751  0.00  0.00    +0.000 C 
BRANCH  25  26
ATOM     26  C   UNL     1       5.256   4.778  16.851  0.00  0.00    +0.000 A 
ATOM     27  C   UNL     1       6.266   5.655  17.250  0.00  0.00    +0.000 A 
ATOM     28  C   UNL     1       7.309   5.905  16.376  0.00  0.00    +0.000 A 
ATOM     29  N   UNL     1       7.418   5.343  15.151  0.00  0.00    +0.000 NA
ATOM     30  C   UNL     1       6.434   4.494  14.786  0.00  0.00    +0.000 A 
ATOM     31  C   UNL     1       5.350   4.181  15.588  0.00  0.00    +0.000 A 
ENDBRANCH  25  26
ENDBRANCH  18  25
ENDBRANCH   1  20
BRANCH   9  32
ATOM     32  C   UNL     1      -1.359  14.659  23.030  0.00  0.00    +0.000 A 
ATOM     33  C   UNL     1      -1.295  14.885  24.414  0.00  0.00    +0.000 A 
ATOM     34  C   UNL     1      -2.084  15.854  25.045  0.00  0.00    +0.000 A 
ATOM     35  C   UNL     1      -2.962  16.629  24.300  0.00  0.00    +0.000 A 
ATOM     36  C   UNL     1      -3.046  16.434  22.926  0.00  0.00    +0.000 A 
ATOM     37  C   UNL     1      -2.253  15.462  22.306  0.00  0.00    +0.000 A 
ENDBRANCH   9  32
TORSDOF 6
ENDMDL
MODEL 8
REMARK VINA RESULT:      -8.0      2.632      4.646
REMARK  Name = 
REMARK  6 active torsions:
REMARK  status: ('A' for Active; 'I' for Inactive)
REMARK    1  A    between atoms: O_1  and  C_2
REMARK    2  A    between atoms: C_2  and  C_3
REMARK    3  A    between atoms: N_5  and  C_6
REMARK    4  A    between atoms: C_6  and  C_7
REMARK    5  A    between atoms: C_14  and  N_15
REMARK    6  A    between atoms: N_23  and  C_24
REMARK                            x       y       z     vdW  Elec       q    Type
REMARK                         _______ _______ _______ _____ _____    ______ ____
ROOT
ATOM      1  N   UNL     1       3.232   6.866  18.342  0.00  0.00    +0.000 N 
ATOM      2  C   UNL     1       3.301   7.989  17.570  0.00  0.00    +0.000 A 
ATOM      3  N   UNL     1       2.592   8.971  18.078  0.00  0.00    +0.000 NA
ATOM      4  C   UNL     1       2.032   8.460  19.238  0.00  0.00    +0.000 A 
ATOM      5  C   UNL     1       1.171   9.021  20.217  0.00  0.00    +0.000 A 
ATOM      6  N   UNL     1       0.711  10.319  20.196  0.00  0.00    +0.000 N 
ATOM      7  C   UNL     1       1.458  11.410  19.555  0.00  0.00    +0.000 C 
ATOM      8  C   UNL     1       0.494  12.296  18.736  0.00  0.00    +0.000 C 
ATOM      9  N   UNL     1      -0.617  12.757  19.594  0.00  0.00    +0.000 N 
ATOM     10  C   UNL     1      -1.343  11.673  20.288  0.00  0.00    +0.000 C 
ATOM     11  C   UNL     1      -0.371  10.763  21.081  0.00  0.00    +0.000 C 
ATOM     12  N   UNL     1       0.741   8.175  21.201  0.00  0.00    +0.000 NA
ATOM     13  C   UNL     1       1.173   6.896  21.220  0.00  0.00    +0.000 A 
ATOM     14  N   UNL     1       2.018   6.283  20.368  0.00  0.00    +0.000 NA
ATOM     15  C   UNL     1       2.400   7.131  19.397  0.00  0.00    +0.000 A 
ENDROOT
BRANCH   1  20
ATOM     16  C   UNL     1       5.739   4.603  16.977  0.00  0.00    +0.000 C 
ATOM     17  C   UNL     1       4.792   3.652  16.202  0.00  0.00    +0.000 C 
ATOM     18  N   UNL     1       3.550   3.335  16.955  0.00  0.00    +0.000 NA
ATOM     19  C   UNL     1       2.923   4.625  17.340  0.00  0.00    +0.000 C 
ATOM     20  C   UNL     1       3.880   5.595  18.073  0.00  0.00    +0.000 C 
ATOM     21  O   UNL     1       5.069   5.841  17.282  0.00  0.00    +0.000 OA
BRANCH  16  22
ATOM     22  C   UNL     1       7.017   4.881  16.182  0.00  0.00    +0.000 C 
BRANCH  22  23
ATOM     23  O   UNL     1       7.391   6.246  16.328  0.00  0.00    +0.000 OA
ATOM     24  H   UNL     1       7.639   6.383  17.259  0.00  0.00    +0.000 HD
ENDBRANCH  22  23
ENDBRANCH  16  22
BRANCH  18  25
ATOM     25  C   UNL     1       3.865   2.475  18.114  0.00  0.00    +0.000 C 
BRANCH  25  26
ATOM     26  C   UNL     1       2.885   2.608  19.251  0.00  0.00    +0.000 A 
ATOM     27  C   UNL     1       1.509   2.601  19.018  0.00  0.00    +0.000 A 
ATOM     28  C   UNL     1       0.654   2.747  20.096  0.00  0.00    +0.000 A 
ATOM     29  N   UNL     1       1.070   2.891  21.375  0.00  0.00    +0.000 NA
ATOM     30  C   UNL     1       2.405   2.890  21.579  0.00  0.00    +0.000 A 
ATOM     31  C   UNL     1       3.339   2.752  20.568  0.00  0.00    +0.000 A 
ENDBRANCH  25  26
ENDBRANCH  18  25
ENDBRANCH   1  20
BRANCH   9  32
ATOM     32  C   UNL     1      -0.970  14.086  19.688  0.00  0.00    +0.000 A 
ATOM     33  C   UNL     1      -0.340  15.077  18.920  0.00  0.00    +0.000 A 
ATOM     34  C   UNL     1      -0.673  16.432  19.038  0.00  0.00    +0.000 A 
ATOM     35  C   UNL     1      -1.655  16.830  19.935  0.00  0.00    +0.000 A 
ATOM     36  C   UNL     1      -2.302  15.873  20.707  0.00  0.00    +0.000 A 
ATOM     37  C   UNL     1      -1.961  14.522  20.581  0.00  0.00    +0.000 A 
ENDBRANCH   9  32
TORSDOF 6
ENDMDL
MODEL 9
REMARK VINA RESULT:      -8.0      1.743      2.109
REMARK  Name = 
REMARK  6 active torsions:
REMARK  status: ('A' for Active; 'I' for Inactive)
REMARK    1  A    between atoms: O_1  and  C_2
REMARK    2  A    between atoms: C_2  and  C_3
REMARK    3  A    between atoms: N_5  and  C_6
REMARK    4  A    between atoms: C_6  and  C_7
REMARK    5  A    between atoms: C_14  and  N_15
REMARK    6  A    between atoms: N_23  and  C_24
REMARK                            x       y       z     vdW  Elec       q    Type
REMARK                         _______ _______ _______ _____ _____    ______ ____
ROOT
ATOM      1  N   UNL     1       1.617   7.139  19.990  0.00  0.00    +0.000 N 
ATOM      2  C   UNL     1       0.996   7.306  21.194  0.00  0.00    +0.000 A 
ATOM      3  N   UNL     1       0.584   8.542  21.360  0.00  0.00    +0.000 NA
ATOM      4  C   UNL     1       0.956   9.213  20.206  0.00  0.00    +0.000 A 
ATOM      5  C   UNL     1       0.802  10.560  19.786  0.00  0.00    +0.000 A 
ATOM      6  N   UNL     1       0.164  11.535  20.519  0.00  0.00    +0.000 N 
ATOM      7  C   UNL     1      -0.898  11.226  21.487  0.00  0.00    +0.000 C 
ATOM      8  C   UNL     1      -0.685  12.044  22.780  0.00  0.00    +0.000 C 
ATOM      9  N   UNL     1      -0.576  13.481  22.453  0.00  0.00    +0.000 N 
ATOM     10  C   UNL     1       0.453  13.800  21.441  0.00  0.00    +0.000 C 
ATOM     11  C   UNL     1       0.261  12.954  20.157  0.00  0.00    +0.000 C 
ATOM     12  N   UNL     1       1.387  10.894  18.596  0.00  0.00    +0.000 NA
ATOM     13  C   UNL     1       2.029   9.948  17.877  0.00  0.00    +0.000 A 
ATOM     14  N   UNL     1       2.193   8.642  18.166  0.00  0.00    +0.000 NA
ATOM     15  C   UNL     1       1.634   8.352  19.353  0.00  0.00    +0.000 A 
ENDROOT
BRANCH   1  20
ATOM     16  C   UNL     1       2.405   3.584  19.919  0.00  0.00    +0.000 C 
ATOM     17  C   UNL     1       3.950   3.692  19.859  0.00  0.00    +0.000 C 
ATOM     18  N   UNL     1       4.418   4.777  18.957  0.00  0.00    +0.000 NA
ATOM     19  C   UNL     1       3.743   6.030  19.382  0.00  0.00    +0.000 C 
ATOM     20  C   UNL     1       2.204   5.910  19.487  0.00  0.00    +0.000 C 
ATOM     21  O   UNL     1       1.831   4.825  20.371  0.00  0.00    +0.000 OA
BRANCH  16  22
ATOM     22  C   UNL     1       1.964   2.438  20.833  0.00  0.00    +0.000 C 
BRANCH  22  23
ATOM     23  O   UNL     1       1.937   2.882  22.186  0.00  0.00    +0.000 OA
ATOM     24  H   UNL     1       2.859   3.004  22.471  0.00  0.00    +0.000 HD
ENDBRANCH  22  23
ENDBRANCH  16  22
BRANCH  18  25
ATOM     25  C   UNL     1       4.143   4.420  17.550  0.00  0.00    +0.000 C 
BRANCH  25  26
ATOM     26  C   UNL     1       5.290   4.710  16.616  0.00  0.00    +0.000 A 
ATOM     27  C   UNL     1       5.368   4.098  15.364  0.00  0.00    +0.000 A 
ATOM     28  C   UNL     1       6.452   4.384  14.554  0.00  0.00    +0.000 A 
ATOM     29  N   UNL     1       7.448   5.232  14.897  0.00  0.00    +0.000 NA
ATOM     30  C   UNL     1       7.351   5.818  16.110  0.00  0.00    +0.000 A 
ATOM     31  C   UNL     1       6.308   5.595  16.992  0.00  0.00    +0.000 A 
ENDBRANCH  25  26
ENDBRANCH  18  25
ENDBRANCH   1  20
BRANCH   9  32
ATOM     32  C   UNL     1      -1.337  14.439  23.087  0.00  0.00    +0.000 A 
ATOM     33  C   UNL     1      -2.724  14.297  23.248  0.00  0.00    +0.000 A 
ATOM     34  C   UNL     1      -3.505  15.283  23.861  0.00  0.00    +0.000 A 
ATOM     35  C   UNL     1      -2.912  16.446  24.333  0.00  0.00    +0.000 A 
ATOM     36  C   UNL     1      -1.540  16.616  24.194  0.00  0.00    +0.000 A 
ATOM     37  C   UNL     1      -0.769  15.623  23.580  0.00  0.00    +0.000 A 
ENDBRANCH   9  32
TORSDOF 6
ENDMDL
