MODEL 1
REMARK VINA RESULT:      -7.9      0.000      0.000
REMARK  Name = 
REMARK  9 active torsions:
REMARK  status: ('A' for Active; 'I' for Inactive)
REMARK    1  A    between atoms: C_1  and  C_2
REMARK    2  A    between atoms: N_6  and  C_7
REMARK    3  A    between atoms: C_10  and  C_11
REMARK    4  A    between atoms: C_11  and  C_12
REMARK    5  A    between atoms: C_12  and  C_13
REMARK    6  A    between atoms: N_15  and  C_16
REMARK    7  A    between atoms: C_19  and  C_20
REMARK    8  A    between atoms: C_20  and  C_21
REMARK    9  A    between atoms: C_20  and  C_22
REMARK                            x       y       z     vdW  Elec       q    Type
REMARK                         _______ _______ _______ _____ _____    ______ ____
ROOT
ATOM      1  C   UNL     1       7.440   6.130  18.320  0.00  0.00    +0.000 C 
ENDROOT
BRANCH   1   2
ATOM      2  C   UNL     1       7.448   5.185  17.134  0.00  0.00    +0.000 C 
ATOM      3  O   UNL     1       7.952   4.069  17.206  0.00  0.00    +0.000 OA
ATOM      4  N   UNL     1       6.817   5.732  16.027  0.00  0.00    +0.000 N 
ATOM      5  H   UNL     1       6.599   6.720  16.060  0.00  0.00    +0.000 HD
BRANCH   4   6
ATOM      6  C   UNL     1       6.517   5.067  14.820  0.00  0.00    +0.000 A 
ATOM      7  C   UNL     1       7.390   5.027  13.734  0.00  0.00    +0.000 A 
ATOM      8  C   UNL     1       7.066   4.307  12.582  0.00  0.00    +0.000 A 
ATOM      9  C   UNL     1       5.858   3.609  12.487  0.00  0.00    +0.000 A 
ATOM     10  C   UNL     1       4.967   3.672  13.568  0.00  0.00    +0.000 A 
ATOM     11  C   UNL     1       5.300   4.385  14.728  0.00  0.00    +0.000 A 
BRANCH   9  12
ATOM     12  C   UNL     1       5.571   2.787  11.246  0.00  0.00    +0.000 C 
ATOM     13  C   UNL     1       6.069   1.348  11.412  0.00  0.00    +0.000 C 
ATOM     14  C   UNL     1       4.093   2.819  10.861  0.00  0.00    +0.000 C 
ENDBRANCH   9  12
ENDBRANCH   4   6
ENDBRANCH   1   2
BRANCH   1  15
ATOM     15  C   UNL     1       6.435   5.671  19.386  0.00  0.00    +0.000 C 
BRANCH  15  25
ATOM     16  C   UNL     1       4.539   7.508  17.783  0.00  0.00    +0.000 C 
ATOM     17  C   UNL     1       4.262   6.069  18.122  0.00  0.00    +0.000 A 
ATOM     18  N   UNL     1       3.074   5.569  17.658  0.00  0.00    +0.000 N 
ATOM     19  C   UNL     1       2.624   4.296  17.845  0.00  0.00    +0.000 A 
ATOM     20  O   UNL     1       1.531   3.975  17.387  0.00  0.00    +0.000 OA
ATOM     21  N   UNL     1       3.457   3.459  18.551  0.00  0.00    +0.000 N 
ATOM     22  C   UNL     1       3.054   2.088  18.786  0.00  0.00    +0.000 C 
ATOM     23  C   UNL     1       4.699   3.842  19.016  0.00  0.00    +0.000 A 
ATOM     24  O   UNL     1       5.468   3.063  19.578  0.00  0.00    +0.000 OA
ATOM     25  C   UNL     1       5.092   5.273  18.821  0.00  0.00    +0.000 A 
ATOM     26  H   UNL     1       2.442   6.158  17.125  0.00  0.00    +0.000 HD
ENDBRANCH  15  25
ENDBRANCH   1  15
TORSDOF 5
ENDMDL
MODEL 2
REMARK VINA RESULT:      -7.6      3.416      7.267
REMARK  Name = 
REMARK  9 active torsions:
REMARK  status: ('A' for Active; 'I' for Inactive)
REMARK    1  A    between atoms: C_1  and  C_2
REMARK    2  A    between atoms: N_6  and  C_7
REMARK    3  A    between atoms: C_10  and  C_11
REMARK    4  A    between atoms: C_11  and  C_12
REMARK    5  A    between atoms: C_12  and  C_13
REMARK    6  A    between atoms: N_15  and  C_16
REMARK    7  A    between atoms: C_19  and  C_20
REMARK    8  A    between atoms: C_20  and  C_21
REMARK    9  A    between atoms: C_20  and  C_22
REMARK                            x       y       z     vdW  Elec       q    Type
REMARK                         _______ _______ _______ _____ _____    ______ ____
ROOT
ATOM      1  C   UNL     1       3.461   4.108  20.776  0.00  0.00    +0.000 C 
ENDROOT
BRANCH   1   2
ATOM      2  C   UNL     1       2.447   5.055  20.163  0.00  0.00    +0.000 C 
ATOM      3  O   UNL     1       1.336   4.667  19.815  0.00  0.00    +0.000 OA
ATOM      4  N   UNL     1       2.927   6.353  20.083  0.00  0.00    +0.000 N 
ATOM      5  H   UNL     1       3.915   6.492  20.252  0.00  0.00    +0.000 HD
BRANCH   4   6
ATOM      6  C   UNL     1       2.191   7.496  19.709  0.00  0.00    +0.000 A 
ATOM      7  C   UNL     1       2.195   8.018  18.416  0.00  0.00    +0.000 A 
ATOM      8  C   UNL     1       1.404   9.121  18.088  0.00  0.00    +0.000 A 
ATOM      9  C   UNL     1       0.589   9.732  19.046  0.00  0.00    +0.000 A 
ATOM     10  C   UNL     1       0.606   9.226  20.353  0.00  0.00    +0.000 A 
ATOM     11  C   UNL     1       1.391   8.111  20.678  0.00  0.00    +0.000 A 
BRANCH   9  12
ATOM     12  C   UNL     1      -0.303  10.887  18.633  0.00  0.00    +0.000 C 
ATOM     13  C   UNL     1      -1.501  10.392  17.818  0.00  0.00    +0.000 C 
ATOM     14  C   UNL     1      -0.756  11.722  19.830  0.00  0.00    +0.000 C 
ENDBRANCH   9  12
ENDBRANCH   4   6
ENDBRANCH   1   2
BRANCH   1  15
ATOM     15  C   UNL     1       4.098   3.211  19.705  0.00  0.00    +0.000 C 
BRANCH  15  25
ATOM     16  C   UNL     1       2.747   3.245  16.928  0.00  0.00    +0.000 C 
ATOM     17  C   UNL     1       4.006   3.988  17.283  0.00  0.00    +0.000 A 
ATOM     18  N   UNL     1       4.558   4.732  16.274  0.00  0.00    +0.000 N 
ATOM     19  C   UNL     1       5.692   5.483  16.375  0.00  0.00    +0.000 A 
ATOM     20  O   UNL     1       6.092   6.096  15.389  0.00  0.00    +0.000 OA
ATOM     21  N   UNL     1       6.306   5.487  17.606  0.00  0.00    +0.000 N 
ATOM     22  C   UNL     1       7.511   6.267  17.796  0.00  0.00    +0.000 C 
ATOM     23  C   UNL     1       5.805   4.819  18.704  0.00  0.00    +0.000 A 
ATOM     24  O   UNL     1       6.320   4.892  19.820  0.00  0.00    +0.000 OA
ATOM     25  C   UNL     1       4.590   3.969  18.495  0.00  0.00    +0.000 A 
ATOM     26  H   UNL     1       4.124   4.759  15.357  0.00  0.00    +0.000 HD
ENDBRANCH  15  25
ENDBRANCH   1  15
TORSDOF 5
ENDMDL
MODEL 3
REMARK VINA RESULT:      -7.4      6.222      9.417
REMARK  Name = 
REMARK  9 active torsions:
REMARK  status: ('A' for Active; 'I' for Inactive)
REMARK    1  A    between atoms: C_1  and  C_2
REMARK    2  A    between atoms: N_6  and  C_7
REMARK    3  A    between atoms: C_10  and  C_11
REMARK    4  A    between atoms: C_11  and  C_12
REMARK    5  A    between atoms: C_12  and  C_13
REMARK    6  A    between atoms: N_15  and  C_16
REMARK    7  A    between atoms: C_19  and  C_20
REMARK    8  A    between atoms: C_20  and  C_21
REMARK    9  A    between atoms: C_20  and  C_22
REMARK                            x       y       z     vdW  Elec       q    Type
REMARK                         _______ _______ _______ _____ _____    ______ ____
ROOT
ATOM      1  C   UNL     1       2.208   9.181  18.078  0.00  0.00    +0.000 C 
ENDROOT
BRANCH   1   2
ATOM      2  C   UNL     1       0.880   9.544  18.714  0.00  0.00    +0.000 C 
ATOM      3  O   UNL     1       0.718   9.501  19.929  0.00  0.00    +0.000 OA
ATOM      4  N   UNL     1      -0.060   9.932  17.772  0.00  0.00    +0.000 N 
ATOM      5  H   UNL     1       0.161   9.760  16.799  0.00  0.00    +0.000 HD
BRANCH   4   6
ATOM      6  C   UNL     1      -1.335  10.475  18.035  0.00  0.00    +0.000 A 
ATOM      7  C   UNL     1      -1.545  11.533  18.919  0.00  0.00    +0.000 A 
ATOM      8  C   UNL     1      -2.822  12.068  19.102  0.00  0.00    +0.000 A 
ATOM      9  C   UNL     1      -3.922  11.558  18.406  0.00  0.00    +0.000 A 
ATOM     10  C   UNL     1      -3.716  10.476  17.539  0.00  0.00    +0.000 A 
ATOM     11  C   UNL     1      -2.432   9.948  17.347  0.00  0.00    +0.000 A 
BRANCH   9  12
ATOM     12  C   UNL     1      -5.281  12.208  18.584  0.00  0.00    +0.000 C 
ATOM     13  C   UNL     1      -5.956  12.450  17.231  0.00  0.00    +0.000 C 
ATOM     14  C   UNL     1      -6.186  11.407  19.518  0.00  0.00    +0.000 C 
ENDBRANCH   9  12
ENDBRANCH   4   6
ENDBRANCH   1   2
BRANCH   1  15
ATOM     15  C   UNL     1       2.192   7.739  17.548  0.00  0.00    +0.000 C 
BRANCH  15  25
ATOM     16  C   UNL     1       1.994   6.211  20.225  0.00  0.00    +0.000 C 
ATOM     17  C   UNL     1       3.187   6.195  19.309  0.00  0.00    +0.000 A 
ATOM     18  N   UNL     1       4.241   5.424  19.724  0.00  0.00    +0.000 N 
ATOM     19  C   UNL     1       5.416   5.263  19.052  0.00  0.00    +0.000 A 
ATOM     20  O   UNL     1       6.291   4.552  19.540  0.00  0.00    +0.000 OA
ATOM     21  N   UNL     1       5.522   5.930  17.854  0.00  0.00    +0.000 N 
ATOM     22  C   UNL     1       6.737   5.803  17.076  0.00  0.00    +0.000 C 
ATOM     23  C   UNL     1       4.502   6.687  17.316  0.00  0.00    +0.000 A 
ATOM     24  O   UNL     1       4.580   7.217  16.207  0.00  0.00    +0.000 OA
ATOM     25  C   UNL     1       3.268   6.863  18.144  0.00  0.00    +0.000 A 
ATOM     26  H   UNL     1       4.190   4.911  20.598  0.00  0.00    +0.000 HD
ENDBRANCH  15  25
ENDBRANCH   1  15
TORSDOF 5
ENDMDL
MODEL 4
REMARK VINA RESULT:      -7.4      4.985      8.726
REMARK  Name = 
REMARK  9 active torsions:
REMARK  status: ('A' for Active; 'I' for Inactive)
REMARK    1  A    between atoms: C_1  and  C_2
REMARK    2  A    between atoms: N_6  and  C_7
REMARK    3  A    between atoms: C_10  and  C_11
REMARK    4  A    between atoms: C_11  and  C_12
REMARK    5  A    between atoms: C_12  and  C_13
REMARK    6  A    between atoms: N_15  and  C_16
REMARK    7  A    between atoms: C_19  and  C_20
REMARK    8  A    between atoms: C_20  and  C_21
REMARK    9  A    between atoms: C_20  and  C_22
REMARK                            x       y       z     vdW  Elec       q    Type
REMARK                         _______ _______ _______ _____ _____    ______ ____
ROOT
ATOM      1  C   UNL     1       3.049   7.280  18.144  0.00  0.00    +0.000 C 
ENDROOT
BRANCH   1   2
ATOM      2  C   UNL     1       2.036   8.088  18.932  0.00  0.00    +0.000 C 
ATOM      3  O   UNL     1       1.862   7.904  20.132  0.00  0.00    +0.000 OA
ATOM      4  N   UNL     1       1.392   9.029  18.142  0.00  0.00    +0.000 N 
ATOM      5  H   UNL     1       1.516   8.955  17.141  0.00  0.00    +0.000 HD
BRANCH   4   6
ATOM      6  C   UNL     1       0.513  10.037  18.590  0.00  0.00    +0.000 A 
ATOM      7  C   UNL     1      -0.844  10.064  18.269  0.00  0.00    +0.000 A 
ATOM      8  C   UNL     1      -1.681  11.056  18.785  0.00  0.00    +0.000 A 
ATOM      9  C   UNL     1      -1.181  12.048  19.635  0.00  0.00    +0.000 A 
ATOM     10  C   UNL     1       0.189  12.038  19.934  0.00  0.00    +0.000 A 
ATOM     11  C   UNL     1       1.025  11.034  19.426  0.00  0.00    +0.000 A 
BRANCH   9  12
ATOM     12  C   UNL     1      -2.134  13.069  20.225  0.00  0.00    +0.000 C 
ATOM     13  C   UNL     1      -3.590  12.628  20.049  0.00  0.00    +0.000 C 
ATOM     14  C   UNL     1      -1.821  13.372  21.689  0.00  0.00    +0.000 C 
ENDBRANCH   9  12
ENDBRANCH   4   6
ENDBRANCH   1   2
BRANCH   1  15
ATOM     15  C   UNL     1       2.503   5.885  17.809  0.00  0.00    +0.000 C 
BRANCH  15  25
ATOM     16  C   UNL     1       5.246   4.734  16.981  0.00  0.00    +0.000 C 
ATOM     17  C   UNL     1       4.430   4.259  18.151  0.00  0.00    +0.000 A 
ATOM     18  N   UNL     1       4.986   3.245  18.887  0.00  0.00    +0.000 N 
ATOM     19  C   UNL     1       4.424   2.666  19.986  0.00  0.00    +0.000 A 
ATOM     20  O   UNL     1       5.020   1.753  20.551  0.00  0.00    +0.000 OA
ATOM     21  N   UNL     1       3.204   3.169  20.376  0.00  0.00    +0.000 N 
ATOM     22  C   UNL     1       2.546   2.612  21.540  0.00  0.00    +0.000 C 
ATOM     23  C   UNL     1       2.582   4.224  19.742  0.00  0.00    +0.000 A 
ATOM     24  O   UNL     1       1.528   4.716  20.145  0.00  0.00    +0.000 OA
ATOM     25  C   UNL     1       3.235   4.764  18.507  0.00  0.00    +0.000 A 
ATOM     26  H   UNL     1       5.889   2.860  18.632  0.00  0.00    +0.000 HD
ENDBRANCH  15  25
ENDBRANCH   1  15
TORSDOF 5
ENDMDL
MODEL 5
REMARK VINA RESULT:      -7.4      3.303      7.271
REMARK  Name = 
REMARK  9 active torsions:
REMARK  status: ('A' for Active; 'I' for Inactive)
REMARK    1  A    between atoms: C_1  and  C_2
REMARK    2  A    between atoms: N_6  and  C_7
REMARK    3  A    between atoms: C_10  and  C_11
REMARK    4  A    between atoms: C_11  and  C_12
REMARK    5  A    between atoms: C_12  and  C_13
REMARK    6  A    between atoms: N_15  and  C_16
REMARK    7  A    between atoms: C_19  and  C_20
REMARK    8  A    between atoms: C_20  and  C_21
REMARK    9  A    between atoms: C_20  and  C_22
REMARK                            x       y       z     vdW  Elec       q    Type
REMARK                         _______ _______ _______ _____ _____    ______ ____
ROOT
ATOM      1  C   UNL     1       3.359   3.689  20.705  0.00  0.00    +0.000 C 
ENDROOT
BRANCH   1   2
ATOM      2  C   UNL     1       2.363   4.716  20.201  0.00  0.00    +0.000 C 
ATOM      3  O   UNL     1       1.242   4.391  19.824  0.00  0.00    +0.000 OA
ATOM      4  N   UNL     1       2.874   6.004  20.249  0.00  0.00    +0.000 N 
ATOM      5  H   UNL     1       3.865   6.103  20.423  0.00  0.00    +0.000 HD
BRANCH   4   6
ATOM      6  C   UNL     1       2.162   7.196  20.000  0.00  0.00    +0.000 A 
ATOM      7  C   UNL     1       1.387   7.838  20.966  0.00  0.00    +0.000 A 
ATOM      8  C   UNL     1       0.747   9.046  20.682  0.00  0.00    +0.000 A 
ATOM      9  C   UNL     1       0.865   9.644  19.422  0.00  0.00    +0.000 A 
ATOM     10  C   UNL     1       1.621   8.985  18.443  0.00  0.00    +0.000 A 
ATOM     11  C   UNL     1       2.273   7.778  18.733  0.00  0.00    +0.000 A 
BRANCH   9  12
ATOM     12  C   UNL     1       0.208  10.988  19.174  0.00  0.00    +0.000 C 
ATOM     13  C   UNL     1       1.222  12.006  18.648  0.00  0.00    +0.000 C 
ATOM     14  C   UNL     1      -0.999  10.877  18.243  0.00  0.00    +0.000 C 
ENDBRANCH   9  12
ENDBRANCH   4   6
ENDBRANCH   1   2
BRANCH   1  15
ATOM     15  C   UNL     1       4.124   3.042  19.542  0.00  0.00    +0.000 C 
BRANCH  15  25
ATOM     16  C   UNL     1       2.692   3.591  16.861  0.00  0.00    +0.000 C 
ATOM     17  C   UNL     1       3.953   4.271  17.320  0.00  0.00    +0.000 A 
ATOM     18  N   UNL     1       4.467   5.206  16.461  0.00  0.00    +0.000 N 
ATOM     19  C   UNL     1       5.595   5.941  16.675  0.00  0.00    +0.000 A 
ATOM     20  O   UNL     1       5.959   6.740  15.817  0.00  0.00    +0.000 OA
ATOM     21  N   UNL     1       6.244   5.717  17.867  0.00  0.00    +0.000 N 
ATOM     22  C   UNL     1       7.446   6.465  18.173  0.00  0.00    +0.000 C 
ATOM     23  C   UNL     1       5.783   4.841  18.827  0.00  0.00    +0.000 A 
ATOM     24  O   UNL     1       6.329   4.705  19.922  0.00  0.00    +0.000 OA
ATOM     25  C   UNL     1       4.572   4.028  18.489  0.00  0.00    +0.000 A 
ATOM     26  H   UNL     1       4.006   5.402  15.579  0.00  0.00    +0.000 HD
ENDBRANCH  15  25
ENDBRANCH   1  15
TORSDOF 5
ENDMDL
MODEL 6
REMARK VINA RESULT:      -7.3      5.529      7.948
REMARK  Name = 
REMARK  9 active torsions:
REMARK  status: ('A' for Active; 'I' for Inactive)
REMARK    1  A    between atoms: C_1  and  C_2
REMARK    2  A    between atoms: N_6  and  C_7
REMARK    3  A    between atoms: C_10  and  C_11
REMARK    4  A    between atoms: C_11  and  C_12
REMARK    5  A    between atoms: C_12  and  C_13
REMARK    6  A    between atoms: N_15  and  C_16
REMARK    7  A    between atoms: C_19  and  C_20
REMARK    8  A    between atoms: C_20  and  C_21
REMARK    9  A    between atoms: C_20  and  C_22
REMARK                            x       y       z     vdW  Elec       q    Type
REMARK                         _______ _______ _______ _____ _____    ______ ____
ROOT
ATOM      1  C   UNL     1       8.460   9.494  17.948  0.00  0.00    +0.000 C 
ENDROOT
BRANCH   1   2
ATOM      2  C   UNL     1       7.862   8.102  18.011  0.00  0.00    +0.000 C 
ATOM      3  O   UNL     1       8.319   7.240  18.755  0.00  0.00    +0.000 OA
ATOM      4  N   UNL     1       6.772   7.964  17.166  0.00  0.00    +0.000 N 
ATOM      5  H   UNL     1       6.613   8.702  16.491  0.00  0.00    +0.000 HD
BRANCH   4   6
ATOM      6  C   UNL     1       5.901   6.857  17.096  0.00  0.00    +0.000 A 
ATOM      7  C   UNL     1       6.282   5.618  16.583  0.00  0.00    +0.000 A 
ATOM      8  C   UNL     1       5.395   4.538  16.589  0.00  0.00    +0.000 A 
ATOM      9  C   UNL     1       4.103   4.672  17.107  0.00  0.00    +0.000 A 
ATOM     10  C   UNL     1       3.710   5.926  17.597  0.00  0.00    +0.000 A 
ATOM     11  C   UNL     1       4.605   7.004  17.603  0.00  0.00    +0.000 A 
BRANCH   9  12
ATOM     12  C   UNL     1       3.193   3.460  17.154  0.00  0.00    +0.000 C 
ATOM     13  C   UNL     1       3.827   2.328  17.967  0.00  0.00    +0.000 C 
ATOM     14  C   UNL     1       1.800   3.804  17.679  0.00  0.00    +0.000 C 
ENDBRANCH   9  12
ENDBRANCH   4   6
ENDBRANCH   1   2
BRANCH   1  15
ATOM     15  C   UNL     1       9.339   9.774  19.175  0.00  0.00    +0.000 C 
BRANCH  15  25
ATOM     16  C   UNL     1       8.625  11.399  21.703  0.00  0.00    +0.000 C 
ATOM     17  C   UNL     1       9.319  11.954  20.489  0.00  0.00    +0.000 A 
ATOM     18  N   UNL     1       9.654  13.281  20.554  0.00  0.00    +0.000 N 
ATOM     19  C   UNL     1      10.287  13.985  19.574  0.00  0.00    +0.000 A 
ATOM     20  O   UNL     1      10.519  15.179  19.750  0.00  0.00    +0.000 OA
ATOM     21  N   UNL     1      10.621  13.278  18.441  0.00  0.00    +0.000 N 
ATOM     22  C   UNL     1      11.304  13.954  17.358  0.00  0.00    +0.000 C 
ATOM     23  C   UNL     1      10.382  11.928  18.295  0.00  0.00    +0.000 A 
ATOM     24  O   UNL     1      10.754  11.289  17.310  0.00  0.00    +0.000 OA
ATOM     25  C   UNL     1       9.628  11.241  19.391  0.00  0.00    +0.000 A 
ATOM     26  H   UNL     1       9.431  13.828  21.379  0.00  0.00    +0.000 HD
ENDBRANCH  15  25
ENDBRANCH   1  15
TORSDOF 5
ENDMDL
MODEL 7
REMARK VINA RESULT:      -7.3      4.888      8.838
REMARK  Name = 
REMARK  9 active torsions:
REMARK  status: ('A' for Active; 'I' for Inactive)
REMARK    1  A    between atoms: C_1  and  C_2
REMARK    2  A    between atoms: N_6  and  C_7
REMARK    3  A    between atoms: C_10  and  C_11
REMARK    4  A    between atoms: C_11  and  C_12
REMARK    5  A    between atoms: C_12  and  C_13
REMARK    6  A    between atoms: N_15  and  C_16
REMARK    7  A    between atoms: C_19  and  C_20
REMARK    8  A    between atoms: C_20  and  C_21
REMARK    9  A    between atoms: C_20  and  C_22
REMARK                            x       y       z     vdW  Elec       q    Type
REMARK                         _______ _______ _______ _____ _____    ______ ____
ROOT
ATOM      1  C   UNL     1       3.136   7.251  17.764  0.00  0.00    +0.000 C 
ENDROOT
BRANCH   1   2
ATOM      2  C   UNL     1       2.348   8.472  18.193  0.00  0.00    +0.000 C 
ATOM      3  O   UNL     1       2.181   9.426  17.440  0.00  0.00    +0.000 OA
ATOM      4  N   UNL     1       1.853   8.347  19.482  0.00  0.00    +0.000 N 
ATOM      5  H   UNL     1       2.208   7.583  20.042  0.00  0.00    +0.000 HD
BRANCH   4   6
ATOM      6  C   UNL     1       0.958   9.227  20.125  0.00  0.00    +0.000 A 
ATOM      7  C   UNL     1       0.967   9.455  21.500  0.00  0.00    +0.000 A 
ATOM      8  C   UNL     1       0.094  10.379  22.078  0.00  0.00    +0.000 A 
ATOM      9  C   UNL     1      -0.813  11.099  21.294  0.00  0.00    +0.000 A 
ATOM     10  C   UNL     1      -0.842  10.850  19.914  0.00  0.00    +0.000 A 
ATOM     11  C   UNL     1       0.044   9.931  19.334  0.00  0.00    +0.000 A 
BRANCH   9  12
ATOM     12  C   UNL     1      -1.699  12.140  21.950  0.00  0.00    +0.000 C 
ATOM     13  C   UNL     1      -2.227  11.642  23.298  0.00  0.00    +0.000 C 
ATOM     14  C   UNL     1      -0.995  13.488  22.096  0.00  0.00    +0.000 C 
ENDBRANCH   9  12
ENDBRANCH   4   6
ENDBRANCH   1   2
BRANCH   1  15
ATOM     15  C   UNL     1       2.284   5.978  17.866  0.00  0.00    +0.000 C 
BRANCH  15  25
ATOM     16  C   UNL     1       4.759   4.582  16.655  0.00  0.00    +0.000 C 
ATOM     17  C   UNL     1       4.096   4.192  17.948  0.00  0.00    +0.000 A 
ATOM     18  N   UNL     1       4.670   3.142  18.614  0.00  0.00    +0.000 N 
ATOM     19  C   UNL     1       4.237   2.627  19.800  0.00  0.00    +0.000 A 
ATOM     20  O   UNL     1       4.834   1.670  20.289  0.00  0.00    +0.000 OA
ATOM     21  N   UNL     1       3.140   3.239  20.360  0.00  0.00    +0.000 N 
ATOM     22  C   UNL     1       2.624   2.754  21.624  0.00  0.00    +0.000 C 
ATOM     23  C   UNL     1       2.520   4.338  19.803  0.00  0.00    +0.000 A 
ATOM     24  O   UNL     1       1.587   4.925  20.351  0.00  0.00    +0.000 OA
ATOM     25  C   UNL     1       3.018   4.805  18.471  0.00  0.00    +0.000 A 
ATOM     26  H   UNL     1       5.487   2.676  18.233  0.00  0.00    +0.000 HD
ENDBRANCH  15  25
ENDBRANCH   1  15
TORSDOF 5
ENDMDL
MODEL 8
REMARK VINA RESULT:      -7.3      4.397      7.568
REMARK  Name = 
REMARK  9 active torsions:
REMARK  status: ('A' for Active; 'I' for Inactive)
REMARK    1  A    between atoms: C_1  and  C_2
REMARK    2  A    between atoms: N_6  and  C_7
REMARK    3  A    between atoms: C_10  and  C_11
REMARK    4  A    between atoms: C_11  and  C_12
REMARK    5  A    between atoms: C_12  and  C_13
REMARK    6  A    between atoms: N_15  and  C_16
REMARK    7  A    between atoms: C_19  and  C_20
REMARK    8  A    between atoms: C_20  and  C_21
REMARK    9  A    between atoms: C_20  and  C_22
REMARK                            x       y       z     vdW  Elec       q    Type
REMARK                         _______ _______ _______ _____ _____    ______ ____
ROOT
ATOM      1  C   UNL     1       7.222   6.889  16.891  0.00  0.00    +0.000 C 
ENDROOT
BRANCH   1   2
ATOM      2  C   UNL     1       7.941   7.698  17.952  0.00  0.00    +0.000 C 
ATOM      3  O   UNL     1       8.484   7.160  18.912  0.00  0.00    +0.000 OA
ATOM      4  N   UNL     1       7.915   9.057  17.679  0.00  0.00    +0.000 N 
ATOM      5  H   UNL     1       7.292   9.370  16.945  0.00  0.00    +0.000 HD
BRANCH   4   6
ATOM      6  C   UNL     1       8.615  10.065  18.374  0.00  0.00    +0.000 A 
ATOM      7  C   UNL     1       9.142   9.884  19.652  0.00  0.00    +0.000 A 
ATOM      8  C   UNL     1       9.874  10.898  20.274  0.00  0.00    +0.000 A 
ATOM      9  C   UNL     1      10.097  12.121  19.632  0.00  0.00    +0.000 A 
ATOM     10  C   UNL     1       9.543  12.313  18.359  0.00  0.00    +0.000 A 
ATOM     11  C   UNL     1       8.819  11.290  17.731  0.00  0.00    +0.000 A 
BRANCH   9  12
ATOM     12  C   UNL     1      10.951  13.172  20.314  0.00  0.00    +0.000 C 
ATOM     13  C   UNL     1      12.158  13.545  19.450  0.00  0.00    +0.000 C 
ATOM     14  C   UNL     1      10.144  14.411  20.699  0.00  0.00    +0.000 C 
ENDBRANCH   9  12
ENDBRANCH   4   6
ENDBRANCH   1   2
BRANCH   1  15
ATOM     15  C   UNL     1       7.279   5.387  17.207  0.00  0.00    +0.000 C 
BRANCH  15  25
ATOM     16  C   UNL     1       5.782   4.424  14.683  0.00  0.00    +0.000 C 
ATOM     17  C   UNL     1       5.272   4.291  16.092  0.00  0.00    +0.000 A 
ATOM     18  N   UNL     1       4.053   3.680  16.224  0.00  0.00    +0.000 N 
ATOM     19  C   UNL     1       3.406   3.453  17.402  0.00  0.00    +0.000 A 
ATOM     20  O   UNL     1       2.306   2.906  17.384  0.00  0.00    +0.000 OA
ATOM     21  N   UNL     1       4.059   3.868  18.540  0.00  0.00    +0.000 N 
ATOM     22  C   UNL     1       3.440   3.655  19.831  0.00  0.00    +0.000 C 
ATOM     23  C   UNL     1       5.313   4.442  18.525  0.00  0.00    +0.000 A 
ATOM     24  O   UNL     1       5.921   4.739  19.553  0.00  0.00    +0.000 OA
ATOM     25  C   UNL     1       5.929   4.712  17.187  0.00  0.00    +0.000 A 
ATOM     26  H   UNL     1       3.550   3.353  15.405  0.00  0.00    +0.000 HD
ENDBRANCH  15  25
ENDBRANCH   1  15
TORSDOF 5
ENDMDL
MODEL 9
REMARK VINA RESULT:      -7.3      2.917      7.126
REMARK  Name = 
REMARK  9 active torsions:
REMARK  status: ('A' for Active; 'I' for Inactive)
REMARK    1  A    between atoms: C_1  and  C_2
REMARK    2  A    between atoms: N_6  and  C_7
REMARK    3  A    between atoms: C_10  and  C_11
REMARK    4  A    between atoms: C_11  and  C_12
REMARK    5  A    between atoms: C_12  and  C_13
REMARK    6  A    between atoms: N_15  and  C_16
REMARK    7  A    between atoms: C_19  and  C_20
REMARK    8  A    between atoms: C_20  and  C_21
REMARK    9  A    between atoms: C_20  and  C_22
REMARK                            x       y       z     vdW  Elec       q    Type
REMARK                         _______ _______ _______ _____ _____    ______ ____
ROOT
ATOM      1  C   UNL     1       3.408   3.301  18.440  0.00  0.00    +0.000 C 
ENDROOT
BRANCH   1   2
ATOM      2  C   UNL     1       2.584   4.552  18.205  0.00  0.00    +0.000 C 
ATOM      3  O   UNL     1       1.587   4.539  17.490  0.00  0.00    +0.000 OA
ATOM      4  N   UNL     1       3.084   5.644  18.897  0.00  0.00    +0.000 N 
ATOM      5  H   UNL     1       4.003   5.548  19.311  0.00  0.00    +0.000 HD
BRANCH   4   6
ATOM      6  C   UNL     1       2.474   6.910  19.019  0.00  0.00    +0.000 A 
ATOM      7  C   UNL     1       2.335   7.796  17.952  0.00  0.00    +0.000 A 
ATOM      8  C   UNL     1       1.673   9.015  18.115  0.00  0.00    +0.000 A 
ATOM      9  C   UNL     1       1.134   9.379  19.353  0.00  0.00    +0.000 A 
ATOM     10  C   UNL     1       1.298   8.501  20.434  0.00  0.00    +0.000 A 
ATOM     11  C   UNL     1       1.951   7.273  20.265  0.00  0.00    +0.000 A 
BRANCH   9  12
ATOM     12  C   UNL     1       0.366  10.681  19.474  0.00  0.00    +0.000 C 
ATOM     13  C   UNL     1       1.297  11.886  19.308  0.00  0.00    +0.000 C 
ATOM     14  C   UNL     1      -0.807  10.752  18.498  0.00  0.00    +0.000 C 
ENDBRANCH   9  12
ENDBRANCH   4   6
ENDBRANCH   1   2
BRANCH   1  15
ATOM     15  C   UNL     1       4.402   3.070  17.293  0.00  0.00    +0.000 C 
BRANCH  15  25
ATOM     16  C   UNL     1       4.816   4.622  14.656  0.00  0.00    +0.000 C 
ATOM     17  C   UNL     1       5.549   4.895  15.940  0.00  0.00    +0.000 A 
ATOM     18  N   UNL     1       6.452   5.925  15.899  0.00  0.00    +0.000 N 
ATOM     19  C   UNL     1       7.221   6.344  16.943  0.00  0.00    +0.000 A 
ATOM     20  O   UNL     1       8.005   7.274  16.773  0.00  0.00    +0.000 OA
ATOM     21  N   UNL     1       7.047   5.671  18.130  0.00  0.00    +0.000 N 
ATOM     22  C   UNL     1       7.822   6.062  19.289  0.00  0.00    +0.000 C 
ATOM     23  C   UNL     1       6.127   4.657  18.297  0.00  0.00    +0.000 A 
ATOM     24  O   UNL     1       5.925   4.113  19.383  0.00  0.00    +0.000 OA
ATOM     25  C   UNL     1       5.365   4.215  17.086  0.00  0.00    +0.000 A 
ATOM     26  H   UNL     1       6.596   6.449  15.042  0.00  0.00    +0.000 HD
ENDBRANCH  15  25
ENDBRANCH   1  15
TORSDOF 5
ENDMDL
