MODEL 1
REMARK VINA RESULT:      -7.7      0.000      0.000
REMARK  Name = 
REMARK  2 active torsions:
REMARK  status: ('A' for Active; 'I' for Inactive)
REMARK    1  A    between atoms: C_2  and  C_3
REMARK    2  A    between atoms: N_12  and  C_13
REMARK                            x       y       z     vdW  Elec       q    Type
REMARK                         _______ _______ _______ _____ _____    ______ ____
ROOT
ATOM      1  O   UNL     1       3.324   6.670  19.429  0.00  0.00    +0.000 OA
ATOM      2  C   UNL     1       3.269   5.576  18.869  0.00  0.00    +0.000 C 
ATOM      3  N   UNL     1       3.808   5.335  17.608  0.00  0.00    +0.000 N 
ATOM      4  C   UNL     1       4.430   6.441  16.853  0.00  0.00    +0.000 C 
ATOM      5  C   UNL     1       5.886   6.115  16.458  0.00  0.00    +0.000 C 
ATOM      6  N   UNL     1       5.988   4.789  15.817  0.00  0.00    +0.000 N 
ATOM      7  C   UNL     1       5.392   3.692  16.583  0.00  0.00    +0.000 C 
ATOM      8  C   UNL     1       3.942   4.029  16.950  0.00  0.00    +0.000 C 
ENDROOT
BRANCH   2   9
ATOM      9  C   UNL     1       2.644   4.447  19.615  0.00  0.00    +0.000 A 
ATOM     10  C   UNL     1       3.377   3.671  20.521  0.00  0.00    +0.000 A 
ATOM     11  C   UNL     1       2.717   2.791  21.377  0.00  0.00    +0.000 A 
ATOM     12  C   UNL     1       1.344   2.596  21.249  0.00  0.00    +0.000 A 
ATOM     13  C   UNL     1       0.632   3.267  20.252  0.00  0.00    +0.000 A 
ATOM     14  C   UNL     1       1.278   4.199  19.439  0.00  0.00    +0.000 A 
ENDBRANCH   2   9
BRANCH   6  15
ATOM     15  C   UNL     1       6.385   4.587  14.511  0.00  0.00    +0.000 A 
ATOM     16  C   UNL     1       7.453   5.319  13.962  0.00  0.00    +0.000 A 
ATOM     17  C   UNL     1       7.867   5.155  12.640  0.00  0.00    +0.000 A 
ATOM     18  C   UNL     1       7.219   4.234  11.823  0.00  0.00    +0.000 A 
ATOM     19  C   UNL     1       6.163   3.489  12.335  0.00  0.00    +0.000 A 
ATOM     20  C   UNL     1       5.754   3.669  13.663  0.00  0.00    +0.000 A 
ENDBRANCH   6  15
TORSDOF 2
ENDMDL
MODEL 2
REMARK VINA RESULT:      -7.6      0.535      1.094
REMARK  Name = 
REMARK  2 active torsions:
REMARK  status: ('A' for Active; 'I' for Inactive)
REMARK    1  A    between atoms: C_2  and  C_3
REMARK    2  A    between atoms: N_12  and  C_13
REMARK                            x       y       z     vdW  Elec       q    Type
REMARK                         _______ _______ _______ _____ _____    ______ ____
ROOT
ATOM      1  O   UNL     1       2.927   7.051  19.365  0.00  0.00    +0.000 OA
ATOM      2  C   UNL     1       2.888   5.928  18.866  0.00  0.00    +0.000 C 
ATOM      3  N   UNL     1       3.480   5.613  17.644  0.00  0.00    +0.000 N 
ATOM      4  C   UNL     1       4.143   6.671  16.857  0.00  0.00    +0.000 C 
ATOM      5  C   UNL     1       5.612   6.316  16.546  0.00  0.00    +0.000 C 
ATOM      6  N   UNL     1       5.732   4.956  15.985  0.00  0.00    +0.000 N 
ATOM      7  C   UNL     1       5.095   3.907  16.784  0.00  0.00    +0.000 C 
ATOM      8  C   UNL     1       3.633   4.271  17.068  0.00  0.00    +0.000 C 
ENDROOT
BRANCH   2   9
ATOM      9  C   UNL     1       2.223   4.846  19.645  0.00  0.00    +0.000 A 
ATOM     10  C   UNL     1       1.264   4.007  19.066  0.00  0.00    +0.000 A 
ATOM     11  C   UNL     1       0.843   2.861  19.738  0.00  0.00    +0.000 A 
ATOM     12  C   UNL     1       1.288   2.615  21.036  0.00  0.00    +0.000 A 
ATOM     13  C   UNL     1       2.137   3.524  21.669  0.00  0.00    +0.000 A 
ATOM     14  C   UNL     1       2.613   4.637  20.973  0.00  0.00    +0.000 A 
ENDBRANCH   2   9
BRANCH   6  15
ATOM     15  C   UNL     1       6.184   4.679  14.711  0.00  0.00    +0.000 A 
ATOM     16  C   UNL     1       7.341   5.300  14.207  0.00  0.00    +0.000 A 
ATOM     17  C   UNL     1       7.813   5.060  12.916  0.00  0.00    +0.000 A 
ATOM     18  C   UNL     1       7.136   4.170  12.088  0.00  0.00    +0.000 A 
ATOM     19  C   UNL     1       5.994   3.533  12.558  0.00  0.00    +0.000 A 
ATOM     20  C   UNL     1       5.526   3.789  13.853  0.00  0.00    +0.000 A 
ENDBRANCH   6  15
TORSDOF 2
ENDMDL
MODEL 3
REMARK VINA RESULT:      -7.6      0.341      1.124
REMARK  Name = 
REMARK  2 active torsions:
REMARK  status: ('A' for Active; 'I' for Inactive)
REMARK    1  A    between atoms: C_2  and  C_3
REMARK    2  A    between atoms: N_12  and  C_13
REMARK                            x       y       z     vdW  Elec       q    Type
REMARK                         _______ _______ _______ _____ _____    ______ ____
ROOT
ATOM      1  O   UNL     1       3.160   6.856  19.355  0.00  0.00    +0.000 OA
ATOM      2  C   UNL     1       3.132   5.748  18.822  0.00  0.00    +0.000 C 
ATOM      3  N   UNL     1       3.700   5.483  17.578  0.00  0.00    +0.000 N 
ATOM      4  C   UNL     1       4.322   6.578  16.808  0.00  0.00    +0.000 C 
ATOM      5  C   UNL     1       5.790   6.263  16.451  0.00  0.00    +0.000 C 
ATOM      6  N   UNL     1       5.923   4.923  15.846  0.00  0.00    +0.000 N 
ATOM      7  C   UNL     1       5.328   3.837  16.627  0.00  0.00    +0.000 C 
ATOM      8  C   UNL     1       3.866   4.162  16.957  0.00  0.00    +0.000 C 
ENDROOT
BRANCH   2   9
ATOM      9  C   UNL     1       2.508   4.629  19.583  0.00  0.00    +0.000 A 
ATOM     10  C   UNL     1       2.966   4.260  20.854  0.00  0.00    +0.000 A 
ATOM     11  C   UNL     1       2.217   3.384  21.638  0.00  0.00    +0.000 A 
ATOM     12  C   UNL     1       1.075   2.784  21.110  0.00  0.00    +0.000 A 
ATOM     13  C   UNL     1       0.693   3.044  19.793  0.00  0.00    +0.000 A 
ATOM     14  C   UNL     1       1.403   3.973  19.029  0.00  0.00    +0.000 A 
ENDBRANCH   2   9
BRANCH   6  15
ATOM     15  C   UNL     1       6.350   4.695  14.554  0.00  0.00    +0.000 A 
ATOM     16  C   UNL     1       5.704   3.748  13.739  0.00  0.00    +0.000 A 
ATOM     17  C   UNL     1       6.122   3.477  12.436  0.00  0.00    +0.000 A 
ATOM     18  C   UNL     1       7.208   4.164  11.903  0.00  0.00    +0.000 A 
ATOM     19  C   UNL     1       7.866   5.112  12.678  0.00  0.00    +0.000 A 
ATOM     20  C   UNL     1       7.439   5.369  13.987  0.00  0.00    +0.000 A 
ENDBRANCH   6  15
TORSDOF 2
ENDMDL
MODEL 4
REMARK VINA RESULT:      -7.6      1.430      7.294
REMARK  Name = 
REMARK  2 active torsions:
REMARK  status: ('A' for Active; 'I' for Inactive)
REMARK    1  A    between atoms: C_2  and  C_3
REMARK    2  A    between atoms: N_12  and  C_13
REMARK                            x       y       z     vdW  Elec       q    Type
REMARK                         _______ _______ _______ _____ _____    ______ ____
ROOT
ATOM      1  O   UNL     1       7.555   6.370  16.176  0.00  0.00    +0.000 OA
ATOM      2  C   UNL     1       6.867   5.376  15.953  0.00  0.00    +0.000 C 
ATOM      3  N   UNL     1       6.025   4.801  16.902  0.00  0.00    +0.000 N 
ATOM      4  C   UNL     1       5.979   5.351  18.271  0.00  0.00    +0.000 C 
ATOM      5  C   UNL     1       4.546   5.753  18.678  0.00  0.00    +0.000 C 
ATOM      6  N   UNL     1       3.584   4.664  18.413  0.00  0.00    +0.000 N 
ATOM      7  C   UNL     1       3.616   4.140  17.045  0.00  0.00    +0.000 C 
ATOM      8  C   UNL     1       5.045   3.733  16.667  0.00  0.00    +0.000 C 
ENDROOT
BRANCH   2   9
ATOM      9  C   UNL     1       6.899   4.806  14.577  0.00  0.00    +0.000 A 
ATOM     10  C   UNL     1       6.037   3.773  14.189  0.00  0.00    +0.000 A 
ATOM     11  C   UNL     1       5.920   3.431  12.843  0.00  0.00    +0.000 A 
ATOM     12  C   UNL     1       6.748   4.034  11.899  0.00  0.00    +0.000 A 
ATOM     13  C   UNL     1       7.707   4.965  12.302  0.00  0.00    +0.000 A 
ATOM     14  C   UNL     1       7.779   5.360  13.640  0.00  0.00    +0.000 A 
ENDBRANCH   2   9
BRANCH   6  15
ATOM     15  C   UNL     1       2.869   4.005  19.391  0.00  0.00    +0.000 A 
ATOM     16  C   UNL     1       1.467   4.105  19.448  0.00  0.00    +0.000 A 
ATOM     17  C   UNL     1       0.715   3.470  20.437  0.00  0.00    +0.000 A 
ATOM     18  C   UNL     1       1.354   2.698  21.402  0.00  0.00    +0.000 A 
ATOM     19  C   UNL     1       2.738   2.573  21.371  0.00  0.00    +0.000 A 
ATOM     20  C   UNL     1       3.481   3.222  20.377  0.00  0.00    +0.000 A 
ENDBRANCH   6  15
TORSDOF 2
ENDMDL
MODEL 5
REMARK VINA RESULT:      -7.5      1.431      7.251
REMARK  Name = 
REMARK  2 active torsions:
REMARK  status: ('A' for Active; 'I' for Inactive)
REMARK    1  A    between atoms: C_2  and  C_3
REMARK    2  A    between atoms: N_12  and  C_13
REMARK                            x       y       z     vdW  Elec       q    Type
REMARK                         _______ _______ _______ _____ _____    ______ ____
ROOT
ATOM      1  O   UNL     1       7.589   6.258  16.263  0.00  0.00    +0.000 OA
ATOM      2  C   UNL     1       6.856   5.304  16.009  0.00  0.00    +0.000 C 
ATOM      3  N   UNL     1       5.980   4.746  16.937  0.00  0.00    +0.000 N 
ATOM      4  C   UNL     1       5.948   5.264  18.319  0.00  0.00    +0.000 C 
ATOM      5  C   UNL     1       4.532   5.723  18.725  0.00  0.00    +0.000 C 
ATOM      6  N   UNL     1       3.522   4.689  18.425  0.00  0.00    +0.000 N 
ATOM      7  C   UNL     1       3.541   4.198  17.045  0.00  0.00    +0.000 C 
ATOM      8  C   UNL     1       4.952   3.732  16.668  0.00  0.00    +0.000 C 
ENDROOT
BRANCH   2   9
ATOM      9  C   UNL     1       6.874   4.766  14.619  0.00  0.00    +0.000 A 
ATOM     10  C   UNL     1       6.004   3.746  14.216  0.00  0.00    +0.000 A 
ATOM     11  C   UNL     1       5.873   3.437  12.863  0.00  0.00    +0.000 A 
ATOM     12  C   UNL     1       6.695   4.060  11.926  0.00  0.00    +0.000 A 
ATOM     13  C   UNL     1       7.661   4.977  12.342  0.00  0.00    +0.000 A 
ATOM     14  C   UNL     1       7.747   5.339  13.688  0.00  0.00    +0.000 A 
ENDBRANCH   2   9
BRANCH   6  15
ATOM     15  C   UNL     1       2.767   4.041  19.381  0.00  0.00    +0.000 A 
ATOM     16  C   UNL     1       3.378   3.451  20.502  0.00  0.00    +0.000 A 
ATOM     17  C   UNL     1       2.647   2.770  21.477  0.00  0.00    +0.000 A 
ATOM     18  C   UNL     1       1.264   2.670  21.358  0.00  0.00    +0.000 A 
ATOM     19  C   UNL     1       0.628   3.248  20.266  0.00  0.00    +0.000 A 
ATOM     20  C   UNL     1       1.375   3.922  19.291  0.00  0.00    +0.000 A 
ENDBRANCH   6  15
TORSDOF 2
ENDMDL
MODEL 6
REMARK VINA RESULT:      -7.3      1.512      7.212
REMARK  Name = 
REMARK  2 active torsions:
REMARK  status: ('A' for Active; 'I' for Inactive)
REMARK    1  A    between atoms: C_2  and  C_3
REMARK    2  A    between atoms: N_12  and  C_13
REMARK                            x       y       z     vdW  Elec       q    Type
REMARK                         _______ _______ _______ _____ _____    ______ ____
ROOT
ATOM      1  O   UNL     1       7.683   6.128  16.264  0.00  0.00    +0.000 OA
ATOM      2  C   UNL     1       6.845   5.284  15.949  0.00  0.00    +0.000 C 
ATOM      3  N   UNL     1       5.939   4.733  16.852  0.00  0.00    +0.000 N 
ATOM      4  C   UNL     1       6.000   5.114  18.277  0.00  0.00    +0.000 C 
ATOM      5  C   UNL     1       4.652   5.676  18.776  0.00  0.00    +0.000 C 
ATOM      6  N   UNL     1       3.530   4.787  18.418  0.00  0.00    +0.000 N 
ATOM      7  C   UNL     1       3.459   4.433  16.998  0.00  0.00    +0.000 C 
ATOM      8  C   UNL     1       4.802   3.862  16.527  0.00  0.00    +0.000 C 
ENDROOT
BRANCH   2   9
ATOM      9  C   UNL     1       6.768   4.886  14.515  0.00  0.00    +0.000 A 
ATOM     10  C   UNL     1       7.645   5.411  13.559  0.00  0.00    +0.000 A 
ATOM     11  C   UNL     1       7.711   4.844  12.287  0.00  0.00    +0.000 A 
ATOM     12  C   UNL     1       6.820   3.834  11.931  0.00  0.00    +0.000 A 
ATOM     13  C   UNL     1       5.850   3.404  12.839  0.00  0.00    +0.000 A 
ATOM     14  C   UNL     1       5.827   3.922  14.135  0.00  0.00    +0.000 A 
ENDBRANCH   2   9
BRANCH   6  15
ATOM     15  C   UNL     1       2.736   4.131  19.336  0.00  0.00    +0.000 A 
ATOM     16  C   UNL     1       2.960   4.278  20.717  0.00  0.00    +0.000 A 
ATOM     17  C   UNL     1       2.190   3.613  21.672  0.00  0.00    +0.000 A 
ATOM     18  C   UNL     1       1.154   2.778  21.263  0.00  0.00    +0.000 A 
ATOM     19  C   UNL     1       0.901   2.616  19.907  0.00  0.00    +0.000 A 
ATOM     20  C   UNL     1       1.686   3.284  18.959  0.00  0.00    +0.000 A 
ENDBRANCH   6  15
TORSDOF 2
ENDMDL
MODEL 7
REMARK VINA RESULT:      -7.3      1.487      7.266
REMARK  Name = 
REMARK  2 active torsions:
REMARK  status: ('A' for Active; 'I' for Inactive)
REMARK    1  A    between atoms: C_2  and  C_3
REMARK    2  A    between atoms: N_12  and  C_13
REMARK                            x       y       z     vdW  Elec       q    Type
REMARK                         _______ _______ _______ _____ _____    ______ ____
ROOT
ATOM      1  O   UNL     1       7.656   6.153  16.227  0.00  0.00    +0.000 OA
ATOM      2  C   UNL     1       6.828   5.294  15.928  0.00  0.00    +0.000 C 
ATOM      3  N   UNL     1       5.936   4.740  16.844  0.00  0.00    +0.000 N 
ATOM      4  C   UNL     1       6.002   5.139  18.263  0.00  0.00    +0.000 C 
ATOM      5  C   UNL     1       4.650   5.688  18.766  0.00  0.00    +0.000 C 
ATOM      6  N   UNL     1       3.538   4.778  18.425  0.00  0.00    +0.000 N 
ATOM      7  C   UNL     1       3.462   4.408  17.010  0.00  0.00    +0.000 C 
ATOM      8  C   UNL     1       4.809   3.850  16.537  0.00  0.00    +0.000 C 
ENDROOT
BRANCH   2   9
ATOM      9  C   UNL     1       6.746   4.878  14.499  0.00  0.00    +0.000 A 
ATOM     10  C   UNL     1       7.638   5.371  13.539  0.00  0.00    +0.000 A 
ATOM     11  C   UNL     1       7.695   4.784  12.275  0.00  0.00    +0.000 A 
ATOM     12  C   UNL     1       6.783   3.789  11.930  0.00  0.00    +0.000 A 
ATOM     13  C   UNL     1       5.801   3.394  12.840  0.00  0.00    +0.000 A 
ATOM     14  C   UNL     1       5.785   3.930  14.129  0.00  0.00    +0.000 A 
ENDBRANCH   2   9
BRANCH   6  15
ATOM     15  C   UNL     1       2.760   4.122  19.357  0.00  0.00    +0.000 A 
ATOM     16  C   UNL     1       1.555   3.502  18.980  0.00  0.00    +0.000 A 
ATOM     17  C   UNL     1       0.733   2.849  19.900  0.00  0.00    +0.000 A 
ATOM     18  C   UNL     1       1.108   2.789  21.239  0.00  0.00    +0.000 A 
ATOM     19  C   UNL     1       2.296   3.386  21.644  0.00  0.00    +0.000 A 
ATOM     20  C   UNL     1       3.107   4.044  20.711  0.00  0.00    +0.000 A 
ENDBRANCH   6  15
TORSDOF 2
ENDMDL
MODEL 8
REMARK VINA RESULT:      -7.3      1.363      7.259
REMARK  Name = 
REMARK  2 active torsions:
REMARK  status: ('A' for Active; 'I' for Inactive)
REMARK    1  A    between atoms: C_2  and  C_3
REMARK    2  A    between atoms: N_12  and  C_13
REMARK                            x       y       z     vdW  Elec       q    Type
REMARK                         _______ _______ _______ _____ _____    ______ ____
ROOT
ATOM      1  O   UNL     1       5.241   7.072  15.110  0.00  0.00    +0.000 OA
ATOM      2  C   UNL     1       5.335   5.866  15.333  0.00  0.00    +0.000 C 
ATOM      3  N   UNL     1       4.871   5.266  16.502  0.00  0.00    +0.000 N 
ATOM      4  C   UNL     1       4.285   6.100  17.570  0.00  0.00    +0.000 C 
ATOM      5  C   UNL     1       2.855   5.642  17.932  0.00  0.00    +0.000 C 
ATOM      6  N   UNL     1       2.800   4.187  18.177  0.00  0.00    +0.000 N 
ATOM      7  C   UNL     1       3.359   3.365  17.102  0.00  0.00    +0.000 C 
ATOM      8  C   UNL     1       4.783   3.825  16.769  0.00  0.00    +0.000 C 
ENDROOT
BRANCH   2   9
ATOM      9  C   UNL     1       5.925   5.008  14.267  0.00  0.00    +0.000 A 
ATOM     10  C   UNL     1       5.174   4.016  13.624  0.00  0.00    +0.000 A 
ATOM     11  C   UNL     1       5.669   3.402  12.475  0.00  0.00    +0.000 A 
ATOM     12  C   UNL     1       6.960   3.689  12.036  0.00  0.00    +0.000 A 
ATOM     13  C   UNL     1       7.764   4.575  12.757  0.00  0.00    +0.000 A 
ATOM     14  C   UNL     1       7.245   5.243  13.868  0.00  0.00    +0.000 A 
ENDBRANCH   2   9
BRANCH   6  15
ATOM     15  C   UNL     1       2.479   3.617  19.391  0.00  0.00    +0.000 A 
ATOM     16  C   UNL     1       3.455   2.951  20.154  0.00  0.00    +0.000 A 
ATOM     17  C   UNL     1       3.160   2.344  21.376  0.00  0.00    +0.000 A 
ATOM     18  C   UNL     1       1.864   2.399  21.878  0.00  0.00    +0.000 A 
ATOM     19  C   UNL     1       0.876   3.055  21.153  0.00  0.00    +0.000 A 
ATOM     20  C   UNL     1       1.185   3.653  19.925  0.00  0.00    +0.000 A 
ENDBRANCH   6  15
TORSDOF 2
ENDMDL
MODEL 9
REMARK VINA RESULT:      -7.2      0.325      1.528
REMARK  Name = 
REMARK  2 active torsions:
REMARK  status: ('A' for Active; 'I' for Inactive)
REMARK    1  A    between atoms: C_2  and  C_3
REMARK    2  A    between atoms: N_12  and  C_13
REMARK                            x       y       z     vdW  Elec       q    Type
REMARK                         _______ _______ _______ _____ _____    ______ ____
ROOT
ATOM      1  O   UNL     1       3.293   6.965  19.393  0.00  0.00    +0.000 OA
ATOM      2  C   UNL     1       3.268   5.837  18.902  0.00  0.00    +0.000 C 
ATOM      3  N   UNL     1       3.786   5.540  17.644  0.00  0.00    +0.000 N 
ATOM      4  C   UNL     1       4.345   6.620  16.807  0.00  0.00    +0.000 C 
ATOM      5  C   UNL     1       5.803   6.327  16.395  0.00  0.00    +0.000 C 
ATOM      6  N   UNL     1       5.943   4.969  15.832  0.00  0.00    +0.000 N 
ATOM      7  C   UNL     1       5.411   3.899  16.679  0.00  0.00    +0.000 C 
ATOM      8  C   UNL     1       3.958   4.201  17.064  0.00  0.00    +0.000 C 
ENDROOT
BRANCH   2   9
ATOM      9  C   UNL     1       2.708   4.733  19.731  0.00  0.00    +0.000 A 
ATOM     10  C   UNL     1       1.335   4.627  19.983  0.00  0.00    +0.000 A 
ATOM     11  C   UNL     1       0.817   3.463  20.547  0.00  0.00    +0.000 A 
ATOM     12  C   UNL     1       1.679   2.454  20.970  0.00  0.00    +0.000 A 
ATOM     13  C   UNL     1       3.061   2.616  20.848  0.00  0.00    +0.000 A 
ATOM     14  C   UNL     1       3.578   3.752  20.221  0.00  0.00    +0.000 A 
ENDBRANCH   2   9
BRANCH   6  15
ATOM     15  C   UNL     1       6.317   4.703  14.531  0.00  0.00    +0.000 A 
ATOM     16  C   UNL     1       5.639   3.732  13.772  0.00  0.00    +0.000 A 
ATOM     17  C   UNL     1       6.005   3.423  12.461  0.00  0.00    +0.000 A 
ATOM     18  C   UNL     1       7.067   4.095  11.864  0.00  0.00    +0.000 A 
ATOM     19  C   UNL     1       7.753   5.066  12.584  0.00  0.00    +0.000 A 
ATOM     20  C   UNL     1       7.380   5.361  13.901  0.00  0.00    +0.000 A 
ENDBRANCH   6  15
TORSDOF 2
ENDMDL
