MODEL 1
REMARK VINA RESULT:      -7.6      0.000      0.000
REMARK  Name = 
REMARK  9 active torsions:
REMARK  status: ('A' for Active; 'I' for Inactive)
REMARK    1  A    between atoms: N_1  and  C_2
REMARK    2  A    between atoms: C_8  and  N_9
REMARK    3  A    between atoms: C_10  and  C_12
REMARK    4  A    between atoms: C_12  and  C_13
REMARK    5  A    between atoms: C_13  and  C_14
REMARK    6  A    between atoms: C_14  and  C_15
REMARK    7  A    between atoms: C_15  and  C_16
REMARK    8  A    between atoms: C_16  and  N_17
REMARK    9  A    between atoms: C_18  and  C_20
REMARK                            x       y       z     vdW  Elec       q    Type
REMARK                         _______ _______ _______ _____ _____    ______ ____
ROOT
ATOM      1  C   UNL     1       2.236   3.287  17.078  0.00  0.00    +0.000 C 
ENDROOT
BRANCH   1   3
ATOM      2  N   UNL     1       3.966   4.921  17.684  0.00  0.00    +0.000 N 
ATOM      3  C   UNL     1       3.678   3.585  17.455  0.00  0.00    +0.000 C 
ATOM      4  O   UNL     1       4.482   2.655  17.503  0.00  0.00    +0.000 OA
ATOM      5  H   UNL     1       3.188   5.549  17.827  0.00  0.00    +0.000 HD
BRANCH   2  12
ATOM      6  C   UNL     1       5.905   6.239  16.905  0.00  0.00    +0.000 A 
ATOM      7  C   UNL     1       7.159   6.820  17.186  0.00  0.00    +0.000 A 
ATOM      8  C   UNL     1       7.823   6.564  18.386  0.00  0.00    +0.000 A 
ATOM      9  C   UNL     1       7.211   5.759  19.329  0.00  0.00    +0.000 A 
ATOM     10  F   UNL     1       7.839   5.508  20.487  0.00  0.00    +0.000 F 
ATOM     11  C   UNL     1       5.956   5.212  19.105  0.00  0.00    +0.000 A 
ATOM     12  C   UNL     1       5.264   5.461  17.907  0.00  0.00    +0.000 A 
BRANCH   6  13
ATOM     13  N   UNL     1       5.245   6.667  15.734  0.00  0.00    +0.000 N 
ATOM     14  H   UNL     1       5.615   7.542  15.367  0.00  0.00    +0.000 HD
ATOM     15  H   UNL     1       5.141   5.978  15.007  0.00  0.00    +0.000 HD
ENDBRANCH   6  13
ENDBRANCH   2  12
ENDBRANCH   1   3
BRANCH   1  16
ATOM     16  C   UNL     1       1.300   3.761  18.190  0.00  0.00    +0.000 C 
BRANCH  16  17
ATOM     17  C   UNL     1       1.395   2.905  19.455  0.00  0.00    +0.000 C 
BRANCH  17  18
ATOM     18  C   UNL     1       1.203   3.769  20.707  0.00  0.00    +0.000 C 
BRANCH  18  19
ATOM     19  C   UNL     1       2.333   4.784  20.880  0.00  0.00    +0.000 C 
BRANCH  19  20
ATOM     20  N   UNL     1       1.820   6.116  21.137  0.00  0.00    +0.000 N 
ATOM     21  C   UNL     1       1.912   7.112  20.190  0.00  0.00    +0.000 C 
ATOM     22  O   UNL     1       2.428   6.962  19.089  0.00  0.00    +0.000 OA
ATOM     23  H   UNL     1       1.217   6.243  21.938  0.00  0.00    +0.000 HD
BRANCH  21  24
ATOM     24  C   UNL     1       1.306   8.428  20.550  0.00  0.00    +0.000 A 
ATOM     25  C   UNL     1       0.964   8.751  21.872  0.00  0.00    +0.000 A 
ATOM     26  C   UNL     1       0.385   9.990  22.157  0.00  0.00    +0.000 A 
ATOM     27  C   UNL     1       0.163  10.901  21.130  0.00  0.00    +0.000 A 
ATOM     28  F   UNL     1      -0.398  12.083  21.408  0.00  0.00    +0.000 F 
ATOM     29  C   UNL     1       0.521  10.604  19.819  0.00  0.00    +0.000 A 
ATOM     30  C   UNL     1       1.100   9.368  19.529  0.00  0.00    +0.000 A 
ENDBRANCH  21  24
ENDBRANCH  19  20
ENDBRANCH  18  19
ENDBRANCH  17  18
ENDBRANCH  16  17
ENDBRANCH   1  16
TORSDOF 9
ENDMDL
MODEL 2
REMARK VINA RESULT:      -7.4      1.602      6.127
REMARK  Name = 
REMARK  9 active torsions:
REMARK  status: ('A' for Active; 'I' for Inactive)
REMARK    1  A    between atoms: N_1  and  C_2
REMARK    2  A    between atoms: C_8  and  N_9
REMARK    3  A    between atoms: C_10  and  C_12
REMARK    4  A    between atoms: C_12  and  C_13
REMARK    5  A    between atoms: C_13  and  C_14
REMARK    6  A    between atoms: C_14  and  C_15
REMARK    7  A    between atoms: C_15  and  C_16
REMARK    8  A    between atoms: C_16  and  N_17
REMARK    9  A    between atoms: C_18  and  C_20
REMARK                            x       y       z     vdW  Elec       q    Type
REMARK                         _______ _______ _______ _____ _____    ______ ____
ROOT
ATOM      1  C   UNL     1       2.496   3.801  21.370  0.00  0.00    +0.000 C 
ENDROOT
BRANCH   1   3
ATOM      2  N   UNL     1       2.528   6.106  20.524  0.00  0.00    +0.000 N 
ATOM      3  C   UNL     1       1.775   4.955  20.694  0.00  0.00    +0.000 C 
ATOM      4  O   UNL     1       0.595   4.812  20.376  0.00  0.00    +0.000 OA
ATOM      5  H   UNL     1       3.531   6.027  20.623  0.00  0.00    +0.000 HD
BRANCH   2  12
ATOM      6  C   UNL     1       2.322   7.791  18.730  0.00  0.00    +0.000 A 
ATOM      7  C   UNL     1       1.757   8.999  18.270  0.00  0.00    +0.000 A 
ATOM      8  C   UNL     1       1.007   9.816  19.115  0.00  0.00    +0.000 A 
ATOM      9  C   UNL     1       0.783   9.404  20.416  0.00  0.00    +0.000 A 
ATOM     10  F   UNL     1       0.062  10.182  21.236  0.00  0.00    +0.000 F 
ATOM     11  C   UNL     1       1.282   8.199  20.886  0.00  0.00    +0.000 A 
ATOM     12  C   UNL     1       2.035   7.355  20.052  0.00  0.00    +0.000 A 
BRANCH   6  13
ATOM     13  N   UNL     1       2.939   6.962  17.771  0.00  0.00    +0.000 N 
ATOM     14  H   UNL     1       2.455   6.075  17.641  0.00  0.00    +0.000 HD
ATOM     15  H   UNL     1       3.159   7.393  16.887  0.00  0.00    +0.000 HD
ENDBRANCH   6  13
ENDBRANCH   2  12
ENDBRANCH   1   3
BRANCH   1  16
ATOM     16  C   UNL     1       1.749   2.494  21.104  0.00  0.00    +0.000 C 
BRANCH  16  17
ATOM     17  C   UNL     1       1.675   2.141  19.617  0.00  0.00    +0.000 C 
BRANCH  17  18
ATOM     18  C   UNL     1       3.079   1.925  19.042  0.00  0.00    +0.000 C 
BRANCH  18  19
ATOM     19  C   UNL     1       3.361   2.851  17.859  0.00  0.00    +0.000 C 
BRANCH  19  20
ATOM     20  N   UNL     1       4.388   3.826  18.176  0.00  0.00    +0.000 N 
ATOM     21  C   UNL     1       5.276   4.264  17.219  0.00  0.00    +0.000 C 
ATOM     22  O   UNL     1       5.278   3.873  16.059  0.00  0.00    +0.000 OA
ATOM     23  H   UNL     1       4.311   4.324  19.052  0.00  0.00    +0.000 HD
BRANCH  21  24
ATOM     24  C   UNL     1       6.257   5.304  17.651  0.00  0.00    +0.000 A 
ATOM     25  C   UNL     1       7.137   5.094  18.723  0.00  0.00    +0.000 A 
ATOM     26  C   UNL     1       8.027   6.103  19.098  0.00  0.00    +0.000 A 
ATOM     27  C   UNL     1       8.042   7.306  18.399  0.00  0.00    +0.000 A 
ATOM     28  F   UNL     1       8.893   8.271  18.768  0.00  0.00    +0.000 F 
ATOM     29  C   UNL     1       7.194   7.517  17.319  0.00  0.00    +0.000 A 
ATOM     30  C   UNL     1       6.303   6.512  16.938  0.00  0.00    +0.000 A 
ENDBRANCH  21  24
ENDBRANCH  19  20
ENDBRANCH  18  19
ENDBRANCH  17  18
ENDBRANCH  16  17
ENDBRANCH   1  16
TORSDOF 9
ENDMDL
MODEL 3
REMARK VINA RESULT:      -7.3      4.446      6.872
REMARK  Name = 
REMARK  9 active torsions:
REMARK  status: ('A' for Active; 'I' for Inactive)
REMARK    1  A    between atoms: N_1  and  C_2
REMARK    2  A    between atoms: C_8  and  N_9
REMARK    3  A    between atoms: C_10  and  C_12
REMARK    4  A    between atoms: C_12  and  C_13
REMARK    5  A    between atoms: C_13  and  C_14
REMARK    6  A    between atoms: C_14  and  C_15
REMARK    7  A    between atoms: C_15  and  C_16
REMARK    8  A    between atoms: C_16  and  N_17
REMARK    9  A    between atoms: C_18  and  C_20
REMARK                            x       y       z     vdW  Elec       q    Type
REMARK                         _______ _______ _______ _____ _____    ______ ____
ROOT
ATOM      1  C   UNL     1       7.779   7.847  17.650  0.00  0.00    +0.000 C 
ENDROOT
BRANCH   1   3
ATOM      2  N   UNL     1       9.145   9.354  19.026  0.00  0.00    +0.000 N 
ATOM      3  C   UNL     1       8.217   9.260  18.001  0.00  0.00    +0.000 C 
ATOM      4  O   UNL     1       7.715  10.204  17.393  0.00  0.00    +0.000 OA
ATOM      5  H   UNL     1       9.637   8.512  19.290  0.00  0.00    +0.000 HD
BRANCH   2  12
ATOM      6  C   UNL     1      10.476  11.432  18.925  0.00  0.00    +0.000 A 
ATOM      7  C   UNL     1      10.844  12.658  19.518  0.00  0.00    +0.000 A 
ATOM      8  C   UNL     1      10.441  12.987  20.812  0.00  0.00    +0.000 A 
ATOM      9  C   UNL     1       9.629  12.106  21.502  0.00  0.00    +0.000 A 
ATOM     10  F   UNL     1       9.234  12.413  22.746  0.00  0.00    +0.000 F 
ATOM     11  C   UNL     1       9.208  10.915  20.930  0.00  0.00    +0.000 A 
ATOM     12  C   UNL     1       9.595  10.564  19.625  0.00  0.00    +0.000 A 
BRANCH   6  13
ATOM     13  N   UNL     1      10.807  11.249  17.566  0.00  0.00    +0.000 N 
ATOM     14  H   UNL     1      10.299  11.877  16.945  0.00  0.00    +0.000 HD
ATOM     15  H   UNL     1      11.790  11.231  17.348  0.00  0.00    +0.000 HD
ENDBRANCH   6  13
ENDBRANCH   2  12
ENDBRANCH   1   3
BRANCH   1  16
ATOM     16  C   UNL     1       8.096   6.902  18.808  0.00  0.00    +0.000 C 
BRANCH  16  17
ATOM     17  C   UNL     1       7.350   5.569  18.712  0.00  0.00    +0.000 C 
BRANCH  17  18
ATOM     18  C   UNL     1       7.491   4.970  17.308  0.00  0.00    +0.000 C 
BRANCH  18  19
ATOM     19  C   UNL     1       6.173   4.387  16.801  0.00  0.00    +0.000 C 
BRANCH  19  20
ATOM     20  N   UNL     1       5.312   3.980  17.895  0.00  0.00    +0.000 N 
ATOM     21  C   UNL     1       4.047   4.504  18.043  0.00  0.00    +0.000 C 
ATOM     22  O   UNL     1       3.562   5.339  17.289  0.00  0.00    +0.000 OA
ATOM     23  H   UNL     1       5.578   3.161  18.425  0.00  0.00    +0.000 HD
BRANCH  21  24
ATOM     24  C   UNL     1       3.236   3.972  19.178  0.00  0.00    +0.000 A 
ATOM     25  C   UNL     1       3.767   3.065  20.107  0.00  0.00    +0.000 A 
ATOM     26  C   UNL     1       2.964   2.585  21.145  0.00  0.00    +0.000 A 
ATOM     27  C   UNL     1       1.647   3.018  21.257  0.00  0.00    +0.000 A 
ATOM     28  F   UNL     1       0.881   2.549  22.249  0.00  0.00    +0.000 F 
ATOM     29  C   UNL     1       1.117   3.937  20.358  0.00  0.00    +0.000 A 
ATOM     30  C   UNL     1       1.914   4.421  19.320  0.00  0.00    +0.000 A 
ENDBRANCH  21  24
ENDBRANCH  19  20
ENDBRANCH  18  19
ENDBRANCH  17  18
ENDBRANCH  16  17
ENDBRANCH   1  16
TORSDOF 9
ENDMDL
MODEL 4
REMARK VINA RESULT:      -7.2      1.290      1.767
REMARK  Name = 
REMARK  9 active torsions:
REMARK  status: ('A' for Active; 'I' for Inactive)
REMARK    1  A    between atoms: N_1  and  C_2
REMARK    2  A    between atoms: C_8  and  N_9
REMARK    3  A    between atoms: C_10  and  C_12
REMARK    4  A    between atoms: C_12  and  C_13
REMARK    5  A    between atoms: C_13  and  C_14
REMARK    6  A    between atoms: C_14  and  C_15
REMARK    7  A    between atoms: C_15  and  C_16
REMARK    8  A    between atoms: C_16  and  N_17
REMARK    9  A    between atoms: C_18  and  C_20
REMARK                            x       y       z     vdW  Elec       q    Type
REMARK                         _______ _______ _______ _____ _____    ______ ____
ROOT
ATOM      1  C   UNL     1       2.834   2.569  17.076  0.00  0.00    +0.000 C 
ENDROOT
BRANCH   1   3
ATOM      2  N   UNL     1       5.024   3.650  17.336  0.00  0.00    +0.000 N 
ATOM      3  C   UNL     1       3.657   3.840  17.205  0.00  0.00    +0.000 C 
ATOM      4  O   UNL     1       3.075   4.924  17.217  0.00  0.00    +0.000 OA
ATOM      5  H   UNL     1       5.394   2.742  17.094  0.00  0.00    +0.000 HD
BRANCH   2  12
ATOM      6  C   UNL     1       6.335   5.615  16.615  0.00  0.00    +0.000 A 
ATOM      7  C   UNL     1       7.228   6.656  16.947  0.00  0.00    +0.000 A 
ATOM      8  C   UNL     1       7.838   6.716  18.199  0.00  0.00    +0.000 A 
ATOM      9  C   UNL     1       7.522   5.755  19.142  0.00  0.00    +0.000 A 
ATOM     10  F   UNL     1       8.103   5.804  20.350  0.00  0.00    +0.000 F 
ATOM     11  C   UNL     1       6.611   4.747  18.866  0.00  0.00    +0.000 A 
ATOM     12  C   UNL     1       5.977   4.669  17.614  0.00  0.00    +0.000 A 
BRANCH   6  13
ATOM     13  N   UNL     1       5.656   5.716  15.383  0.00  0.00    +0.000 N 
ATOM     14  H   UNL     1       6.060   5.126  14.658  0.00  0.00    +0.000 HD
ATOM     15  H   UNL     1       4.654   5.620  15.420  0.00  0.00    +0.000 HD
ENDBRANCH   6  13
ENDBRANCH   2  12
ENDBRANCH   1   3
BRANCH   1  16
ATOM     16  C   UNL     1       2.316   2.144  18.449  0.00  0.00    +0.000 C 
BRANCH  16  17
ATOM     17  C   UNL     1       1.122   2.977  18.921  0.00  0.00    +0.000 C 
BRANCH  17  18
ATOM     18  C   UNL     1       1.004   2.936  20.449  0.00  0.00    +0.000 C 
BRANCH  18  19
ATOM     19  C   UNL     1       1.890   3.984  21.120  0.00  0.00    +0.000 C 
BRANCH  19  20
ATOM     20  N   UNL     1       1.540   5.328  20.700  0.00  0.00    +0.000 N 
ATOM     21  C   UNL     1       2.481   6.177  20.160  0.00  0.00    +0.000 C 
ATOM     22  O   UNL     1       3.658   5.878  20.002  0.00  0.00    +0.000 OA
ATOM     23  H   UNL     1       0.558   5.557  20.624  0.00  0.00    +0.000 HD
BRANCH  21  24
ATOM     24  C   UNL     1       1.991   7.517  19.721  0.00  0.00    +0.000 A 
ATOM     25  C   UNL     1       2.195   7.990  18.416  0.00  0.00    +0.000 A 
ATOM     26  C   UNL     1       1.730   9.257  18.056  0.00  0.00    +0.000 A 
ATOM     27  C   UNL     1       1.059  10.038  18.992  0.00  0.00    +0.000 A 
ATOM     28  F   UNL     1       0.623  11.254  18.643  0.00  0.00    +0.000 F 
ATOM     29  C   UNL     1       0.828   9.571  20.281  0.00  0.00    +0.000 A 
ATOM     30  C   UNL     1       1.289   8.305  20.646  0.00  0.00    +0.000 A 
ENDBRANCH  21  24
ENDBRANCH  19  20
ENDBRANCH  18  19
ENDBRANCH  17  18
ENDBRANCH  16  17
ENDBRANCH   1  16
TORSDOF 9
ENDMDL
MODEL 5
REMARK VINA RESULT:      -7.1      5.358      8.008
REMARK  Name = 
REMARK  9 active torsions:
REMARK  status: ('A' for Active; 'I' for Inactive)
REMARK    1  A    between atoms: N_1  and  C_2
REMARK    2  A    between atoms: C_8  and  N_9
REMARK    3  A    between atoms: C_10  and  C_12
REMARK    4  A    between atoms: C_12  and  C_13
REMARK    5  A    between atoms: C_13  and  C_14
REMARK    6  A    between atoms: C_14  and  C_15
REMARK    7  A    between atoms: C_15  and  C_16
REMARK    8  A    between atoms: C_16  and  N_17
REMARK    9  A    between atoms: C_18  and  C_20
REMARK                            x       y       z     vdW  Elec       q    Type
REMARK                         _______ _______ _______ _____ _____    ______ ____
ROOT
ATOM      1  C   UNL     1       7.838   4.987  18.136  0.00  0.00    +0.000 C 
ENDROOT
BRANCH   1   3
ATOM      2  N   UNL     1       5.523   4.408  18.713  0.00  0.00    +0.000 N 
ATOM      3  C   UNL     1       6.473   4.475  17.706  0.00  0.00    +0.000 C 
ATOM      4  O   UNL     1       6.310   4.134  16.536  0.00  0.00    +0.000 OA
ATOM      5  H   UNL     1       5.710   4.915  19.567  0.00  0.00    +0.000 HD
BRANCH   2  12
ATOM      6  C   UNL     1       3.965   2.531  19.100  0.00  0.00    +0.000 A 
ATOM      7  C   UNL     1       2.652   2.019  19.027  0.00  0.00    +0.000 A 
ATOM      8  C   UNL     1       1.636   2.721  18.378  0.00  0.00    +0.000 A 
ATOM      9  C   UNL     1       1.922   3.960  17.836  0.00  0.00    +0.000 A 
ATOM     10  F   UNL     1       0.952   4.644  17.211  0.00  0.00    +0.000 F 
ATOM     11  C   UNL     1       3.189   4.515  17.934  0.00  0.00    +0.000 A 
ATOM     12  C   UNL     1       4.228   3.831  18.590  0.00  0.00    +0.000 A 
BRANCH   6  13
ATOM     13  N   UNL     1       4.888   1.825  19.898  0.00  0.00    +0.000 N 
ATOM     14  H   UNL     1       4.549   0.906  20.180  0.00  0.00    +0.000 HD
ATOM     15  H   UNL     1       5.831   1.777  19.548  0.00  0.00    +0.000 HD
ENDBRANCH   6  13
ENDBRANCH   2  12
ENDBRANCH   1   3
BRANCH   1  16
ATOM     16  C   UNL     1       7.724   6.435  18.612  0.00  0.00    +0.000 C 
BRANCH  16  17
ATOM     17  C   UNL     1       7.152   7.371  17.545  0.00  0.00    +0.000 C 
BRANCH  17  18
ATOM     18  C   UNL     1       8.037   8.613  17.384  0.00  0.00    +0.000 C 
BRANCH  18  19
ATOM     19  C   UNL     1       8.649   9.054  18.713  0.00  0.00    +0.000 C 
BRANCH  19  20
ATOM     20  N   UNL     1       9.140  10.418  18.649  0.00  0.00    +0.000 N 
ATOM     21  C   UNL     1       9.467  11.114  19.791  0.00  0.00    +0.000 C 
ATOM     22  O   UNL     1       9.366  10.656  20.922  0.00  0.00    +0.000 OA
ATOM     23  H   UNL     1       9.427  10.774  17.748  0.00  0.00    +0.000 HD
BRANCH  21  24
ATOM     24  C   UNL     1      10.007  12.492  19.596  0.00  0.00    +0.000 A 
ATOM     25  C   UNL     1       9.188  13.563  19.209  0.00  0.00    +0.000 A 
ATOM     26  C   UNL     1       9.742  14.832  19.026  0.00  0.00    +0.000 A 
ATOM     27  C   UNL     1      11.103  15.028  19.240  0.00  0.00    +0.000 A 
ATOM     28  F   UNL     1      11.630  16.244  19.055  0.00  0.00    +0.000 F 
ATOM     29  C   UNL     1      11.922  13.982  19.649  0.00  0.00    +0.000 A 
ATOM     30  C   UNL     1      11.373  12.712  19.834  0.00  0.00    +0.000 A 
ENDBRANCH  21  24
ENDBRANCH  19  20
ENDBRANCH  18  19
ENDBRANCH  17  18
ENDBRANCH  16  17
ENDBRANCH   1  16
TORSDOF 9
ENDMDL
MODEL 6
REMARK VINA RESULT:      -7.1      5.730      8.147
REMARK  Name = 
REMARK  9 active torsions:
REMARK  status: ('A' for Active; 'I' for Inactive)
REMARK    1  A    between atoms: N_1  and  C_2
REMARK    2  A    between atoms: C_8  and  N_9
REMARK    3  A    between atoms: C_10  and  C_12
REMARK    4  A    between atoms: C_12  and  C_13
REMARK    5  A    between atoms: C_13  and  C_14
REMARK    6  A    between atoms: C_14  and  C_15
REMARK    7  A    between atoms: C_15  and  C_16
REMARK    8  A    between atoms: C_16  and  N_17
REMARK    9  A    between atoms: C_18  and  C_20
REMARK                            x       y       z     vdW  Elec       q    Type
REMARK                         _______ _______ _______ _____ _____    ______ ____
ROOT
ATOM      1  C   UNL     1       6.722   5.567  16.948  0.00  0.00    +0.000 C 
ENDROOT
BRANCH   1   3
ATOM      2  N   UNL     1       4.487   4.809  17.626  0.00  0.00    +0.000 N 
ATOM      3  C   UNL     1       5.842   4.792  17.915  0.00  0.00    +0.000 C 
ATOM      4  O   UNL     1       6.367   4.242  18.882  0.00  0.00    +0.000 OA
ATOM      5  H   UNL     1       4.210   5.104  16.701  0.00  0.00    +0.000 HD
BRANCH   2  12
ATOM      6  C   UNL     1       3.204   2.885  18.494  0.00  0.00    +0.000 A 
ATOM      7  C   UNL     1       2.227   2.390  19.383  0.00  0.00    +0.000 A 
ATOM      8  C   UNL     1       1.442   3.251  20.149  0.00  0.00    +0.000 A 
ATOM      9  C   UNL     1       1.663   4.613  20.060  0.00  0.00    +0.000 A 
ATOM     10  F   UNL     1       0.915   5.449  20.793  0.00  0.00    +0.000 F 
ATOM     11  C   UNL     1       2.649   5.130  19.233  0.00  0.00    +0.000 A 
ATOM     12  C   UNL     1       3.458   4.283  18.457  0.00  0.00    +0.000 A 
BRANCH   6  13
ATOM     13  N   UNL     1       4.046   1.941  17.871  0.00  0.00    +0.000 N 
ATOM     14  H   UNL     1       3.583   1.050  17.695  0.00  0.00    +0.000 HD
ATOM     15  H   UNL     1       4.548   2.262  17.059  0.00  0.00    +0.000 HD
ENDBRANCH   6  13
ENDBRANCH   2  12
ENDBRANCH   1   3
BRANCH   1  16
ATOM     16  C   UNL     1       6.630   7.063  17.246  0.00  0.00    +0.000 C 
BRANCH  16  17
ATOM     17  C   UNL     1       7.867   7.606  17.964  0.00  0.00    +0.000 C 
BRANCH  17  18
ATOM     18  C   UNL     1       8.062   9.095  17.656  0.00  0.00    +0.000 C 
BRANCH  18  19
ATOM     19  C   UNL     1       8.928   9.788  18.707  0.00  0.00    +0.000 C 
BRANCH  19  20
ATOM     20  N   UNL     1       8.987  11.221  18.491  0.00  0.00    +0.000 N 
ATOM     21  C   UNL     1      10.148  11.834  18.074  0.00  0.00    +0.000 C 
ATOM     22  O   UNL     1      11.197  11.237  17.865  0.00  0.00    +0.000 OA
ATOM     23  H   UNL     1       8.114  11.729  18.456  0.00  0.00    +0.000 HD
BRANCH  21  24
ATOM     24  C   UNL     1      10.074  13.306  17.838  0.00  0.00    +0.000 A 
ATOM     25  C   UNL     1       8.962  14.065  18.232  0.00  0.00    +0.000 A 
ATOM     26  C   UNL     1       8.933  15.439  17.977  0.00  0.00    +0.000 A 
ATOM     27  C   UNL     1      10.013  16.046  17.344  0.00  0.00    +0.000 A 
ATOM     28  F   UNL     1       9.976  17.361  17.096  0.00  0.00    +0.000 F 
ATOM     29  C   UNL     1      11.132  15.310  16.972  0.00  0.00    +0.000 A 
ATOM     30  C   UNL     1      11.166  13.938  17.225  0.00  0.00    +0.000 A 
ENDBRANCH  21  24
ENDBRANCH  19  20
ENDBRANCH  18  19
ENDBRANCH  17  18
ENDBRANCH  16  17
ENDBRANCH   1  16
TORSDOF 9
ENDMDL
MODEL 7
REMARK VINA RESULT:      -7.1      2.202      2.668
REMARK  Name = 
REMARK  9 active torsions:
REMARK  status: ('A' for Active; 'I' for Inactive)
REMARK    1  A    between atoms: N_1  and  C_2
REMARK    2  A    between atoms: C_8  and  N_9
REMARK    3  A    between atoms: C_10  and  C_12
REMARK    4  A    between atoms: C_12  and  C_13
REMARK    5  A    between atoms: C_13  and  C_14
REMARK    6  A    between atoms: C_14  and  C_15
REMARK    7  A    between atoms: C_15  and  C_16
REMARK    8  A    between atoms: C_16  and  N_17
REMARK    9  A    between atoms: C_18  and  C_20
REMARK                            x       y       z     vdW  Elec       q    Type
REMARK                         _______ _______ _______ _____ _____    ______ ____
ROOT
ATOM      1  C   UNL     1       2.844   2.123  20.116  0.00  0.00    +0.000 C 
ENDROOT
BRANCH   1   3
ATOM      2  N   UNL     1       4.016   3.453  18.416  0.00  0.00    +0.000 N 
ATOM      3  C   UNL     1       4.149   2.586  19.489  0.00  0.00    +0.000 C 
ATOM      4  O   UNL     1       5.208   2.152  19.939  0.00  0.00    +0.000 OA
ATOM      5  H   UNL     1       3.119   3.900  18.285  0.00  0.00    +0.000 HD
BRANCH   2  12
ATOM      6  C   UNL     1       6.135   4.687  18.121  0.00  0.00    +0.000 A 
ATOM      7  C   UNL     1       7.208   5.057  17.283  0.00  0.00    +0.000 A 
ATOM      8  C   UNL     1       7.201   4.755  15.921  0.00  0.00    +0.000 A 
ATOM      9  C   UNL     1       6.137   4.042  15.401  0.00  0.00    +0.000 A 
ATOM     10  F   UNL     1       6.121   3.745  14.093  0.00  0.00    +0.000 F 
ATOM     11  C   UNL     1       5.090   3.620  16.206  0.00  0.00    +0.000 A 
ATOM     12  C   UNL     1       5.077   3.905  17.582  0.00  0.00    +0.000 A 
BRANCH   6  13
ATOM     13  N   UNL     1       6.294   4.904  19.505  0.00  0.00    +0.000 N 
ATOM     14  H   UNL     1       6.385   4.039  20.035  0.00  0.00    +0.000 HD
ATOM     15  H   UNL     1       6.998   5.574  19.770  0.00  0.00    +0.000 HD
ENDBRANCH   6  13
ENDBRANCH   2  12
ENDBRANCH   1   3
BRANCH   1  16
ATOM     16  C   UNL     1       2.326   3.188  21.082  0.00  0.00    +0.000 C 
BRANCH  16  17
ATOM     17  C   UNL     1       1.011   3.823  20.623  0.00  0.00    +0.000 C 
BRANCH  17  18
ATOM     18  C   UNL     1       1.281   5.025  19.710  0.00  0.00    +0.000 C 
BRANCH  18  19
ATOM     19  C   UNL     1       2.229   6.033  20.359  0.00  0.00    +0.000 C 
BRANCH  19  20
ATOM     20  N   UNL     1       1.502   7.097  21.026  0.00  0.00    +0.000 N 
ATOM     21  C   UNL     1       1.324   8.325  20.428  0.00  0.00    +0.000 C 
ATOM     22  O   UNL     1       1.758   8.614  19.320  0.00  0.00    +0.000 OA
ATOM     23  H   UNL     1       0.960   6.857  21.844  0.00  0.00    +0.000 HD
BRANCH  21  24
ATOM     24  C   UNL     1       0.518   9.324  21.192  0.00  0.00    +0.000 A 
ATOM     25  C   UNL     1       0.227   9.157  22.554  0.00  0.00    +0.000 A 
ATOM     26  C   UNL     1      -0.543  10.113  23.221  0.00  0.00    +0.000 A 
ATOM     27  C   UNL     1      -1.006  11.229  22.533  0.00  0.00    +0.000 A 
ATOM     28  F   UNL     1      -1.750  12.137  23.177  0.00  0.00    +0.000 F 
ATOM     29  C   UNL     1      -0.704  11.420  21.190  0.00  0.00    +0.000 A 
ATOM     30  C   UNL     1       0.066  10.469  20.518  0.00  0.00    +0.000 A 
ENDBRANCH  21  24
ENDBRANCH  19  20
ENDBRANCH  18  19
ENDBRANCH  17  18
ENDBRANCH  16  17
ENDBRANCH   1  16
TORSDOF 9
ENDMDL
MODEL 8
REMARK VINA RESULT:      -7.0      0.957      1.039
REMARK  Name = 
REMARK  9 active torsions:
REMARK  status: ('A' for Active; 'I' for Inactive)
REMARK    1  A    between atoms: N_1  and  C_2
REMARK    2  A    between atoms: C_8  and  N_9
REMARK    3  A    between atoms: C_10  and  C_12
REMARK    4  A    between atoms: C_12  and  C_13
REMARK    5  A    between atoms: C_13  and  C_14
REMARK    6  A    between atoms: C_14  and  C_15
REMARK    7  A    between atoms: C_15  and  C_16
REMARK    8  A    between atoms: C_16  and  N_17
REMARK    9  A    between atoms: C_18  and  C_20
REMARK                            x       y       z     vdW  Elec       q    Type
REMARK                         _______ _______ _______ _____ _____    ______ ____
ROOT
ATOM      1  C   UNL     1       3.299   2.150  17.930  0.00  0.00    +0.000 C 
ENDROOT
BRANCH   1   3
ATOM      2  N   UNL     1       4.716   4.128  17.600  0.00  0.00    +0.000 N 
ATOM      3  C   UNL     1       4.349   3.110  18.466  0.00  0.00    +0.000 C 
ATOM      4  O   UNL     1       4.815   2.913  19.587  0.00  0.00    +0.000 OA
ATOM      5  H   UNL     1       4.114   4.310  16.810  0.00  0.00    +0.000 HD
BRANCH   2  12
ATOM      6  C   UNL     1       5.830   6.270  17.080  0.00  0.00    +0.000 A 
ATOM      7  C   UNL     1       6.850   7.201  17.372  0.00  0.00    +0.000 A 
ATOM      8  C   UNL     1       7.855   6.909  18.294  0.00  0.00    +0.000 A 
ATOM      9  C   UNL     1       7.817   5.699  18.962  0.00  0.00    +0.000 A 
ATOM     10  F   UNL     1       8.777   5.410  19.852  0.00  0.00    +0.000 F 
ATOM     11  C   UNL     1       6.801   4.783  18.735  0.00  0.00    +0.000 A 
ATOM     12  C   UNL     1       5.774   5.056  17.816  0.00  0.00    +0.000 A 
BRANCH   6  13
ATOM     13  N   UNL     1       4.780   6.706  16.247  0.00  0.00    +0.000 N 
ATOM     14  H   UNL     1       4.053   7.210  16.753  0.00  0.00    +0.000 HD
ATOM     15  H   UNL     1       5.052   7.197  15.410  0.00  0.00    +0.000 HD
ENDBRANCH   6  13
ENDBRANCH   2  12
ENDBRANCH   1   3
BRANCH   1  16
ATOM     16  C   UNL     1       2.001   2.305  18.722  0.00  0.00    +0.000 C 
BRANCH  16  17
ATOM     17  C   UNL     1       1.452   3.733  18.693  0.00  0.00    +0.000 C 
BRANCH  17  18
ATOM     18  C   UNL     1       1.233   4.258  20.117  0.00  0.00    +0.000 C 
BRANCH  18  19
ATOM     19  C   UNL     1       2.269   5.313  20.502  0.00  0.00    +0.000 C 
BRANCH  19  20
ATOM     20  N   UNL     1       1.642   6.511  21.029  0.00  0.00    +0.000 N 
ATOM     21  C   UNL     1       1.631   7.687  20.313  0.00  0.00    +0.000 C 
ATOM     22  O   UNL     1       2.143   7.817  19.207  0.00  0.00    +0.000 OA
ATOM     23  H   UNL     1       1.041   6.412  21.836  0.00  0.00    +0.000 HD
BRANCH  21  24
ATOM     24  C   UNL     1       0.914   8.838  20.937  0.00  0.00    +0.000 A 
ATOM     25  C   UNL     1       0.551   8.839  22.292  0.00  0.00    +0.000 A 
ATOM     26  C   UNL     1      -0.132   9.934  22.827  0.00  0.00    +0.000 A 
ATOM     27  C   UNL     1      -0.438  11.021  22.014  0.00  0.00    +0.000 A 
ATOM     28  F   UNL     1      -1.099  12.064  22.531  0.00  0.00    +0.000 F 
ATOM     29  C   UNL     1      -0.062  11.044  20.676  0.00  0.00    +0.000 A 
ATOM     30  C   UNL     1       0.622   9.953  20.137  0.00  0.00    +0.000 A 
ENDBRANCH  21  24
ENDBRANCH  19  20
ENDBRANCH  18  19
ENDBRANCH  17  18
ENDBRANCH  16  17
ENDBRANCH   1  16
TORSDOF 9
ENDMDL
MODEL 9
REMARK VINA RESULT:      -7.0      5.759      8.100
REMARK  Name = 
REMARK  9 active torsions:
REMARK  status: ('A' for Active; 'I' for Inactive)
REMARK    1  A    between atoms: N_1  and  C_2
REMARK    2  A    between atoms: C_8  and  N_9
REMARK    3  A    between atoms: C_10  and  C_12
REMARK    4  A    between atoms: C_12  and  C_13
REMARK    5  A    between atoms: C_13  and  C_14
REMARK    6  A    between atoms: C_14  and  C_15
REMARK    7  A    between atoms: C_15  and  C_16
REMARK    8  A    between atoms: C_16  and  N_17
REMARK    9  A    between atoms: C_18  and  C_20
REMARK                            x       y       z     vdW  Elec       q    Type
REMARK                         _______ _______ _______ _____ _____    ______ ____
ROOT
ATOM      1  C   UNL     1       8.983   9.523  19.161  0.00  0.00    +0.000 C 
ENDROOT
BRANCH   1   3
ATOM      2  N   UNL     1       9.373  11.696  18.087  0.00  0.00    +0.000 N 
ATOM      3  C   UNL     1       9.555  10.930  19.227  0.00  0.00    +0.000 C 
ATOM      4  O   UNL     1      10.152  11.279  20.244  0.00  0.00    +0.000 OA
ATOM      5  H   UNL     1       8.687  11.380  17.416  0.00  0.00    +0.000 HD
BRANCH   2  12
ATOM      6  C   UNL     1      11.309  13.115  17.505  0.00  0.00    +0.000 A 
ATOM      7  C   UNL     1      11.819  14.397  17.211  0.00  0.00    +0.000 A 
ATOM      8  C   UNL     1      11.033  15.540  17.356  0.00  0.00    +0.000 A 
ATOM      9  C   UNL     1       9.717  15.399  17.754  0.00  0.00    +0.000 A 
ATOM     10  F   UNL     1       8.952  16.491  17.895  0.00  0.00    +0.000 F 
ATOM     11  C   UNL     1       9.169  14.149  18.002  0.00  0.00    +0.000 A 
ATOM     12  C   UNL     1       9.938  12.982  17.857  0.00  0.00    +0.000 A 
BRANCH   6  13
ATOM     13  N   UNL     1      12.126  12.009  17.192  0.00  0.00    +0.000 N 
ATOM     14  H   UNL     1      11.600  11.217  16.828  0.00  0.00    +0.000 HD
ATOM     15  H   UNL     1      12.937  12.204  16.626  0.00  0.00    +0.000 HD
ENDBRANCH   6  13
ENDBRANCH   2  12
ENDBRANCH   1   3
BRANCH   1  16
ATOM     16  C   UNL     1       8.052   9.397  17.956  0.00  0.00    +0.000 C 
BRANCH  16  17
ATOM     17  C   UNL     1       8.069   8.000  17.331  0.00  0.00    +0.000 C 
BRANCH  17  18
ATOM     18  C   UNL     1       7.516   6.961  18.313  0.00  0.00    +0.000 C 
BRANCH  18  19
ATOM     19  C   UNL     1       6.641   5.922  17.613  0.00  0.00    +0.000 C 
BRANCH  19  20
ATOM     20  N   UNL     1       5.692   5.318  18.529  0.00  0.00    +0.000 N 
ATOM     21  C   UNL     1       4.334   5.445  18.338  0.00  0.00    +0.000 C 
ATOM     22  O   UNL     1       3.831   6.067  17.410  0.00  0.00    +0.000 OA
ATOM     23  H   UNL     1       6.041   4.638  19.190  0.00  0.00    +0.000 HD
BRANCH  21  24
ATOM     24  C   UNL     1       3.456   4.739  19.318  0.00  0.00    +0.000 A 
ATOM     25  C   UNL     1       2.260   5.304  19.784  0.00  0.00    +0.000 A 
ATOM     26  C   UNL     1       1.479   4.610  20.712  0.00  0.00    +0.000 A 
ATOM     27  C   UNL     1       1.889   3.358  21.160  0.00  0.00    +0.000 A 
ATOM     28  F   UNL     1       1.140   2.702  22.055  0.00  0.00    +0.000 F 
ATOM     29  C   UNL     1       3.059   2.776  20.687  0.00  0.00    +0.000 A 
ATOM     30  C   UNL     1       3.842   3.463  19.759  0.00  0.00    +0.000 A 
ENDBRANCH  21  24
ENDBRANCH  19  20
ENDBRANCH  18  19
ENDBRANCH  17  18
ENDBRANCH  16  17
ENDBRANCH   1  16
TORSDOF 9
ENDMDL
