MODEL 1
REMARK VINA RESULT:      -6.4      0.000      0.000
REMARK  Name = 
REMARK  8 active torsions:
REMARK  status: ('A' for Active; 'I' for Inactive)
REMARK    1  A    between atoms: C_1  and  C_2
REMARK    2  A    between atoms: C_4  and  C_5
REMARK    3  A    between atoms: N_6  and  C_7
REMARK    4  A    between atoms: C_9  and  S_10
REMARK    5  A    between atoms: S_10  and  N_11
REMARK    6  A    between atoms: C_15  and  N_16
REMARK    7  A    between atoms: C_19  and  O_20
REMARK    8  A    between atoms: C_21  and  C_22
REMARK                            x       y       z     vdW  Elec       q    Type
REMARK                         _______ _______ _______ _____ _____    ______ ____
ROOT
ATOM      1  C   UNL     1      -1.481  11.399  19.072  0.00  0.00    +0.000 A 
ATOM      2  C   UNL     1      -1.137  10.291  19.854  0.00  0.00    +0.000 A 
ATOM      3  C   UNL     1       0.172  10.133  20.325  0.00  0.00    +0.000 A 
ATOM      4  C   UNL     1       1.202  10.947  19.865  0.00  0.00    +0.000 A 
ATOM      5  C   UNL     1       0.886  11.990  18.985  0.00  0.00    +0.000 A 
ATOM      6  C   UNL     1      -0.460  12.287  18.668  0.00  0.00    +0.000 A 
ENDROOT
BRANCH   1  12
ATOM      7  C   UNL     1      -7.034  12.245  17.527  0.00  0.00    +0.000 C 
ATOM      8  C   UNL     1      -5.612  12.019  17.941  0.00  0.00    +0.000 A 
ATOM      9  C   UNL     1      -5.130  12.440  19.164  0.00  0.00    +0.000 A 
ATOM     10  C   UNL     1      -3.778  12.268  19.531  0.00  0.00    +0.000 A 
ATOM     11  C   UNL     1      -3.406  12.890  20.864  0.00  0.00    +0.000 C 
ATOM     12  N   UNL     1      -2.900  11.595  18.689  0.00  0.00    +0.000 N 
ATOM     13  C   UNL     1      -3.393  11.107  17.490  0.00  0.00    +0.000 A 
ATOM     14  C   UNL     1      -2.643  10.216  16.521  0.00  0.00    +0.000 C 
ATOM     15  C   UNL     1      -4.725  11.368  17.107  0.00  0.00    +0.000 A 
ENDBRANCH   1  12
BRANCH   3  16
ATOM     16  S   UNL     1       0.496   8.956  21.620  0.00  0.00    +0.000 S 
ATOM     17  O   UNL     1       1.133   9.668  22.695  0.00  0.00    +0.000 OA
ATOM     18  O   UNL     1      -0.712   8.174  21.791  0.00  0.00    +0.000 OA
BRANCH  16  19
ATOM     19  N   UNL     1       1.620   7.957  20.912  0.00  0.00    +0.000 NA
ATOM     20  H   UNL     1       1.150   7.172  20.455  0.00  0.00    +0.000 HD
ATOM     21  H   UNL     1       2.202   8.484  20.255  0.00  0.00    +0.000 HD
ENDBRANCH  16  19
ENDBRANCH   3  16
BRANCH   5  22
ATOM     22  N   UNL     1       1.987  12.729  18.352  0.00  0.00    +0.000 N 
ATOM     23  O   UNL     1       2.864  12.083  17.771  0.00  0.00    +0.000 OA
ATOM     24  O   UNL     1       1.928  13.967  18.412  0.00  0.00    +0.000 OA
ENDBRANCH   5  22
BRANCH   6  25
ATOM     25  O   UNL     1      -0.815  13.449  18.028  0.00  0.00    +0.000 OA
ATOM     26  H   UNL     1      -0.241  13.610  17.242  0.00  0.00    +0.000 HD
ENDBRANCH   6  25
TORSDOF 5
ENDMDL
MODEL 2
REMARK VINA RESULT:      -6.4      0.135      1.929
REMARK  Name = 
REMARK  8 active torsions:
REMARK  status: ('A' for Active; 'I' for Inactive)
REMARK    1  A    between atoms: C_1  and  C_2
REMARK    2  A    between atoms: C_4  and  C_5
REMARK    3  A    between atoms: N_6  and  C_7
REMARK    4  A    between atoms: C_9  and  S_10
REMARK    5  A    between atoms: S_10  and  N_11
REMARK    6  A    between atoms: C_15  and  N_16
REMARK    7  A    between atoms: C_19  and  O_20
REMARK    8  A    between atoms: C_21  and  C_22
REMARK                            x       y       z     vdW  Elec       q    Type
REMARK                         _______ _______ _______ _____ _____    ______ ____
ROOT
ATOM      1  C   UNL     1      -1.461  11.484  19.135  0.00  0.00    +0.000 A 
ATOM      2  C   UNL     1      -1.128  10.358  19.895  0.00  0.00    +0.000 A 
ATOM      3  C   UNL     1       0.178  10.183  20.368  0.00  0.00    +0.000 A 
ATOM      4  C   UNL     1       1.215  11.001  19.930  0.00  0.00    +0.000 A 
ATOM      5  C   UNL     1       0.909  12.063  19.071  0.00  0.00    +0.000 A 
ATOM      6  C   UNL     1      -0.434  12.374  18.754  0.00  0.00    +0.000 A 
ENDROOT
BRANCH   1  12
ATOM      7  C   UNL     1      -7.048  12.243  17.666  0.00  0.00    +0.000 C 
ATOM      8  C   UNL     1      -5.605  12.057  18.027  0.00  0.00    +0.000 A 
ATOM      9  C   UNL     1      -4.703  11.480  17.158  0.00  0.00    +0.000 A 
ATOM     10  C   UNL     1      -3.355  11.262  17.520  0.00  0.00    +0.000 A 
ATOM     11  C   UNL     1      -2.539  10.519  16.480  0.00  0.00    +0.000 C 
ATOM     12  N   UNL     1      -2.878  11.697  18.751  0.00  0.00    +0.000 N 
ATOM     13  C   UNL     1      -3.762  12.341  19.602  0.00  0.00    +0.000 A 
ATOM     14  C   UNL     1      -3.399  13.025  20.904  0.00  0.00    +0.000 C 
ATOM     15  C   UNL     1      -5.123  12.469  19.254  0.00  0.00    +0.000 A 
ENDBRANCH   1  12
BRANCH   3  16
ATOM     16  S   UNL     1       0.490   8.977  21.640  0.00  0.00    +0.000 S 
ATOM     17  O   UNL     1       1.081   9.672  22.752  0.00  0.00    +0.000 OA
ATOM     18  O   UNL     1      -0.706   8.167  21.755  0.00  0.00    +0.000 OA
BRANCH  16  19
ATOM     19  N   UNL     1       1.654   8.021  20.938  0.00  0.00    +0.000 NA
ATOM     20  H   UNL     1       1.767   7.158  21.476  0.00  0.00    +0.000 HD
ATOM     21  H   UNL     1       1.418   7.830  19.961  0.00  0.00    +0.000 HD
ENDBRANCH  16  19
ENDBRANCH   3  16
BRANCH   5  22
ATOM     22  N   UNL     1       2.017  12.808  18.459  0.00  0.00    +0.000 N 
ATOM     23  O   UNL     1       2.055  14.032  18.618  0.00  0.00    +0.000 OA
ATOM     24  O   UNL     1       2.868  12.137  17.856  0.00  0.00    +0.000 OA
ENDBRANCH   5  22
BRANCH   6  25
ATOM     25  O   UNL     1      -0.780  13.551  18.137  0.00  0.00    +0.000 OA
ATOM     26  H   UNL     1      -0.088  13.829  17.491  0.00  0.00    +0.000 HD
ENDBRANCH   6  25
TORSDOF 5
ENDMDL
MODEL 3
REMARK VINA RESULT:      -6.4      6.204      8.526
REMARK  Name = 
REMARK  8 active torsions:
REMARK  status: ('A' for Active; 'I' for Inactive)
REMARK    1  A    between atoms: C_1  and  C_2
REMARK    2  A    between atoms: C_4  and  C_5
REMARK    3  A    between atoms: N_6  and  C_7
REMARK    4  A    between atoms: C_9  and  S_10
REMARK    5  A    between atoms: S_10  and  N_11
REMARK    6  A    between atoms: C_15  and  N_16
REMARK    7  A    between atoms: C_19  and  O_20
REMARK    8  A    between atoms: C_21  and  C_22
REMARK                            x       y       z     vdW  Elec       q    Type
REMARK                         _______ _______ _______ _____ _____    ______ ____
ROOT
ATOM      1  C   UNL     1       3.394   5.777  18.850  0.00  0.00    +0.000 A 
ATOM      2  C   UNL     1       4.782   5.944  18.917  0.00  0.00    +0.000 A 
ATOM      3  C   UNL     1       5.639   4.987  18.361  0.00  0.00    +0.000 A 
ATOM      4  C   UNL     1       5.154   3.761  17.918  0.00  0.00    +0.000 A 
ATOM      5  C   UNL     1       3.772   3.537  17.957  0.00  0.00    +0.000 A 
ATOM      6  C   UNL     1       2.881   4.573  18.321  0.00  0.00    +0.000 A 
ENDROOT
BRANCH   1  12
ATOM      7  C   UNL     1       0.012  10.089  20.829  0.00  0.00    +0.000 C 
ATOM      8  C   UNL     1       0.867   8.967  20.321  0.00  0.00    +0.000 A 
ATOM      9  C   UNL     1       0.980   7.770  20.998  0.00  0.00    +0.000 A 
ATOM     10  C   UNL     1       1.824   6.733  20.542  0.00  0.00    +0.000 A 
ATOM     11  C   UNL     1       1.905   5.536  21.470  0.00  0.00    +0.000 C 
ATOM     12  N   UNL     1       2.515   6.865  19.344  0.00  0.00    +0.000 N 
ATOM     13  C   UNL     1       2.352   8.037  18.622  0.00  0.00    +0.000 A 
ATOM     14  C   UNL     1       2.887   8.302  17.229  0.00  0.00    +0.000 C 
ATOM     15  C   UNL     1       1.573   9.092  19.141  0.00  0.00    +0.000 A 
ENDBRANCH   1  12
BRANCH   3  16
ATOM     16  S   UNL     1       7.353   5.396  18.107  0.00  0.00    +0.000 S 
ATOM     17  O   UNL     1       7.393   6.640  17.384  0.00  0.00    +0.000 OA
ATOM     18  O   UNL     1       8.028   5.191  19.372  0.00  0.00    +0.000 OA
BRANCH  16  19
ATOM     19  N   UNL     1       7.855   4.182  17.089  0.00  0.00    +0.000 NA
ATOM     20  H   UNL     1       7.235   3.373  17.179  0.00  0.00    +0.000 HD
ATOM     21  H   UNL     1       7.899   4.520  16.124  0.00  0.00    +0.000 HD
ENDBRANCH  16  19
ENDBRANCH   3  16
BRANCH   5  22
ATOM     22  N   UNL     1       3.275   2.185  17.670  0.00  0.00    +0.000 N 
ATOM     23  O   UNL     1       3.850   1.228  18.198  0.00  0.00    +0.000 OA
ATOM     24  O   UNL     1       2.272   2.107  16.944  0.00  0.00    +0.000 OA
ENDBRANCH   5  22
BRANCH   6  25
ATOM     25  O   UNL     1       1.527   4.469  18.119  0.00  0.00    +0.000 OA
ATOM     26  H   UNL     1       1.165   3.661  18.554  0.00  0.00    +0.000 HD
ENDBRANCH   6  25
TORSDOF 5
ENDMDL
MODEL 4
REMARK VINA RESULT:      -6.4      0.748      1.120
REMARK  Name = 
REMARK  8 active torsions:
REMARK  status: ('A' for Active; 'I' for Inactive)
REMARK    1  A    between atoms: C_1  and  C_2
REMARK    2  A    between atoms: C_4  and  C_5
REMARK    3  A    between atoms: N_6  and  C_7
REMARK    4  A    between atoms: C_9  and  S_10
REMARK    5  A    between atoms: S_10  and  N_11
REMARK    6  A    between atoms: C_15  and  N_16
REMARK    7  A    between atoms: C_19  and  O_20
REMARK    8  A    between atoms: C_21  and  C_22
REMARK                            x       y       z     vdW  Elec       q    Type
REMARK                         _______ _______ _______ _____ _____    ______ ____
ROOT
ATOM      1  C   UNL     1      -1.508  11.435  18.969  0.00  0.00    +0.000 A 
ATOM      2  C   UNL     1      -1.152  10.271  19.658  0.00  0.00    +0.000 A 
ATOM      3  C   UNL     1       0.163  10.082  20.101  0.00  0.00    +0.000 A 
ATOM      4  C   UNL     1       1.185  10.933  19.695  0.00  0.00    +0.000 A 
ATOM      5  C   UNL     1       0.856  12.041  18.903  0.00  0.00    +0.000 A 
ATOM      6  C   UNL     1      -0.495  12.356  18.625  0.00  0.00    +0.000 A 
ENDROOT
BRANCH   1  12
ATOM      7  C   UNL     1      -7.081  12.376  17.554  0.00  0.00    +0.000 C 
ATOM      8  C   UNL     1      -5.653  12.124  17.934  0.00  0.00    +0.000 A 
ATOM      9  C   UNL     1      -5.156  12.464  19.176  0.00  0.00    +0.000 A 
ATOM     10  C   UNL     1      -3.799  12.270  19.514  0.00  0.00    +0.000 A 
ATOM     11  C   UNL     1      -3.410  12.802  20.880  0.00  0.00    +0.000 C 
ATOM     12  N   UNL     1      -2.932  11.655  18.618  0.00  0.00    +0.000 N 
ATOM     13  C   UNL     1      -3.440  11.247  17.395  0.00  0.00    +0.000 A 
ATOM     14  C   UNL     1      -2.702  10.422  16.360  0.00  0.00    +0.000 C 
ATOM     15  C   UNL     1      -4.777  11.531  17.047  0.00  0.00    +0.000 A 
ENDBRANCH   1  12
BRANCH   3  16
ATOM     16  S   UNL     1       0.505   8.808  21.297  0.00  0.00    +0.000 S 
ATOM     17  O   UNL     1      -0.760   8.273  21.724  0.00  0.00    +0.000 OA
ATOM     18  O   UNL     1       1.569   7.991  20.750  0.00  0.00    +0.000 OA
BRANCH  16  19
ATOM     19  N   UNL     1       1.160   9.676  22.554  0.00  0.00    +0.000 NA
ATOM     20  H   UNL     1       0.427   9.929  23.222  0.00  0.00    +0.000 HD
ATOM     21  H   UNL     1       1.912   9.144  23.001  0.00  0.00    +0.000 HD
ENDBRANCH  16  19
ENDBRANCH   3  16
BRANCH   5  22
ATOM     22  N   UNL     1       1.947  12.830  18.318  0.00  0.00    +0.000 N 
ATOM     23  O   UNL     1       1.888  14.060  18.405  0.00  0.00    +0.000 OA
ATOM     24  O   UNL     1       2.883  12.191  17.813  0.00  0.00    +0.000 OA
ENDBRANCH   5  22
BRANCH   6  25
ATOM     25  O   UNL     1      -0.860  13.562  18.081  0.00  0.00    +0.000 OA
ATOM     26  H   UNL     1      -1.766  13.823  18.373  0.00  0.00    +0.000 HD
ENDBRANCH   6  25
TORSDOF 5
ENDMDL
MODEL 5
REMARK VINA RESULT:      -6.3      0.910      2.157
REMARK  Name = 
REMARK  8 active torsions:
REMARK  status: ('A' for Active; 'I' for Inactive)
REMARK    1  A    between atoms: C_1  and  C_2
REMARK    2  A    between atoms: C_4  and  C_5
REMARK    3  A    between atoms: N_6  and  C_7
REMARK    4  A    between atoms: C_9  and  S_10
REMARK    5  A    between atoms: S_10  and  N_11
REMARK    6  A    between atoms: C_15  and  N_16
REMARK    7  A    between atoms: C_19  and  O_20
REMARK    8  A    between atoms: C_21  and  C_22
REMARK                            x       y       z     vdW  Elec       q    Type
REMARK                         _______ _______ _______ _____ _____    ______ ____
ROOT
ATOM      1  C   UNL     1      -1.552  11.674  19.276  0.00  0.00    +0.000 A 
ATOM      2  C   UNL     1      -1.246  10.661  20.190  0.00  0.00    +0.000 A 
ATOM      3  C   UNL     1       0.050  10.539  20.705  0.00  0.00    +0.000 A 
ATOM      4  C   UNL     1       1.105  11.276  20.177  0.00  0.00    +0.000 A 
ATOM      5  C   UNL     1       0.826  12.213  19.173  0.00  0.00    +0.000 A 
ATOM      6  C   UNL     1      -0.507  12.492  18.793  0.00  0.00    +0.000 A 
ENDROOT
BRANCH   1  12
ATOM      7  C   UNL     1      -7.103  12.280  17.612  0.00  0.00    +0.000 C 
ATOM      8  C   UNL     1      -5.669  12.133  18.023  0.00  0.00    +0.000 A 
ATOM      9  C   UNL     1      -4.738  11.509  17.218  0.00  0.00    +0.000 A 
ATOM     10  C   UNL     1      -3.400  11.328  17.629  0.00  0.00    +0.000 A 
ATOM     11  C   UNL     1      -2.549  10.527  16.662  0.00  0.00    +0.000 C 
ATOM     12  N   UNL     1      -2.960  11.847  18.841  0.00  0.00    +0.000 N 
ATOM     13  C   UNL     1      -3.872  12.537  19.624  0.00  0.00    +0.000 A 
ATOM     14  C   UNL     1      -3.550  13.308  20.888  0.00  0.00    +0.000 C 
ATOM     15  C   UNL     1      -5.224  12.628  19.232  0.00  0.00    +0.000 A 
ENDBRANCH   1  12
BRANCH   3  16
ATOM     16  S   UNL     1       0.325   9.517  22.137  0.00  0.00    +0.000 S 
ATOM     17  O   UNL     1      -0.460   8.324  21.968  0.00  0.00    +0.000 OA
ATOM     18  O   UNL     1       1.754   9.500  22.375  0.00  0.00    +0.000 OA
BRANCH  16  19
ATOM     19  N   UNL     1      -0.356  10.426  23.351  0.00  0.00    +0.000 NA
ATOM     20  H   UNL     1       0.210  11.262  23.519  0.00  0.00    +0.000 HD
ATOM     21  H   UNL     1      -1.323  10.664  23.119  0.00  0.00    +0.000 HD
ENDBRANCH  16  19
ENDBRANCH   3  16
BRANCH   5  22
ATOM     22  N   UNL     1       1.954  12.853  18.483  0.00  0.00    +0.000 N 
ATOM     23  O   UNL     1       2.765  12.131  17.897  0.00  0.00    +0.000 OA
ATOM     24  O   UNL     1       1.982  14.094  18.504  0.00  0.00    +0.000 OA
ENDBRANCH   5  22
BRANCH   6  25
ATOM     25  O   UNL     1      -0.827  13.576  18.013  0.00  0.00    +0.000 OA
ATOM     26  H   UNL     1      -0.021  14.097  17.784  0.00  0.00    +0.000 HD
ENDBRANCH   6  25
TORSDOF 5
ENDMDL
MODEL 6
REMARK VINA RESULT:      -6.3      0.899      1.117
REMARK  Name = 
REMARK  8 active torsions:
REMARK  status: ('A' for Active; 'I' for Inactive)
REMARK    1  A    between atoms: C_1  and  C_2
REMARK    2  A    between atoms: C_4  and  C_5
REMARK    3  A    between atoms: N_6  and  C_7
REMARK    4  A    between atoms: C_9  and  S_10
REMARK    5  A    between atoms: S_10  and  N_11
REMARK    6  A    between atoms: C_15  and  N_16
REMARK    7  A    between atoms: C_19  and  O_20
REMARK    8  A    between atoms: C_21  and  C_22
REMARK                            x       y       z     vdW  Elec       q    Type
REMARK                         _______ _______ _______ _____ _____    ______ ____
ROOT
ATOM      1  C   UNL     1      -1.576  11.678  19.381  0.00  0.00    +0.000 A 
ATOM      2  C   UNL     1      -1.262  10.728  20.359  0.00  0.00    +0.000 A 
ATOM      3  C   UNL     1       0.038  10.643  20.873  0.00  0.00    +0.000 A 
ATOM      4  C   UNL     1       1.088  11.344  20.290  0.00  0.00    +0.000 A 
ATOM      5  C   UNL     1       0.801  12.212  19.228  0.00  0.00    +0.000 A 
ATOM      6  C   UNL     1      -0.535  12.463  18.839  0.00  0.00    +0.000 A 
ENDROOT
BRANCH   1  12
ATOM      7  C   UNL     1      -7.093  12.305  17.618  0.00  0.00    +0.000 C 
ATOM      8  C   UNL     1      -5.680  12.137  18.089  0.00  0.00    +0.000 A 
ATOM      9  C   UNL     1      -5.235  12.684  19.275  0.00  0.00    +0.000 A 
ATOM     10  C   UNL     1      -3.891  12.565  19.692  0.00  0.00    +0.000 A 
ATOM     11  C   UNL     1      -3.560  13.322  20.963  0.00  0.00    +0.000 C 
ATOM     12  N   UNL     1      -2.987  11.820  18.945  0.00  0.00    +0.000 N 
ATOM     13  C   UNL     1      -3.443  11.207  17.789  0.00  0.00    +0.000 A 
ATOM     14  C   UNL     1      -2.661  10.230  16.934  0.00  0.00    +0.000 C 
ATOM     15  C   UNL     1      -4.767  11.414  17.348  0.00  0.00    +0.000 A 
ENDBRANCH   1  12
BRANCH   3  16
ATOM     16  S   UNL     1       0.324   9.719  22.368  0.00  0.00    +0.000 S 
ATOM     17  O   UNL     1       1.712   9.343  22.379  0.00  0.00    +0.000 OA
ATOM     18  O   UNL     1      -0.308  10.454  23.445  0.00  0.00    +0.000 OA
BRANCH  16  19
ATOM     19  N   UNL     1      -0.589   8.353  22.115  0.00  0.00    +0.000 NA
ATOM     20  H   UNL     1       0.023   7.557  21.919  0.00  0.00    +0.000 HD
ATOM     21  H   UNL     1      -1.195   8.175  22.920  0.00  0.00    +0.000 HD
ENDBRANCH  16  19
ENDBRANCH   3  16
BRANCH   5  22
ATOM     22  N   UNL     1       1.923  12.806  18.489  0.00  0.00    +0.000 N 
ATOM     23  O   UNL     1       2.049  14.034  18.510  0.00  0.00    +0.000 OA
ATOM     24  O   UNL     1       2.698  12.015  17.929  0.00  0.00    +0.000 OA
ENDBRANCH   5  22
BRANCH   6  25
ATOM     25  O   UNL     1      -0.862  13.492  17.990  0.00  0.00    +0.000 OA
ATOM     26  H   UNL     1      -0.106  13.716  17.397  0.00  0.00    +0.000 HD
ENDBRANCH   6  25
TORSDOF 5
ENDMDL
MODEL 7
REMARK VINA RESULT:      -6.3      6.156      8.635
REMARK  Name = 
REMARK  8 active torsions:
REMARK  status: ('A' for Active; 'I' for Inactive)
REMARK    1  A    between atoms: C_1  and  C_2
REMARK    2  A    between atoms: C_4  and  C_5
REMARK    3  A    between atoms: N_6  and  C_7
REMARK    4  A    between atoms: C_9  and  S_10
REMARK    5  A    between atoms: S_10  and  N_11
REMARK    6  A    between atoms: C_15  and  N_16
REMARK    7  A    between atoms: C_19  and  O_20
REMARK    8  A    between atoms: C_21  and  C_22
REMARK                            x       y       z     vdW  Elec       q    Type
REMARK                         _______ _______ _______ _____ _____    ______ ____
ROOT
ATOM      1  C   UNL     1       3.328   5.792  18.730  0.00  0.00    +0.000 A 
ATOM      2  C   UNL     1       4.699   6.034  18.599  0.00  0.00    +0.000 A 
ATOM      3  C   UNL     1       5.519   5.123  17.923  0.00  0.00    +0.000 A 
ATOM      4  C   UNL     1       5.043   3.870  17.549  0.00  0.00    +0.000 A 
ATOM      5  C   UNL     1       3.695   3.572  17.784  0.00  0.00    +0.000 A 
ATOM      6  C   UNL     1       2.810   4.560  18.275  0.00  0.00    +0.000 A 
ENDROOT
BRANCH   1  12
ATOM      7  C   UNL     1      -0.110   9.844  21.120  0.00  0.00    +0.000 C 
ATOM      8  C   UNL     1       0.789   8.815  20.504  0.00  0.00    +0.000 A 
ATOM      9  C   UNL     1       1.449   9.039  19.313  0.00  0.00    +0.000 A 
ATOM     10  C   UNL     1       2.257   8.050  18.711  0.00  0.00    +0.000 A 
ATOM     11  C   UNL     1       2.814   8.435  17.354  0.00  0.00    +0.000 C 
ATOM     12  N   UNL     1       2.470   6.833  19.348  0.00  0.00    +0.000 N 
ATOM     13  C   UNL     1       1.867   6.626  20.578  0.00  0.00    +0.000 A 
ATOM     14  C   UNL     1       2.107   5.444  21.495  0.00  0.00    +0.000 C 
ATOM     15  C   UNL     1       0.995   7.595  21.117  0.00  0.00    +0.000 A 
ENDBRANCH   1  12
BRANCH   3  16
ATOM     16  S   UNL     1       7.155   5.623  17.429  0.00  0.00    +0.000 S 
ATOM     17  O   UNL     1       7.032   6.292  16.161  0.00  0.00    +0.000 OA
ATOM     18  O   UNL     1       7.780   6.227  18.588  0.00  0.00    +0.000 OA
BRANCH  16  19
ATOM     19  N   UNL     1       7.907   4.162  17.180  0.00  0.00    +0.000 NA
ATOM     20  H   UNL     1       8.913   4.256  17.346  0.00  0.00    +0.000 HD
ATOM     21  H   UNL     1       7.492   3.441  17.775  0.00  0.00    +0.000 HD
ENDBRANCH  16  19
ENDBRANCH   3  16
BRANCH   5  22
ATOM     22  N   UNL     1       3.236   2.194  17.566  0.00  0.00    +0.000 N 
ATOM     23  O   UNL     1       3.886   1.276  18.074  0.00  0.00    +0.000 OA
ATOM     24  O   UNL     1       2.188   2.056  16.916  0.00  0.00    +0.000 OA
ENDBRANCH   5  22
BRANCH   6  25
ATOM     25  O   UNL     1       1.449   4.382  18.268  0.00  0.00    +0.000 OA
ATOM     26  H   UNL     1       1.015   4.988  17.620  0.00  0.00    +0.000 HD
ENDBRANCH   6  25
TORSDOF 5
ENDMDL
MODEL 8
REMARK VINA RESULT:      -6.3      6.253      8.665
REMARK  Name = 
REMARK  8 active torsions:
REMARK  status: ('A' for Active; 'I' for Inactive)
REMARK    1  A    between atoms: C_1  and  C_2
REMARK    2  A    between atoms: C_4  and  C_5
REMARK    3  A    between atoms: N_6  and  C_7
REMARK    4  A    between atoms: C_9  and  S_10
REMARK    5  A    between atoms: S_10  and  N_11
REMARK    6  A    between atoms: C_15  and  N_16
REMARK    7  A    between atoms: C_19  and  O_20
REMARK    8  A    between atoms: C_21  and  C_22
REMARK                            x       y       z     vdW  Elec       q    Type
REMARK                         _______ _______ _______ _____ _____    ______ ____
ROOT
ATOM      1  C   UNL     1       3.377   5.693  18.666  0.00  0.00    +0.000 A 
ATOM      2  C   UNL     1       4.748   5.912  18.497  0.00  0.00    +0.000 A 
ATOM      3  C   UNL     1       5.540   4.970  17.830  0.00  0.00    +0.000 A 
ATOM      4  C   UNL     1       5.039   3.713  17.505  0.00  0.00    +0.000 A 
ATOM      5  C   UNL     1       3.693   3.441  17.779  0.00  0.00    +0.000 A 
ATOM      6  C   UNL     1       2.832   4.456  18.260  0.00  0.00    +0.000 A 
ENDROOT
BRANCH   1  12
ATOM      7  C   UNL     1       0.195   9.935  21.080  0.00  0.00    +0.000 C 
ATOM      8  C   UNL     1       0.998   8.831  20.461  0.00  0.00    +0.000 A 
ATOM      9  C   UNL     1       1.147   7.604  21.073  0.00  0.00    +0.000 A 
ATOM     10  C   UNL     1       1.944   6.583  20.510  0.00  0.00    +0.000 A 
ATOM     11  C   UNL     1       2.079   5.344  21.374  0.00  0.00    +0.000 C 
ATOM     12  N   UNL     1       2.548   6.764  19.271  0.00  0.00    +0.000 N 
ATOM     13  C   UNL     1       2.346   7.969  18.617  0.00  0.00    +0.000 A 
ATOM     14  C   UNL     1       2.781   8.294  17.203  0.00  0.00    +0.000 C 
ATOM     15  C   UNL     1       1.618   9.005  19.240  0.00  0.00    +0.000 A 
ENDBRANCH   1  12
BRANCH   3  16
ATOM     16  S   UNL     1       7.170   5.432  17.284  0.00  0.00    +0.000 S 
ATOM     17  O   UNL     1       7.967   4.235  17.257  0.00  0.00    +0.000 OA
ATOM     18  O   UNL     1       7.000   6.300  16.136  0.00  0.00    +0.000 OA
BRANCH  16  19
ATOM     19  N   UNL     1       7.701   6.387  18.537  0.00  0.00    +0.000 NA
ATOM     20  H   UNL     1       7.069   6.295  19.336  0.00  0.00    +0.000 HD
ATOM     21  H   UNL     1       8.664   6.147  18.786  0.00  0.00    +0.000 HD
ENDBRANCH  16  19
ENDBRANCH   3  16
BRANCH   5  22
ATOM     22  N   UNL     1       3.210   2.064  17.613  0.00  0.00    +0.000 N 
ATOM     23  O   UNL     1       3.855   1.153  18.141  0.00  0.00    +0.000 OA
ATOM     24  O   UNL     1       2.151   1.921  16.983  0.00  0.00    +0.000 OA
ENDBRANCH   5  22
BRANCH   6  25
ATOM     25  O   UNL     1       1.469   4.297  18.288  0.00  0.00    +0.000 OA
ATOM     26  H   UNL     1       1.027   5.090  18.676  0.00  0.00    +0.000 HD
ENDBRANCH   6  25
TORSDOF 5
ENDMDL
MODEL 9
REMARK VINA RESULT:      -6.2      6.322      8.702
REMARK  Name = 
REMARK  8 active torsions:
REMARK  status: ('A' for Active; 'I' for Inactive)
REMARK    1  A    between atoms: C_1  and  C_2
REMARK    2  A    between atoms: C_4  and  C_5
REMARK    3  A    between atoms: N_6  and  C_7
REMARK    4  A    between atoms: C_9  and  S_10
REMARK    5  A    between atoms: S_10  and  N_11
REMARK    6  A    between atoms: C_15  and  N_16
REMARK    7  A    between atoms: C_19  and  O_20
REMARK    8  A    between atoms: C_21  and  C_22
REMARK                            x       y       z     vdW  Elec       q    Type
REMARK                         _______ _______ _______ _____ _____    ______ ____
ROOT
ATOM      1  C   UNL     1       3.449   5.668  18.820  0.00  0.00    +0.000 A 
ATOM      2  C   UNL     1       4.840   5.808  18.883  0.00  0.00    +0.000 A 
ATOM      3  C   UNL     1       5.677   4.821  18.348  0.00  0.00    +0.000 A 
ATOM      4  C   UNL     1       5.166   3.595  17.934  0.00  0.00    +0.000 A 
ATOM      5  C   UNL     1       3.779   3.400  17.980  0.00  0.00    +0.000 A 
ATOM      6  C   UNL     1       2.910   4.463  18.320  0.00  0.00    +0.000 A 
ENDROOT
BRANCH   1  12
ATOM      7  C   UNL     1       0.019  10.019  20.622  0.00  0.00    +0.000 C 
ATOM      8  C   UNL     1       0.917   8.913  20.157  0.00  0.00    +0.000 A 
ATOM      9  C   UNL     1       1.668   9.016  19.005  0.00  0.00    +0.000 A 
ATOM     10  C   UNL     1       2.476   7.953  18.544  0.00  0.00    +0.000 A 
ATOM     11  C   UNL     1       3.143   8.206  17.206  0.00  0.00    +0.000 C 
ATOM     12  N   UNL     1       2.594   6.786  19.289  0.00  0.00    +0.000 N 
ATOM     13  C   UNL     1       1.897   6.701  20.484  0.00  0.00    +0.000 A 
ATOM     14  C   UNL     1       2.022   5.590  21.507  0.00  0.00    +0.000 C 
ATOM     15  C   UNL     1       1.029   7.741  20.879  0.00  0.00    +0.000 A 
ENDBRANCH   1  12
BRANCH   3  16
ATOM     16  S   UNL     1       7.398   5.188  18.083  0.00  0.00    +0.000 S 
ATOM     17  O   UNL     1       8.037   5.198  19.372  0.00  0.00    +0.000 OA
ATOM     18  O   UNL     1       7.843   4.357  16.983  0.00  0.00    +0.000 OA
BRANCH  16  19
ATOM     19  N   UNL     1       7.339   6.750  17.516  0.00  0.00    +0.000 NA
ATOM     20  H   UNL     1       6.476   7.201  17.829  0.00  0.00    +0.000 HD
ATOM     21  H   UNL     1       8.168   7.270  17.813  0.00  0.00    +0.000 HD
ENDBRANCH  16  19
ENDBRANCH   3  16
BRANCH   5  22
ATOM     22  N   UNL     1       3.254   2.053  17.725  0.00  0.00    +0.000 N 
ATOM     23  O   UNL     1       3.837   1.093  18.239  0.00  0.00    +0.000 OA
ATOM     24  O   UNL     1       2.222   1.982  17.040  0.00  0.00    +0.000 OA
ENDBRANCH   5  22
BRANCH   6  25
ATOM     25  O   UNL     1       1.554   4.382  18.121  0.00  0.00    +0.000 OA
ATOM     26  H   UNL     1       1.108   3.959  18.893  0.00  0.00    +0.000 HD
ENDBRANCH   6  25
TORSDOF 5
ENDMDL
