MODEL 1
REMARK VINA RESULT:      -6.7      0.000      0.000
REMARK  Name = 
REMARK  8 active torsions:
REMARK  status: ('A' for Active; 'I' for Inactive)
REMARK    1  A    between atoms: C_1  and  C_2
REMARK    2  A    between atoms: C_2  and  C_3
REMARK    3  A    between atoms: C_3  and  C_4
REMARK    4  A    between atoms: C_4  and  C_5
REMARK    5  A    between atoms: C_5  and  N_6
REMARK    6  A    between atoms: N_11  and  O_12
REMARK    7  A    between atoms: O_12  and  C_13
REMARK    8  A    between atoms: C_13  and  C_14
REMARK                            x       y       z     vdW  Elec       q    Type
REMARK                         _______ _______ _______ _____ _____    ______ ____
ROOT
ATOM      1  N   UNL     1       6.301   5.601  15.107  0.00  0.00    +0.000 N 
ATOM      2  C   UNL     1       6.577   5.436  16.434  0.00  0.00    +0.000 C 
ATOM      3  N   UNL     1       7.657   4.868  16.889  0.00  0.00    +0.000 NA
ATOM      4  C   UNL     1       7.489   4.874  18.358  0.00  0.00    +0.000 C 
ATOM      5  C   UNL     1       6.169   5.578  18.664  0.00  0.00    +0.000 C 
ATOM      6  N   UNL     1       5.656   5.926  17.340  0.00  0.00    +0.000 N 
ATOM      7  H   UNL     1       5.327   5.819  14.940  0.00  0.00    +0.000 HD
ENDROOT
BRANCH   1   8
ATOM      8  C   UNL     1       6.916   4.702  14.139  0.00  0.00    +0.000 C 
BRANCH   8   9
ATOM      9  C   UNL     1       5.882   3.774  13.508  0.00  0.00    +0.000 C 
BRANCH   9  10
ATOM     10  C   UNL     1       6.276   3.422  12.069  0.00  0.00    +0.000 C 
BRANCH  10  12
ATOM     11  C   UNL     1       6.464   1.120  11.066  0.00  0.00    +0.000 C 
ATOM     12  C   UNL     1       5.513   2.205  11.548  0.00  0.00    +0.000 C 
ENDBRANCH  10  12
ENDBRANCH   9  10
ENDBRANCH   8   9
ENDBRANCH   1   8
BRANCH   6  13
ATOM     13  O   UNL     1       4.337   5.454  17.086  0.00  0.00    +0.000 OA
BRANCH  13  14
ATOM     14  C   UNL     1       3.452   6.014  18.074  0.00  0.00    +0.000 C 
BRANCH  14  15
ATOM     15  C   UNL     1       2.518   4.941  18.557  0.00  0.00    +0.000 A 
ATOM     16  C   UNL     1       1.886   3.934  17.850  0.00  0.00    +0.000 A 
ATOM     17  C   UNL     1       1.017   3.155  18.670  0.00  0.00    +0.000 A 
ATOM     18  C   UNL     1       1.019   3.580  19.980  0.00  0.00    +0.000 A 
ATOM     19  S   UNL     1       2.066   4.909  20.216  0.00  0.00    +0.000 S 
ENDBRANCH  14  15
ENDBRANCH  13  14
ENDBRANCH   6  13
TORSDOF 7
ENDMDL
MODEL 2
REMARK VINA RESULT:      -6.7      1.435      1.735
REMARK  Name = 
REMARK  8 active torsions:
REMARK  status: ('A' for Active; 'I' for Inactive)
REMARK    1  A    between atoms: C_1  and  C_2
REMARK    2  A    between atoms: C_2  and  C_3
REMARK    3  A    between atoms: C_3  and  C_4
REMARK    4  A    between atoms: C_4  and  C_5
REMARK    5  A    between atoms: C_5  and  N_6
REMARK    6  A    between atoms: N_11  and  O_12
REMARK    7  A    between atoms: O_12  and  C_13
REMARK    8  A    between atoms: C_13  and  C_14
REMARK                            x       y       z     vdW  Elec       q    Type
REMARK                         _______ _______ _______ _____ _____    ______ ____
ROOT
ATOM      1  N   UNL     1       5.693   5.249  15.713  0.00  0.00    +0.000 N 
ATOM      2  C   UNL     1       6.227   5.361  16.965  0.00  0.00    +0.000 C 
ATOM      3  N   UNL     1       7.479   5.630  17.202  0.00  0.00    +0.000 NA
ATOM      4  C   UNL     1       7.592   5.599  18.676  0.00  0.00    +0.000 C 
ATOM      5  C   UNL     1       6.200   5.319  19.236  0.00  0.00    +0.000 C 
ATOM      6  N   UNL     1       5.371   5.198  18.038  0.00  0.00    +0.000 N 
ATOM      7  H   UNL     1       4.790   4.792  15.719  0.00  0.00    +0.000 HD
ENDROOT
BRANCH   1   8
ATOM      8  C   UNL     1       6.565   4.900  14.600  0.00  0.00    +0.000 C 
BRANCH   8   9
ATOM      9  C   UNL     1       6.140   3.583  13.955  0.00  0.00    +0.000 C 
BRANCH   9  10
ATOM     10  C   UNL     1       6.322   3.642  12.434  0.00  0.00    +0.000 C 
BRANCH  10  12
ATOM     11  C   UNL     1       4.111   3.216  11.306  0.00  0.00    +0.000 C 
ATOM     12  C   UNL     1       5.449   2.616  11.713  0.00  0.00    +0.000 C 
ENDBRANCH  10  12
ENDBRANCH   9  10
ENDBRANCH   8   9
ENDBRANCH   1   8
BRANCH   6  13
ATOM     13  O   UNL     1       4.630   3.985  17.965  0.00  0.00    +0.000 OA
BRANCH  13  14
ATOM     14  C   UNL     1       4.643   3.361  19.263  0.00  0.00    +0.000 C 
BRANCH  14  15
ATOM     15  C   UNL     1       3.237   3.298  19.787  0.00  0.00    +0.000 A 
ATOM     16  C   UNL     1       2.765   2.841  21.005  0.00  0.00    +0.000 A 
ATOM     17  C   UNL     1       1.343   2.885  21.090  0.00  0.00    +0.000 A 
ATOM     18  C   UNL     1       0.768   3.384  19.943  0.00  0.00    +0.000 A 
ATOM     19  S   UNL     1       1.941   3.799  18.773  0.00  0.00    +0.000 S 
ENDBRANCH  14  15
ENDBRANCH  13  14
ENDBRANCH   6  13
TORSDOF 7
ENDMDL
MODEL 3
REMARK VINA RESULT:      -6.6      1.687      1.970
REMARK  Name = 
REMARK  8 active torsions:
REMARK  status: ('A' for Active; 'I' for Inactive)
REMARK    1  A    between atoms: C_1  and  C_2
REMARK    2  A    between atoms: C_2  and  C_3
REMARK    3  A    between atoms: C_3  and  C_4
REMARK    4  A    between atoms: C_4  and  C_5
REMARK    5  A    between atoms: C_5  and  N_6
REMARK    6  A    between atoms: N_11  and  O_12
REMARK    7  A    between atoms: O_12  and  C_13
REMARK    8  A    between atoms: C_13  and  C_14
REMARK                            x       y       z     vdW  Elec       q    Type
REMARK                         _______ _______ _______ _____ _____    ______ ____
ROOT
ATOM      1  N   UNL     1       5.546   4.470  14.226  0.00  0.00    +0.000 N 
ATOM      2  C   UNL     1       6.038   4.662  15.485  0.00  0.00    +0.000 C 
ATOM      3  N   UNL     1       7.306   4.642  15.782  0.00  0.00    +0.000 NA
ATOM      4  C   UNL     1       7.347   4.845  17.247  0.00  0.00    +0.000 C 
ATOM      5  C   UNL     1       5.908   5.030  17.723  0.00  0.00    +0.000 C 
ATOM      6  N   UNL     1       5.127   4.913  16.493  0.00  0.00    +0.000 N 
ATOM      7  H   UNL     1       4.555   4.264  14.228  0.00  0.00    +0.000 HD
ENDROOT
BRANCH   1   8
ATOM      8  C   UNL     1       6.339   3.720  13.262  0.00  0.00    +0.000 C 
BRANCH   8   9
ATOM      9  C   UNL     1       5.449   2.951  12.289  0.00  0.00    +0.000 C 
BRANCH   9  10
ATOM     10  C   UNL     1       4.507   3.906  11.547  0.00  0.00    +0.000 C 
BRANCH  10  12
ATOM     11  C   UNL     1       2.908   4.099   9.611  0.00  0.00    +0.000 C 
ATOM     12  C   UNL     1       3.546   3.160  10.623  0.00  0.00    +0.000 C 
ENDBRANCH  10  12
ENDBRANCH   9  10
ENDBRANCH   8   9
ENDBRANCH   1   8
BRANCH   6  13
ATOM     13  O   UNL     1       4.095   3.934  16.551  0.00  0.00    +0.000 OA
BRANCH  13  14
ATOM     14  C   UNL     1       4.285   3.137  17.736  0.00  0.00    +0.000 C 
BRANCH  14  15
ATOM     15  C   UNL     1       3.035   3.190  18.565  0.00  0.00    +0.000 A 
ATOM     16  C   UNL     1       2.165   2.176  18.922  0.00  0.00    +0.000 A 
ATOM     17  C   UNL     1       1.047   2.652  19.667  0.00  0.00    +0.000 A 
ATOM     18  C   UNL     1       1.099   4.013  19.870  0.00  0.00    +0.000 A 
ATOM     19  S   UNL     1       2.492   4.708  19.166  0.00  0.00    +0.000 S 
ENDBRANCH  14  15
ENDBRANCH  13  14
ENDBRANCH   6  13
TORSDOF 7
ENDMDL
MODEL 4
REMARK VINA RESULT:      -6.5      1.401      1.707
REMARK  Name = 
REMARK  8 active torsions:
REMARK  status: ('A' for Active; 'I' for Inactive)
REMARK    1  A    between atoms: C_1  and  C_2
REMARK    2  A    between atoms: C_2  and  C_3
REMARK    3  A    between atoms: C_3  and  C_4
REMARK    4  A    between atoms: C_4  and  C_5
REMARK    5  A    between atoms: C_5  and  N_6
REMARK    6  A    between atoms: N_11  and  O_12
REMARK    7  A    between atoms: O_12  and  C_13
REMARK    8  A    between atoms: C_13  and  C_14
REMARK                            x       y       z     vdW  Elec       q    Type
REMARK                         _______ _______ _______ _____ _____    ______ ____
ROOT
ATOM      1  N   UNL     1       5.428   4.661  14.277  0.00  0.00    +0.000 N 
ATOM      2  C   UNL     1       5.907   5.375  15.338  0.00  0.00    +0.000 C 
ATOM      3  N   UNL     1       7.168   5.630  15.535  0.00  0.00    +0.000 NA
ATOM      4  C   UNL     1       7.201   6.374  16.813  0.00  0.00    +0.000 C 
ATOM      5  C   UNL     1       5.758   6.541  17.281  0.00  0.00    +0.000 C 
ATOM      6  N   UNL     1       4.983   5.871  16.239  0.00  0.00    +0.000 N 
ATOM      7  H   UNL     1       4.476   4.347  14.422  0.00  0.00    +0.000 HD
ENDROOT
BRANCH   1   8
ATOM      8  C   UNL     1       6.306   3.709  13.610  0.00  0.00    +0.000 C 
BRANCH   8   9
ATOM      9  C   UNL     1       5.577   2.972  12.490  0.00  0.00    +0.000 C 
BRANCH   9  10
ATOM     10  C   UNL     1       4.622   3.917  11.751  0.00  0.00    +0.000 C 
BRANCH  10  12
ATOM     11  C   UNL     1       3.047   4.068   9.792  0.00  0.00    +0.000 C 
ATOM     12  C   UNL     1       3.645   3.158  10.854  0.00  0.00    +0.000 C 
ENDBRANCH  10  12
ENDBRANCH   9  10
ENDBRANCH   8   9
ENDBRANCH   1   8
BRANCH   6  13
ATOM     13  O   UNL     1       4.103   4.865  16.727  0.00  0.00    +0.000 OA
BRANCH  13  14
ATOM     14  C   UNL     1       3.476   5.348  17.930  0.00  0.00    +0.000 C 
BRANCH  14  15
ATOM     15  C   UNL     1       2.540   4.295  18.449  0.00  0.00    +0.000 A 
ATOM     16  C   UNL     1       2.010   3.188  17.810  0.00  0.00    +0.000 A 
ATOM     17  C   UNL     1       1.098   2.467  18.635  0.00  0.00    +0.000 A 
ATOM     18  C   UNL     1       0.965   3.033  19.883  0.00  0.00    +0.000 A 
ATOM     19  S   UNL     1       1.939   4.426  20.056  0.00  0.00    +0.000 S 
ENDBRANCH  14  15
ENDBRANCH  13  14
ENDBRANCH   6  13
TORSDOF 7
ENDMDL
MODEL 5
REMARK VINA RESULT:      -6.5      1.585      1.925
REMARK  Name = 
REMARK  8 active torsions:
REMARK  status: ('A' for Active; 'I' for Inactive)
REMARK    1  A    between atoms: C_1  and  C_2
REMARK    2  A    between atoms: C_2  and  C_3
REMARK    3  A    between atoms: C_3  and  C_4
REMARK    4  A    between atoms: C_4  and  C_5
REMARK    5  A    between atoms: C_5  and  N_6
REMARK    6  A    between atoms: N_11  and  O_12
REMARK    7  A    between atoms: O_12  and  C_13
REMARK    8  A    between atoms: C_13  and  C_14
REMARK                            x       y       z     vdW  Elec       q    Type
REMARK                         _______ _______ _______ _____ _____    ______ ____
ROOT
ATOM      1  N   UNL     1       5.613   4.530  14.556  0.00  0.00    +0.000 N 
ATOM      2  C   UNL     1       5.984   5.123  15.728  0.00  0.00    +0.000 C 
ATOM      3  N   UNL     1       7.103   5.768  15.896  0.00  0.00    +0.000 NA
ATOM      4  C   UNL     1       7.084   6.180  17.316  0.00  0.00    +0.000 C 
ATOM      5  C   UNL     1       5.759   5.710  17.910  0.00  0.00    +0.000 C 
ATOM      6  N   UNL     1       5.100   5.046  16.787  0.00  0.00    +0.000 N 
ATOM      7  H   UNL     1       4.855   3.871  14.680  0.00  0.00    +0.000 HD
ENDROOT
BRANCH   1   8
ATOM      8  C   UNL     1       6.644   4.127  13.608  0.00  0.00    +0.000 C 
BRANCH   8   9
ATOM      9  C   UNL     1       6.057   3.295  12.471  0.00  0.00    +0.000 C 
BRANCH   9  10
ATOM     10  C   UNL     1       4.604   3.699  12.197  0.00  0.00    +0.000 C 
BRANCH  10  12
ATOM     11  C   UNL     1       3.219   3.982  10.113  0.00  0.00    +0.000 C 
ATOM     12  C   UNL     1       4.046   3.016  10.949  0.00  0.00    +0.000 C 
ENDBRANCH  10  12
ENDBRANCH   9  10
ENDBRANCH   8   9
ENDBRANCH   1   8
BRANCH   6  13
ATOM     13  O   UNL     1       4.693   3.709  17.061  0.00  0.00    +0.000 OA
BRANCH  13  14
ATOM     14  C   UNL     1       3.254   3.661  17.066  0.00  0.00    +0.000 C 
BRANCH  14  15
ATOM     15  C   UNL     1       2.769   3.698  18.487  0.00  0.00    +0.000 A 
ATOM     16  C   UNL     1       1.803   4.496  19.073  0.00  0.00    +0.000 A 
ATOM     17  C   UNL     1       1.685   4.270  20.476  0.00  0.00    +0.000 A 
ATOM     18  C   UNL     1       2.555   3.299  20.921  0.00  0.00    +0.000 A 
ATOM     19  S   UNL     1       3.504   2.664  19.650  0.00  0.00    +0.000 S 
ENDBRANCH  14  15
ENDBRANCH  13  14
ENDBRANCH   6  13
TORSDOF 7
ENDMDL
MODEL 6
REMARK VINA RESULT:      -6.5      2.894      5.479
REMARK  Name = 
REMARK  8 active torsions:
REMARK  status: ('A' for Active; 'I' for Inactive)
REMARK    1  A    between atoms: C_1  and  C_2
REMARK    2  A    between atoms: C_2  and  C_3
REMARK    3  A    between atoms: C_3  and  C_4
REMARK    4  A    between atoms: C_4  and  C_5
REMARK    5  A    between atoms: C_5  and  N_6
REMARK    6  A    between atoms: N_11  and  O_12
REMARK    7  A    between atoms: O_12  and  C_13
REMARK    8  A    between atoms: C_13  and  C_14
REMARK                            x       y       z     vdW  Elec       q    Type
REMARK                         _______ _______ _______ _____ _____    ______ ____
ROOT
ATOM      1  N   UNL     1       7.073   6.470  17.783  0.00  0.00    +0.000 N 
ATOM      2  C   UNL     1       6.804   5.573  16.789  0.00  0.00    +0.000 C 
ATOM      3  N   UNL     1       7.349   5.612  15.607  0.00  0.00    +0.000 NA
ATOM      4  C   UNL     1       6.722   4.490  14.874  0.00  0.00    +0.000 C 
ATOM      5  C   UNL     1       5.776   3.784  15.841  0.00  0.00    +0.000 C 
ATOM      6  N   UNL     1       5.914   4.556  17.075  0.00  0.00    +0.000 N 
ATOM      7  H   UNL     1       6.384   6.443  18.524  0.00  0.00    +0.000 HD
ENDROOT
BRANCH   1   8
ATOM      8  C   UNL     1       7.558   7.797  17.428  0.00  0.00    +0.000 C 
BRANCH   8   9
ATOM      9  C   UNL     1       8.483   8.357  18.506  0.00  0.00    +0.000 C 
BRANCH   9  10
ATOM     10  C   UNL     1       8.710   9.859  18.299  0.00  0.00    +0.000 C 
BRANCH  10  12
ATOM     11  C   UNL     1      10.608  11.325  19.064  0.00  0.00    +0.000 C 
ATOM     12  C   UNL     1       9.403  10.504  19.498  0.00  0.00    +0.000 C 
ENDBRANCH  10  12
ENDBRANCH   9  10
ENDBRANCH   8   9
ENDBRANCH   1   8
BRANCH   6  13
ATOM     13  O   UNL     1       4.682   5.040  17.598  0.00  0.00    +0.000 OA
BRANCH  13  14
ATOM     14  C   UNL     1       3.643   4.096  17.274  0.00  0.00    +0.000 C 
BRANCH  14  15
ATOM     15  C   UNL     1       2.692   4.001  18.432  0.00  0.00    +0.000 A 
ATOM     16  C   UNL     1       1.642   3.127  18.645  0.00  0.00    +0.000 A 
ATOM     17  C   UNL     1       0.930   3.412  19.847  0.00  0.00    +0.000 A 
ATOM     18  C   UNL     1       1.462   4.486  20.524  0.00  0.00    +0.000 A 
ATOM     19  S   UNL     1       2.814   5.142  19.712  0.00  0.00    +0.000 S 
ENDBRANCH  14  15
ENDBRANCH  13  14
ENDBRANCH   6  13
TORSDOF 7
ENDMDL
MODEL 7
REMARK VINA RESULT:      -6.4      1.078      1.366
REMARK  Name = 
REMARK  8 active torsions:
REMARK  status: ('A' for Active; 'I' for Inactive)
REMARK    1  A    between atoms: C_1  and  C_2
REMARK    2  A    between atoms: C_2  and  C_3
REMARK    3  A    between atoms: C_3  and  C_4
REMARK    4  A    between atoms: C_4  and  C_5
REMARK    5  A    between atoms: C_5  and  N_6
REMARK    6  A    between atoms: N_11  and  O_12
REMARK    7  A    between atoms: O_12  and  C_13
REMARK    8  A    between atoms: C_13  and  C_14
REMARK                            x       y       z     vdW  Elec       q    Type
REMARK                         _______ _______ _______ _____ _____    ______ ____
ROOT
ATOM      1  N   UNL     1       5.776   4.886  15.075  0.00  0.00    +0.000 N 
ATOM      2  C   UNL     1       6.300   5.033  16.327  0.00  0.00    +0.000 C 
ATOM      3  N   UNL     1       7.485   4.621  16.674  0.00  0.00    +0.000 NA
ATOM      4  C   UNL     1       7.586   4.951  18.113  0.00  0.00    +0.000 C 
ATOM      5  C   UNL     1       6.292   5.657  18.511  0.00  0.00    +0.000 C 
ATOM      6  N   UNL     1       5.522   5.681  17.269  0.00  0.00    +0.000 N 
ATOM      7  H   UNL     1       4.774   5.027  15.057  0.00  0.00    +0.000 HD
ENDROOT
BRANCH   1   8
ATOM      8  C   UNL     1       6.273   3.817  14.220  0.00  0.00    +0.000 C 
BRANCH   8   9
ATOM      9  C   UNL     1       6.668   4.344  12.843  0.00  0.00    +0.000 C 
BRANCH   9  10
ATOM     10  C   UNL     1       6.645   3.217  11.804  0.00  0.00    +0.000 C 
BRANCH  10  12
ATOM     11  C   UNL     1       4.202   3.363  11.211  0.00  0.00    +0.000 C 
ATOM     12  C   UNL     1       5.305   2.484  11.783  0.00  0.00    +0.000 C 
ENDBRANCH  10  12
ENDBRANCH   9  10
ENDBRANCH   8   9
ENDBRANCH   1   8
BRANCH   6  13
ATOM     13  O   UNL     1       4.220   5.117  17.382  0.00  0.00    +0.000 OA
BRANCH  13  14
ATOM     14  C   UNL     1       3.614   5.604  18.594  0.00  0.00    +0.000 C 
BRANCH  14  15
ATOM     15  C   UNL     1       2.709   4.541  19.148  0.00  0.00    +0.000 A 
ATOM     16  C   UNL     1       1.689   4.641  20.076  0.00  0.00    +0.000 A 
ATOM     17  C   UNL     1       1.111   3.377  20.391  0.00  0.00    +0.000 A 
ATOM     18  C   UNL     1       1.696   2.348  19.687  0.00  0.00    +0.000 A 
ATOM     19  S   UNL     1       2.933   2.909  18.651  0.00  0.00    +0.000 S 
ENDBRANCH  14  15
ENDBRANCH  13  14
ENDBRANCH   6  13
TORSDOF 7
ENDMDL
MODEL 8
REMARK VINA RESULT:      -6.4      3.012      5.570
REMARK  Name = 
REMARK  8 active torsions:
REMARK  status: ('A' for Active; 'I' for Inactive)
REMARK    1  A    between atoms: C_1  and  C_2
REMARK    2  A    between atoms: C_2  and  C_3
REMARK    3  A    between atoms: C_3  and  C_4
REMARK    4  A    between atoms: C_4  and  C_5
REMARK    5  A    between atoms: C_5  and  N_6
REMARK    6  A    between atoms: N_11  and  O_12
REMARK    7  A    between atoms: O_12  and  C_13
REMARK    8  A    between atoms: C_13  and  C_14
REMARK                            x       y       z     vdW  Elec       q    Type
REMARK                         _______ _______ _______ _____ _____    ______ ____
ROOT
ATOM      1  N   UNL     1       7.084   6.354  17.737  0.00  0.00    +0.000 N 
ATOM      2  C   UNL     1       6.791   5.478  16.732  0.00  0.00    +0.000 C 
ATOM      3  N   UNL     1       7.250   5.582  15.517  0.00  0.00    +0.000 NA
ATOM      4  C   UNL     1       6.630   4.454  14.789  0.00  0.00    +0.000 C 
ATOM      5  C   UNL     1       5.789   3.670  15.792  0.00  0.00    +0.000 C 
ATOM      6  N   UNL     1       5.974   4.407  17.040  0.00  0.00    +0.000 N 
ATOM      7  H   UNL     1       6.449   6.267  18.521  0.00  0.00    +0.000 HD
ENDROOT
BRANCH   1   8
ATOM      8  C   UNL     1       7.477   7.715  17.398  0.00  0.00    +0.000 C 
BRANCH   8   9
ATOM      9  C   UNL     1       8.429   8.294  18.441  0.00  0.00    +0.000 C 
BRANCH   9  10
ATOM     10  C   UNL     1       8.633   9.797  18.214  0.00  0.00    +0.000 C 
BRANCH  10  12
ATOM     11  C   UNL     1       9.739  11.903  19.039  0.00  0.00    +0.000 C 
ATOM     12  C   UNL     1       9.447  10.440  19.336  0.00  0.00    +0.000 C 
ENDBRANCH  10  12
ENDBRANCH   9  10
ENDBRANCH   8   9
ENDBRANCH   1   8
BRANCH   6  13
ATOM     13  O   UNL     1       4.759   4.809  17.663  0.00  0.00    +0.000 OA
BRANCH  13  14
ATOM     14  C   UNL     1       4.634   4.113  18.917  0.00  0.00    +0.000 C 
BRANCH  14  15
ATOM     15  C   UNL     1       3.218   3.636  19.071  0.00  0.00    +0.000 A 
ATOM     16  C   UNL     1       2.353   3.761  20.143  0.00  0.00    +0.000 A 
ATOM     17  C   UNL     1       1.107   3.106  19.918  0.00  0.00    +0.000 A 
ATOM     18  C   UNL     1       1.049   2.510  18.678  0.00  0.00    +0.000 A 
ATOM     19  S   UNL     1       2.491   2.744  17.792  0.00  0.00    +0.000 S 
ENDBRANCH  14  15
ENDBRANCH  13  14
ENDBRANCH   6  13
TORSDOF 7
ENDMDL
MODEL 9
REMARK VINA RESULT:      -6.4      0.932      1.129
REMARK  Name = 
REMARK  8 active torsions:
REMARK  status: ('A' for Active; 'I' for Inactive)
REMARK    1  A    between atoms: C_1  and  C_2
REMARK    2  A    between atoms: C_2  and  C_3
REMARK    3  A    between atoms: C_3  and  C_4
REMARK    4  A    between atoms: C_4  and  C_5
REMARK    5  A    between atoms: C_5  and  N_6
REMARK    6  A    between atoms: N_11  and  O_12
REMARK    7  A    between atoms: O_12  and  C_13
REMARK    8  A    between atoms: C_13  and  C_14
REMARK                            x       y       z     vdW  Elec       q    Type
REMARK                         _______ _______ _______ _____ _____    ______ ____
ROOT
ATOM      1  N   UNL     1       6.054   5.022  15.156  0.00  0.00    +0.000 N 
ATOM      2  C   UNL     1       6.644   5.103  16.385  0.00  0.00    +0.000 C 
ATOM      3  N   UNL     1       7.673   4.393  16.748  0.00  0.00    +0.000 NA
ATOM      4  C   UNL     1       7.918   4.786  18.153  0.00  0.00    +0.000 C 
ATOM      5  C   UNL     1       6.897   5.862  18.510  0.00  0.00    +0.000 C 
ATOM      6  N   UNL     1       6.120   6.015  17.281  0.00  0.00    +0.000 N 
ATOM      7  H   UNL     1       5.134   5.444  15.141  0.00  0.00    +0.000 HD
ENDROOT
BRANCH   1   8
ATOM      8  C   UNL     1       6.192   3.794  14.385  0.00  0.00    +0.000 C 
BRANCH   8   9
ATOM      9  C   UNL     1       6.658   4.083  12.960  0.00  0.00    +0.000 C 
BRANCH   9  10
ATOM     10  C   UNL     1       5.883   3.226  11.952  0.00  0.00    +0.000 C 
BRANCH  10  12
ATOM     11  C   UNL     1       3.697   3.034  10.717  0.00  0.00    +0.000 C 
ATOM     12  C   UNL     1       4.384   3.521  11.984  0.00  0.00    +0.000 C 
ENDBRANCH  10  12
ENDBRANCH   9  10
ENDBRANCH   8   9
ENDBRANCH   1   8
BRANCH   6  13
ATOM     13  O   UNL     1       4.716   5.861  17.459  0.00  0.00    +0.000 OA
BRANCH  13  14
ATOM     14  C   UNL     1       4.459   5.558  18.843  0.00  0.00    +0.000 C 
BRANCH  14  15
ATOM     15  C   UNL     1       3.162   4.808  18.946  0.00  0.00    +0.000 A 
ATOM     16  C   UNL     1       2.409   4.203  17.957  0.00  0.00    +0.000 A 
ATOM     17  C   UNL     1       1.194   3.650  18.457  0.00  0.00    +0.000 A 
ATOM     18  C   UNL     1       1.059   3.837  19.815  0.00  0.00    +0.000 A 
ATOM     19  S   UNL     1       2.393   4.672  20.478  0.00  0.00    +0.000 S 
ENDBRANCH  14  15
ENDBRANCH  13  14
ENDBRANCH   6  13
TORSDOF 7
ENDMDL
