MODEL 1
REMARK VINA RESULT:      -9.6      0.000      0.000
REMARK  Name = 
REMARK  4 active torsions:
REMARK  status: ('A' for Active; 'I' for Inactive)
REMARK    1  A    between atoms: C_2  and  C_3
REMARK    2  A    between atoms: C_3  and  N_4
REMARK    3  A    between atoms: N_16  and  C_17
REMARK    4  A    between atoms: N_16  and  C_23
REMARK                            x       y       z     vdW  Elec       q    Type
REMARK                         _______ _______ _______ _____ _____    ______ ____
ROOT
ATOM      1  O   UNL     1       5.283   3.405  19.309  0.00  0.00    +0.000 OA
ATOM      2  C   UNL     1       4.968   4.601  19.359  0.00  0.00    +0.000 C 
ATOM      3  N   UNL     1       3.654   5.042  19.550  0.00  0.00    +0.000 N 
ENDROOT
BRANCH   3   4
ATOM      4  C   UNL     1       3.164   6.316  19.155  0.00  0.00    +0.000 A 
ATOM      5  C   UNL     1       3.400   6.800  17.866  0.00  0.00    +0.000 A 
ATOM      6  C   UNL     1       2.772   7.972  17.435  0.00  0.00    +0.000 A 
ATOM      7  C   UNL     1       1.935   8.708  18.296  0.00  0.00    +0.000 A 
ATOM      8  C   UNL     1       1.249   9.854  17.860  0.00  0.00    +0.000 A 
ATOM      9  C   UNL     1       0.448  10.589  18.737  0.00  0.00    +0.000 A 
ATOM     10  C   UNL     1       0.346  10.203  20.070  0.00  0.00    +0.000 A 
ATOM     11  C   UNL     1       1.001   9.053  20.513  0.00  0.00    +0.000 A 
ATOM     12  C   UNL     1       1.772   8.274  19.630  0.00  0.00    +0.000 A 
ATOM     13  C   UNL     1       2.365   7.065  20.034  0.00  0.00    +0.000 A 
ENDBRANCH   3   4
BRANCH   3  14
ATOM     14  C   UNL     1       2.682   4.141  20.084  0.00  0.00    +0.000 A 
ATOM     15  C   UNL     1       1.675   3.630  19.254  0.00  0.00    +0.000 A 
ATOM     16  C   UNL     1       0.709   2.758  19.759  0.00  0.00    +0.000 A 
ATOM     17  C   UNL     1       0.715   2.424  21.111  0.00  0.00    +0.000 A 
ATOM     18  C   UNL     1       1.701   2.940  21.951  0.00  0.00    +0.000 A 
ATOM     19  C   UNL     1       2.697   3.775  21.437  0.00  0.00    +0.000 A 
ENDBRANCH   3  14
BRANCH   2  20
ATOM     20  C   UNL     1       6.082   5.664  19.304  0.00  0.00    +0.000 C 
BRANCH  20  21
ATOM     21  N   UNL     1       7.073   5.320  18.265  0.00  0.00    +0.000 NA
ATOM     22  C   UNL     1       6.845   4.007  17.626  0.00  0.00    +0.000 C 
ATOM     23  C   UNL     1       5.861   3.931  16.435  0.00  0.00    +0.000 C 
ATOM     24  N   UNL     1       6.068   5.020  15.484  0.00  0.00    +0.000 N 
ATOM     25  C   UNL     1       6.548   4.771  14.208  0.00  0.00    +0.000 A 
ATOM     26  C   UNL     1       6.048   3.698  13.463  0.00  0.00    +0.000 A 
ATOM     27  C   UNL     1       6.478   3.480  12.150  0.00  0.00    +0.000 A 
ATOM     28  C   UNL     1       7.409   4.335  11.596  0.00  0.00    +0.000 A 
ATOM     29  C   UNL     1       7.865   5.374  12.384  0.00  0.00    +0.000 A 
ATOM     30  N   UNL     1       7.452   5.610  13.657  0.00  0.00    +0.000 NA
ATOM     31  C   UNL     1       6.215   6.352  16.072  0.00  0.00    +0.000 C 
ATOM     32  C   UNL     1       7.225   6.371  17.240  0.00  0.00    +0.000 C 
ENDBRANCH  20  21
ENDBRANCH   2  20
TORSDOF 4
ENDMDL
MODEL 2
REMARK VINA RESULT:      -9.1      3.150      8.104
REMARK  Name = 
REMARK  4 active torsions:
REMARK  status: ('A' for Active; 'I' for Inactive)
REMARK    1  A    between atoms: C_2  and  C_3
REMARK    2  A    between atoms: C_3  and  N_4
REMARK    3  A    between atoms: N_16  and  C_17
REMARK    4  A    between atoms: N_16  and  C_23
REMARK                            x       y       z     vdW  Elec       q    Type
REMARK                         _______ _______ _______ _____ _____    ______ ____
ROOT
ATOM      1  O   UNL     1       1.389   7.296  20.793  0.00  0.00    +0.000 OA
ATOM      2  C   UNL     1       2.159   7.153  19.834  0.00  0.00    +0.000 C 
ATOM      3  N   UNL     1       2.730   5.924  19.485  0.00  0.00    +0.000 N 
ENDROOT
BRANCH   3   4
ATOM      4  C   UNL     1       3.933   5.774  18.743  0.00  0.00    +0.000 A 
ATOM      5  C   UNL     1       5.162   5.664  19.397  0.00  0.00    +0.000 A 
ATOM      6  C   UNL     1       6.313   5.348  18.670  0.00  0.00    +0.000 A 
ATOM      7  C   UNL     1       6.269   5.182  17.272  0.00  0.00    +0.000 A 
ATOM      8  C   UNL     1       7.403   4.805  16.535  0.00  0.00    +0.000 A 
ATOM      9  C   UNL     1       7.347   4.675  15.145  0.00  0.00    +0.000 A 
ATOM     10  C   UNL     1       6.161   4.950  14.471  0.00  0.00    +0.000 A 
ATOM     11  C   UNL     1       5.018   5.302  15.191  0.00  0.00    +0.000 A 
ATOM     12  C   UNL     1       5.046   5.388  16.596  0.00  0.00    +0.000 A 
ATOM     13  C   UNL     1       3.886   5.652  17.345  0.00  0.00    +0.000 A 
ENDBRANCH   3   4
BRANCH   3  14
ATOM     14  C   UNL     1       2.148   4.715  19.975  0.00  0.00    +0.000 A 
ATOM     15  C   UNL     1       2.453   4.271  21.269  0.00  0.00    +0.000 A 
ATOM     16  C   UNL     1       1.904   3.085  21.763  0.00  0.00    +0.000 A 
ATOM     17  C   UNL     1       1.081   2.310  20.950  0.00  0.00    +0.000 A 
ATOM     18  C   UNL     1       0.784   2.733  19.655  0.00  0.00    +0.000 A 
ATOM     19  C   UNL     1       1.294   3.943  19.176  0.00  0.00    +0.000 A 
ENDBRANCH   3  14
BRANCH   2  20
ATOM     20  C   UNL     1       2.434   8.360  18.917  0.00  0.00    +0.000 C 
BRANCH  20  21
ATOM     21  N   UNL     1       1.230   9.208  18.805  0.00  0.00    +0.000 NA
ATOM     22  C   UNL     1       0.697   9.671  20.104  0.00  0.00    +0.000 C 
ATOM     23  C   UNL     1       1.301  10.950  20.730  0.00  0.00    +0.000 C 
ATOM     24  N   UNL     1       1.464  12.017  19.747  0.00  0.00    +0.000 N 
ATOM     25  C   UNL     1       0.705  13.175  19.818  0.00  0.00    +0.000 A 
ATOM     26  C   UNL     1       0.501  13.811  21.047  0.00  0.00    +0.000 A 
ATOM     27  C   UNL     1      -0.206  15.015  21.118  0.00  0.00    +0.000 A 
ATOM     28  C   UNL     1      -0.709  15.570  19.958  0.00  0.00    +0.000 A 
ATOM     29  C   UNL     1      -0.475  14.892  18.777  0.00  0.00    +0.000 A 
ATOM     30  N   UNL     1       0.219  13.727  18.685  0.00  0.00    +0.000 NA
ATOM     31  C   UNL     1       2.067  11.617  18.475  0.00  0.00    +0.000 C 
ATOM     32  C   UNL     1       1.410  10.349  17.886  0.00  0.00    +0.000 C 
ENDBRANCH  20  21
ENDBRANCH   2  20
TORSDOF 4
ENDMDL
MODEL 3
REMARK VINA RESULT:      -8.8      6.046      9.841
REMARK  Name = 
REMARK  4 active torsions:
REMARK  status: ('A' for Active; 'I' for Inactive)
REMARK    1  A    between atoms: C_2  and  C_3
REMARK    2  A    between atoms: C_3  and  N_4
REMARK    3  A    between atoms: N_16  and  C_17
REMARK    4  A    between atoms: N_16  and  C_23
REMARK                            x       y       z     vdW  Elec       q    Type
REMARK                         _______ _______ _______ _____ _____    ______ ____
ROOT
ATOM      1  O   UNL     1      -0.540  13.715  18.764  0.00  0.00    +0.000 OA
ATOM      2  C   UNL     1       0.236  12.750  18.735  0.00  0.00    +0.000 C 
ATOM      3  N   UNL     1      -0.192  11.423  18.623  0.00  0.00    +0.000 N 
ENDROOT
BRANCH   3   4
ATOM      4  C   UNL     1       0.558  10.294  19.049  0.00  0.00    +0.000 A 
ATOM      5  C   UNL     1       0.400   9.781  20.339  0.00  0.00    +0.000 A 
ATOM      6  C   UNL     1       1.013   8.575  20.689  0.00  0.00    +0.000 A 
ATOM      7  C   UNL     1       1.831   7.881  19.776  0.00  0.00    +0.000 A 
ATOM      8  C   UNL     1       2.404   6.638  20.091  0.00  0.00    +0.000 A 
ATOM      9  C   UNL     1       3.238   5.980  19.184  0.00  0.00    +0.000 A 
ATOM     10  C   UNL     1       3.533   6.572  17.960  0.00  0.00    +0.000 A 
ATOM     11  C   UNL     1       2.952   7.795  17.621  0.00  0.00    +0.000 A 
ATOM     12  C   UNL     1       2.070   8.446  18.504  0.00  0.00    +0.000 A 
ATOM     13  C   UNL     1       1.406   9.632  18.145  0.00  0.00    +0.000 A 
ENDBRANCH   3   4
BRANCH   3  14
ATOM     14  C   UNL     1      -1.510  11.149  18.146  0.00  0.00    +0.000 A 
ATOM     15  C   UNL     1      -2.617  11.711  18.796  0.00  0.00    +0.000 A 
ATOM     16  C   UNL     1      -3.914  11.446  18.353  0.00  0.00    +0.000 A 
ATOM     17  C   UNL     1      -4.118  10.580  17.281  0.00  0.00    +0.000 A 
ATOM     18  C   UNL     1      -3.026  10.001  16.637  0.00  0.00    +0.000 A 
ATOM     19  C   UNL     1      -1.725  10.303  17.049  0.00  0.00    +0.000 A 
ENDBRANCH   3  14
BRANCH   2  20
ATOM     20  C   UNL     1       1.753  13.020  18.726  0.00  0.00    +0.000 C 
BRANCH  20  21
ATOM     21  N   UNL     1       2.037  14.391  19.192  0.00  0.00    +0.000 NA
ATOM     22  C   UNL     1       2.392  14.480  20.625  0.00  0.00    +0.000 C 
ATOM     23  C   UNL     1       3.866  14.246  21.032  0.00  0.00    +0.000 C 
ATOM     24  N   UNL     1       4.795  14.950  20.151  0.00  0.00    +0.000 N 
ATOM     25  C   UNL     1       5.557  16.009  20.619  0.00  0.00    +0.000 A 
ATOM     26  C   UNL     1       6.192  15.926  21.863  0.00  0.00    +0.000 A 
ATOM     27  C   UNL     1       7.017  16.962  22.312  0.00  0.00    +0.000 A 
ATOM     28  C   UNL     1       7.195  18.075  21.515  0.00  0.00    +0.000 A 
ATOM     29  C   UNL     1       6.540  18.095  20.299  0.00  0.00    +0.000 A 
ATOM     30  N   UNL     1       5.743  17.095  19.839  0.00  0.00    +0.000 NA
ATOM     31  C   UNL     1       4.528  14.818  18.718  0.00  0.00    +0.000 C 
ATOM     32  C   UNL     1       3.047  15.084  18.369  0.00  0.00    +0.000 C 
ENDBRANCH  20  21
ENDBRANCH   2  20
TORSDOF 4
ENDMDL
MODEL 4
REMARK VINA RESULT:      -8.8      7.268     12.491
REMARK  Name = 
REMARK  4 active torsions:
REMARK  status: ('A' for Active; 'I' for Inactive)
REMARK    1  A    between atoms: C_2  and  C_3
REMARK    2  A    between atoms: C_3  and  N_4
REMARK    3  A    between atoms: N_16  and  C_17
REMARK    4  A    between atoms: N_16  and  C_23
REMARK                            x       y       z     vdW  Elec       q    Type
REMARK                         _______ _______ _______ _____ _____    ______ ____
ROOT
ATOM      1  O   UNL     1       0.269  11.529  22.125  0.00  0.00    +0.000 OA
ATOM      2  C   UNL     1       0.200  12.645  21.592  0.00  0.00    +0.000 C 
ATOM      3  N   UNL     1       0.361  12.851  20.218  0.00  0.00    +0.000 N 
ENDROOT
BRANCH   3   4
ATOM      4  C   UNL     1       0.759  14.080  19.627  0.00  0.00    +0.000 A 
ATOM      5  C   UNL     1       2.110  14.357  19.401  0.00  0.00    +0.000 A 
ATOM      6  C   UNL     1       2.477  15.488  18.669  0.00  0.00    +0.000 A 
ATOM      7  C   UNL     1       1.509  16.390  18.187  0.00  0.00    +0.000 A 
ATOM      8  C   UNL     1       1.857  17.499  17.398  0.00  0.00    +0.000 A 
ATOM      9  C   UNL     1       0.885  18.399  16.955  0.00  0.00    +0.000 A 
ATOM     10  C   UNL     1      -0.445  18.219  17.322  0.00  0.00    +0.000 A 
ATOM     11  C   UNL     1      -0.811  17.109  18.085  0.00  0.00    +0.000 A 
ATOM     12  C   UNL     1       0.150  16.166  18.496  0.00  0.00    +0.000 A 
ATOM     13  C   UNL     1      -0.212  14.996  19.187  0.00  0.00    +0.000 A 
ENDBRANCH   3   4
BRANCH   3  14
ATOM     14  C   UNL     1       0.223  11.747  19.322  0.00  0.00    +0.000 A 
ATOM     15  C   UNL     1      -1.045  11.399  18.837  0.00  0.00    +0.000 A 
ATOM     16  C   UNL     1      -1.204  10.315  17.971  0.00  0.00    +0.000 A 
ATOM     17  C   UNL     1      -0.101   9.542  17.617  0.00  0.00    +0.000 A 
ATOM     18  C   UNL     1       1.163   9.868  18.106  0.00  0.00    +0.000 A 
ATOM     19  C   UNL     1       1.331  10.981  18.935  0.00  0.00    +0.000 A 
ENDBRANCH   3  14
BRANCH   2  20
ATOM     20  C   UNL     1      -0.175  13.860  22.463  0.00  0.00    +0.000 C 
BRANCH  20  21
ATOM     21  N   UNL     1      -1.208  13.489  23.449  0.00  0.00    +0.000 NA
ATOM     22  C   UNL     1      -1.934  14.642  24.024  0.00  0.00    +0.000 C 
ATOM     23  C   UNL     1      -3.151  15.203  23.251  0.00  0.00    +0.000 C 
ATOM     24  N   UNL     1      -4.026  14.140  22.764  0.00  0.00    +0.000 N 
ATOM     25  C   UNL     1      -5.304  13.978  23.277  0.00  0.00    +0.000 A 
ATOM     26  C   UNL     1      -6.126  15.090  23.488  0.00  0.00    +0.000 A 
ATOM     27  C   UNL     1      -7.439  14.929  23.942  0.00  0.00    +0.000 A 
ATOM     28  C   UNL     1      -7.916  13.657  24.186  0.00  0.00    +0.000 A 
ATOM     29  C   UNL     1      -7.054  12.601  23.960  0.00  0.00    +0.000 A 
ATOM     30  N   UNL     1      -5.779  12.735  23.509  0.00  0.00    +0.000 NA
ATOM     31  C   UNL     1      -3.353  13.016  22.112  0.00  0.00    +0.000 C 
ATOM     32  C   UNL     1      -2.162  12.485  22.939  0.00  0.00    +0.000 C 
ENDBRANCH  20  21
ENDBRANCH   2  20
TORSDOF 4
ENDMDL
MODEL 5
REMARK VINA RESULT:      -8.7      3.922      7.540
REMARK  Name = 
REMARK  4 active torsions:
REMARK  status: ('A' for Active; 'I' for Inactive)
REMARK    1  A    between atoms: C_2  and  C_3
REMARK    2  A    between atoms: C_3  and  N_4
REMARK    3  A    between atoms: N_16  and  C_17
REMARK    4  A    between atoms: N_16  and  C_23
REMARK                            x       y       z     vdW  Elec       q    Type
REMARK                         _______ _______ _______ _____ _____    ______ ____
ROOT
ATOM      1  O   UNL     1       0.328  10.400  22.892  0.00  0.00    +0.000 OA
ATOM      2  C   UNL     1      -0.145  10.375  21.748  0.00  0.00    +0.000 C 
ATOM      3  N   UNL     1      -0.774  11.474  21.153  0.00  0.00    +0.000 N 
ENDROOT
BRANCH   3   4
ATOM      4  C   UNL     1      -1.719  11.388  20.095  0.00  0.00    +0.000 A 
ATOM      5  C   UNL     1      -2.920  12.099  20.155  0.00  0.00    +0.000 A 
ATOM      6  C   UNL     1      -3.761  12.141  19.041  0.00  0.00    +0.000 A 
ATOM      7  C   UNL     1      -3.445  11.439  17.862  0.00  0.00    +0.000 A 
ATOM      8  C   UNL     1      -4.248  11.520  16.712  0.00  0.00    +0.000 A 
ATOM      9  C   UNL     1      -3.934  10.792  15.563  0.00  0.00    +0.000 A 
ATOM     10  C   UNL     1      -2.828   9.948  15.558  0.00  0.00    +0.000 A 
ATOM     11  C   UNL     1      -2.005   9.874  16.683  0.00  0.00    +0.000 A 
ATOM     12  C   UNL     1      -2.280  10.641  17.831  0.00  0.00    +0.000 A 
ATOM     13  C   UNL     1      -1.415  10.649  18.940  0.00  0.00    +0.000 A 
ENDBRANCH   3   4
BRANCH   3  14
ATOM     14  C   UNL     1      -0.553  12.781  21.684  0.00  0.00    +0.000 A 
ATOM     15  C   UNL     1       0.341  13.651  21.045  0.00  0.00    +0.000 A 
ATOM     16  C   UNL     1       0.580  14.928  21.556  0.00  0.00    +0.000 A 
ATOM     17  C   UNL     1      -0.039  15.331  22.736  0.00  0.00    +0.000 A 
ATOM     18  C   UNL     1      -0.917  14.469  23.391  0.00  0.00    +0.000 A 
ATOM     19  C   UNL     1      -1.194  13.208  22.856  0.00  0.00    +0.000 A 
ENDBRANCH   3  14
BRANCH   2  20
ATOM     20  C   UNL     1       0.048   9.107  20.894  0.00  0.00    +0.000 C 
BRANCH  20  21
ATOM     21  N   UNL     1       1.482   8.878  20.626  0.00  0.00    +0.000 NA
ATOM     22  C   UNL     1       1.943   7.510  20.947  0.00  0.00    +0.000 C 
ATOM     23  C   UNL     1       1.767   6.407  19.878  0.00  0.00    +0.000 C 
ATOM     24  N   UNL     1       2.163   6.865  18.549  0.00  0.00    +0.000 N 
ATOM     25  C   UNL     1       3.276   6.336  17.914  0.00  0.00    +0.000 A 
ATOM     26  C   UNL     1       3.511   4.956  17.933  0.00  0.00    +0.000 A 
ATOM     27  C   UNL     1       4.594   4.408  17.239  0.00  0.00    +0.000 A 
ATOM     28  C   UNL     1       5.437   5.245  16.537  0.00  0.00    +0.000 A 
ATOM     29  C   UNL     1       5.153   6.597  16.560  0.00  0.00    +0.000 A 
ATOM     30  N   UNL     1       4.100   7.149  17.217  0.00  0.00    +0.000 NA
ATOM     31  C   UNL     1       1.657   8.181  18.158  0.00  0.00    +0.000 C 
ATOM     32  C   UNL     1       1.880   9.246  19.254  0.00  0.00    +0.000 C 
ENDBRANCH  20  21
ENDBRANCH   2  20
TORSDOF 4
ENDMDL
MODEL 6
REMARK VINA RESULT:      -8.7      5.303      9.524
REMARK  Name = 
REMARK  4 active torsions:
REMARK  status: ('A' for Active; 'I' for Inactive)
REMARK    1  A    between atoms: C_2  and  C_3
REMARK    2  A    between atoms: C_3  and  N_4
REMARK    3  A    between atoms: N_16  and  C_17
REMARK    4  A    between atoms: N_16  and  C_23
REMARK                            x       y       z     vdW  Elec       q    Type
REMARK                         _______ _______ _______ _____ _____    ______ ____
ROOT
ATOM      1  O   UNL     1       0.759  13.692  21.772  0.00  0.00    +0.000 OA
ATOM      2  C   UNL     1      -0.227  13.045  21.395  0.00  0.00    +0.000 C 
ATOM      3  N   UNL     1      -1.331  13.628  20.762  0.00  0.00    +0.000 N 
ENDROOT
BRANCH   3   4
ATOM      4  C   UNL     1      -2.636  13.067  20.739  0.00  0.00    +0.000 A 
ATOM      5  C   UNL     1      -3.436  13.080  21.883  0.00  0.00    +0.000 A 
ATOM      6  C   UNL     1      -4.773  12.682  21.804  0.00  0.00    +0.000 A 
ATOM      7  C   UNL     1      -5.326  12.221  20.593  0.00  0.00    +0.000 A 
ATOM      8  C   UNL     1      -6.683  11.876  20.482  0.00  0.00    +0.000 A 
ATOM      9  C   UNL     1      -7.205  11.391  19.281  0.00  0.00    +0.000 A 
ATOM     10  C   UNL     1      -6.369  11.217  18.182  0.00  0.00    +0.000 A 
ATOM     11  C   UNL     1      -5.024  11.579  18.268  0.00  0.00    +0.000 A 
ATOM     12  C   UNL     1      -4.494  12.116  19.457  0.00  0.00    +0.000 A 
ATOM     13  C   UNL     1      -3.166  12.569  19.536  0.00  0.00    +0.000 A 
ENDBRANCH   3   4
BRANCH   3  14
ATOM     14  C   UNL     1      -1.200  14.923  20.175  0.00  0.00    +0.000 A 
ATOM     15  C   UNL     1      -1.901  16.008  20.718  0.00  0.00    +0.000 A 
ATOM     16  C   UNL     1      -1.797  17.280  20.151  0.00  0.00    +0.000 A 
ATOM     17  C   UNL     1      -1.024  17.469  19.008  0.00  0.00    +0.000 A 
ATOM     18  C   UNL     1      -0.336  16.394  18.448  0.00  0.00    +0.000 A 
ATOM     19  C   UNL     1      -0.401  15.131  19.042  0.00  0.00    +0.000 A 
ENDBRANCH   3  14
BRANCH   2  20
ATOM     20  C   UNL     1      -0.207  11.512  21.538  0.00  0.00    +0.000 C 
BRANCH  20  21
ATOM     21  N   UNL     1       1.129  10.979  21.207  0.00  0.00    +0.000 NA
ATOM     22  C   UNL     1       1.432   9.676  21.837  0.00  0.00    +0.000 C 
ATOM     23  C   UNL     1       0.957   8.388  21.124  0.00  0.00    +0.000 C 
ATOM     24  N   UNL     1       1.229   8.425  19.689  0.00  0.00    +0.000 N 
ATOM     25  C   UNL     1       2.158   7.571  19.117  0.00  0.00    +0.000 A 
ATOM     26  C   UNL     1       2.195   6.221  19.483  0.00  0.00    +0.000 A 
ATOM     27  C   UNL     1       3.084   5.338  18.861  0.00  0.00    +0.000 A 
ATOM     28  C   UNL     1       3.934   5.816  17.884  0.00  0.00    +0.000 A 
ATOM     29  C   UNL     1       3.849   7.159  17.570  0.00  0.00    +0.000 A 
ATOM     30  N   UNL     1       2.985   8.030  18.153  0.00  0.00    +0.000 NA
ATOM     31  C   UNL     1       0.865   9.669  19.010  0.00  0.00    +0.000 C 
ATOM     32  C   UNL     1       1.384  10.919  19.755  0.00  0.00    +0.000 C 
ENDBRANCH  20  21
ENDBRANCH   2  20
TORSDOF 4
ENDMDL
MODEL 7
REMARK VINA RESULT:      -8.6      3.947      7.771
REMARK  Name = 
REMARK  4 active torsions:
REMARK  status: ('A' for Active; 'I' for Inactive)
REMARK    1  A    between atoms: C_2  and  C_3
REMARK    2  A    between atoms: C_3  and  N_4
REMARK    3  A    between atoms: N_16  and  C_17
REMARK    4  A    between atoms: N_16  and  C_23
REMARK                            x       y       z     vdW  Elec       q    Type
REMARK                         _______ _______ _______ _____ _____    ______ ____
ROOT
ATOM      1  O   UNL     1       0.281  10.325  23.131  0.00  0.00    +0.000 OA
ATOM      2  C   UNL     1       0.181  10.671  21.946  0.00  0.00    +0.000 C 
ATOM      3  N   UNL     1      -0.779  11.580  21.490  0.00  0.00    +0.000 N 
ENDROOT
BRANCH   3   4
ATOM      4  C   UNL     1      -1.249  11.655  20.151  0.00  0.00    +0.000 A 
ATOM      5  C   UNL     1      -0.851  12.701  19.315  0.00  0.00    +0.000 A 
ATOM      6  C   UNL     1      -1.180  12.672  17.958  0.00  0.00    +0.000 A 
ATOM      7  C   UNL     1      -1.952  11.625  17.417  0.00  0.00    +0.000 A 
ATOM      8  C   UNL     1      -2.240  11.550  16.044  0.00  0.00    +0.000 A 
ATOM      9  C   UNL     1      -3.032  10.520  15.531  0.00  0.00    +0.000 A 
ATOM     10  C   UNL     1      -3.572   9.568  16.391  0.00  0.00    +0.000 A 
ATOM     11  C   UNL     1      -3.275   9.614  17.754  0.00  0.00    +0.000 A 
ATOM     12  C   UNL     1      -2.437  10.616  18.278  0.00  0.00    +0.000 A 
ATOM     13  C   UNL     1      -2.054  10.628  19.631  0.00  0.00    +0.000 A 
ENDBRANCH   3   4
BRANCH   3  14
ATOM     14  C   UNL     1      -1.429  12.442  22.425  0.00  0.00    +0.000 A 
ATOM     15  C   UNL     1      -0.777  13.597  22.878  0.00  0.00    +0.000 A 
ATOM     16  C   UNL     1      -1.390  14.445  23.802  0.00  0.00    +0.000 A 
ATOM     17  C   UNL     1      -2.644  14.123  24.316  0.00  0.00    +0.000 A 
ATOM     18  C   UNL     1      -3.295  12.968  23.887  0.00  0.00    +0.000 A 
ATOM     19  C   UNL     1      -2.704  12.142  22.926  0.00  0.00    +0.000 A 
ENDBRANCH   3  14
BRANCH   2  20
ATOM     20  C   UNL     1       1.220  10.154  20.933  0.00  0.00    +0.000 C 
BRANCH  20  21
ATOM     21  N   UNL     1       0.656   9.050  20.131  0.00  0.00    +0.000 NA
ATOM     22  C   UNL     1       1.279   8.893  18.800  0.00  0.00    +0.000 C 
ATOM     23  C   UNL     1       2.572   8.051  18.690  0.00  0.00    +0.000 C 
ATOM     24  N   UNL     1       2.479   6.805  19.447  0.00  0.00    +0.000 N 
ATOM     25  C   UNL     1       2.450   5.579  18.801  0.00  0.00    +0.000 A 
ATOM     26  C   UNL     1       3.321   5.320  17.737  0.00  0.00    +0.000 A 
ATOM     27  C   UNL     1       3.345   4.063  17.125  0.00  0.00    +0.000 A 
ATOM     28  C   UNL     1       2.492   3.077  17.579  0.00  0.00    +0.000 A 
ATOM     29  C   UNL     1       1.656   3.396  18.632  0.00  0.00    +0.000 A 
ATOM     30  N   UNL     1       1.625   4.607  19.248  0.00  0.00    +0.000 NA
ATOM     31  C   UNL     1       1.945   6.929  20.803  0.00  0.00    +0.000 C 
ATOM     32  C   UNL     1       0.644   7.761  20.848  0.00  0.00    +0.000 C 
ENDBRANCH  20  21
ENDBRANCH   2  20
TORSDOF 4
ENDMDL
MODEL 8
REMARK VINA RESULT:      -8.6      8.465     10.268
REMARK  Name = 
REMARK  4 active torsions:
REMARK  status: ('A' for Active; 'I' for Inactive)
REMARK    1  A    between atoms: C_2  and  C_3
REMARK    2  A    between atoms: C_3  and  N_4
REMARK    3  A    between atoms: N_16  and  C_17
REMARK    4  A    between atoms: N_16  and  C_23
REMARK                            x       y       z     vdW  Elec       q    Type
REMARK                         _______ _______ _______ _____ _____    ______ ____
ROOT
ATOM      1  O   UNL     1      -0.044  14.771  22.925  0.00  0.00    +0.000 OA
ATOM      2  C   UNL     1      -0.296  14.378  21.778  0.00  0.00    +0.000 C 
ATOM      3  N   UNL     1      -1.347  13.504  21.480  0.00  0.00    +0.000 N 
ENDROOT
BRANCH   3   4
ATOM      4  C   UNL     1      -1.401  12.669  20.331  0.00  0.00    +0.000 A 
ATOM      5  C   UNL     1      -0.335  11.824  20.015  0.00  0.00    +0.000 A 
ATOM      6  C   UNL     1      -0.468  10.889  18.986  0.00  0.00    +0.000 A 
ATOM      7  C   UNL     1      -1.649  10.809  18.222  0.00  0.00    +0.000 A 
ATOM      8  C   UNL     1      -1.822   9.835  17.224  0.00  0.00    +0.000 A 
ATOM      9  C   UNL     1      -2.988   9.792  16.456  0.00  0.00    +0.000 A 
ATOM     10  C   UNL     1      -3.984  10.742  16.656  0.00  0.00    +0.000 A 
ATOM     11  C   UNL     1      -3.839  11.702  17.659  0.00  0.00    +0.000 A 
ATOM     12  C   UNL     1      -2.692  11.727  18.475  0.00  0.00    +0.000 A 
ATOM     13  C   UNL     1      -2.567  12.627  19.548  0.00  0.00    +0.000 A 
ENDBRANCH   3   4
BRANCH   3  14
ATOM     14  C   UNL     1      -2.409  13.337  22.420  0.00  0.00    +0.000 A 
ATOM     15  C   UNL     1      -2.480  12.167  23.188  0.00  0.00    +0.000 A 
ATOM     16  C   UNL     1      -3.518  11.978  24.104  0.00  0.00    +0.000 A 
ATOM     17  C   UNL     1      -4.518  12.939  24.228  0.00  0.00    +0.000 A 
ATOM     18  C   UNL     1      -4.467  14.100  23.457  0.00  0.00    +0.000 A 
ATOM     19  C   UNL     1      -3.404  14.311  22.574  0.00  0.00    +0.000 A 
ENDBRANCH   3  14
BRANCH   2  20
ATOM     20  C   UNL     1       0.522  14.948  20.603  0.00  0.00    +0.000 C 
BRANCH  20  21
ATOM     21  N   UNL     1       1.934  15.128  20.995  0.00  0.00    +0.000 NA
ATOM     22  C   UNL     1       2.825  14.032  20.557  0.00  0.00    +0.000 C 
ATOM     23  C   UNL     1       3.417  14.095  19.129  0.00  0.00    +0.000 C 
ATOM     24  N   UNL     1       3.918  15.427  18.803  0.00  0.00    +0.000 N 
ATOM     25  C   UNL     1       5.274  15.656  18.629  0.00  0.00    +0.000 A 
ATOM     26  C   UNL     1       6.052  14.760  17.889  0.00  0.00    +0.000 A 
ATOM     27  C   UNL     1       7.406  15.018  17.651  0.00  0.00    +0.000 A 
ATOM     28  C   UNL     1       7.971  16.169  18.162  0.00  0.00    +0.000 A 
ATOM     29  C   UNL     1       7.150  17.013  18.885  0.00  0.00    +0.000 A 
ATOM     30  N   UNL     1       5.830  16.786  19.117  0.00  0.00    +0.000 NA
ATOM     31  C   UNL     1       3.028  16.538  19.145  0.00  0.00    +0.000 C 
ATOM     32  C   UNL     1       2.486  16.433  20.587  0.00  0.00    +0.000 C 
ENDBRANCH  20  21
ENDBRANCH   2  20
TORSDOF 4
ENDMDL
MODEL 9
REMARK VINA RESULT:      -8.6      3.587      6.487
REMARK  Name = 
REMARK  4 active torsions:
REMARK  status: ('A' for Active; 'I' for Inactive)
REMARK    1  A    between atoms: C_2  and  C_3
REMARK    2  A    between atoms: C_3  and  N_4
REMARK    3  A    between atoms: N_16  and  C_17
REMARK    4  A    between atoms: N_16  and  C_23
REMARK                            x       y       z     vdW  Elec       q    Type
REMARK                         _______ _______ _______ _____ _____    ______ ____
ROOT
ATOM      1  O   UNL     1      -0.687   8.635  20.856  0.00  0.00    +0.000 OA
ATOM      2  C   UNL     1       0.297   9.359  20.656  0.00  0.00    +0.000 C 
ATOM      3  N   UNL     1       0.247  10.756  20.716  0.00  0.00    +0.000 N 
ENDROOT
BRANCH   3   4
ATOM      4  C   UNL     1       1.159  11.625  20.059  0.00  0.00    +0.000 A 
ATOM      5  C   UNL     1       1.342  11.552  18.676  0.00  0.00    +0.000 A 
ATOM      6  C   UNL     1       2.109  12.519  18.022  0.00  0.00    +0.000 A 
ATOM      7  C   UNL     1       2.747  13.550  18.738  0.00  0.00    +0.000 A 
ATOM      8  C   UNL     1       3.471  14.564  18.090  0.00  0.00    +0.000 A 
ATOM      9  C   UNL     1       4.122  15.561  18.819  0.00  0.00    +0.000 A 
ATOM     10  C   UNL     1       4.083  15.539  20.210  0.00  0.00    +0.000 A 
ATOM     11  C   UNL     1       3.348  14.553  20.869  0.00  0.00    +0.000 A 
ATOM     12  C   UNL     1       2.644  13.571  20.146  0.00  0.00    +0.000 A 
ATOM     13  C   UNL     1       1.826  12.625  20.787  0.00  0.00    +0.000 A 
ENDBRANCH   3   4
BRANCH   3  14
ATOM     14  C   UNL     1      -0.840  11.391  21.390  0.00  0.00    +0.000 A 
ATOM     15  C   UNL     1      -0.989  11.233  22.774  0.00  0.00    +0.000 A 
ATOM     16  C   UNL     1      -2.052  11.834  23.450  0.00  0.00    +0.000 A 
ATOM     17  C   UNL     1      -3.003  12.563  22.740  0.00  0.00    +0.000 A 
ATOM     18  C   UNL     1      -2.876  12.713  21.360  0.00  0.00    +0.000 A 
ATOM     19  C   UNL     1      -1.786  12.152  20.689  0.00  0.00    +0.000 A 
ENDBRANCH   3  14
BRANCH   2  20
ATOM     20  C   UNL     1       1.669   8.698  20.423  0.00  0.00    +0.000 C 
BRANCH  20  21
ATOM     21  N   UNL     1       1.564   7.635  19.403  0.00  0.00    +0.000 NA
ATOM     22  C   UNL     1       1.932   8.071  18.039  0.00  0.00    +0.000 C 
ATOM     23  C   UNL     1       3.425   8.040  17.636  0.00  0.00    +0.000 C 
ATOM     24  N   UNL     1       4.079   6.803  18.054  0.00  0.00    +0.000 N 
ATOM     25  C   UNL     1       4.521   5.879  17.121  0.00  0.00    +0.000 A 
ATOM     26  C   UNL     1       5.199   6.305  15.973  0.00  0.00    +0.000 A 
ATOM     27  C   UNL     1       5.708   5.376  15.060  0.00  0.00    +0.000 A 
ATOM     28  C   UNL     1       5.529   4.028  15.300  0.00  0.00    +0.000 A 
ATOM     29  C   UNL     1       4.850   3.673  16.450  0.00  0.00    +0.000 A 
ATOM     30  N   UNL     1       4.358   4.559  17.355  0.00  0.00    +0.000 NA
ATOM     31  C   UNL     1       3.808   6.379  19.429  0.00  0.00    +0.000 C 
ATOM     32  C   UNL     1       2.301   6.410  19.767  0.00  0.00    +0.000 C 
ENDBRANCH  20  21
ENDBRANCH   2  20
TORSDOF 4
ENDMDL
