MODEL 1
REMARK VINA RESULT:      -7.9      0.000      0.000
REMARK  Name = 
REMARK  11 active torsions:
REMARK  status: ('A' for Active; 'I' for Inactive)
REMARK    1  A    between atoms: C_1  and  C_2
REMARK    2  A    between atoms: C_2  and  O_3
REMARK    3  A    between atoms: O_3  and  C_4
REMARK    4  A    between atoms: C_4  and  C_5
REMARK    5  A    between atoms: C_5  and  N_6
REMARK    6  A    between atoms: C_8  and  C_9
REMARK    7  A    between atoms: N_11  and  C_12
REMARK    8  A    between atoms: C_12  and  C_13
REMARK    9  A    between atoms: C_13  and  C_14
REMARK   10  A    between atoms: C_26  and  O_27
REMARK   11  A    between atoms: O_27  and  C_28
REMARK                            x       y       z     vdW  Elec       q    Type
REMARK                         _______ _______ _______ _____ _____    ______ ____
ROOT
ATOM      1  N   UNL     1       3.519   5.706  18.071  0.00  0.00    +0.000 N 
ATOM      2  C   UNL     1       2.989   6.988  17.919  0.00  0.00    +0.000 A 
ATOM      3  C   UNL     1       2.231   7.669  18.789  0.00  0.00    +0.000 A 
ATOM      4  C   UNL     1       1.910   6.971  20.046  0.00  0.00    +0.000 A 
ATOM      5  O   UNL     1       1.321   7.544  20.961  0.00  0.00    +0.000 OA
ATOM      6  C   UNL     1       2.295   5.542  20.168  0.00  0.00    +0.000 A 
ATOM      7  C   UNL     1       1.788   4.845  21.277  0.00  0.00    +0.000 A 
ATOM      8  C   UNL     1       2.092   3.507  21.447  0.00  0.00    +0.000 A 
ATOM      9  C   UNL     1       2.940   2.877  20.542  0.00  0.00    +0.000 A 
ATOM     10  C   UNL     1       3.485   3.568  19.441  0.00  0.00    +0.000 A 
ATOM     11  C   UNL     1       3.130   4.926  19.196  0.00  0.00    +0.000 A 
ENDROOT
BRANCH   3  12
ATOM     12  C   UNL     1       1.768   9.042  18.434  0.00  0.00    +0.000 C 
ATOM     13  O   UNL     1       2.271   9.674  17.507  0.00  0.00    +0.000 OA
ATOM     14  N   UNL     1       0.751   9.554  19.207  0.00  0.00    +0.000 N 
ATOM     15  H   UNL     1       0.403   8.993  19.987  0.00  0.00    +0.000 HD
BRANCH  14  16
ATOM     16  C   UNL     1       0.229  10.885  18.965  0.00  0.00    +0.000 C 
BRANCH  16  17
ATOM     17  C   UNL     1      -1.242  11.053  19.350  0.00  0.00    +0.000 C 
BRANCH  17  18
ATOM     18  C   UNL     1      -2.141  10.936  18.140  0.00  0.00    +0.000 A 
ATOM     19  C   UNL     1      -3.343  11.652  18.065  0.00  0.00    +0.000 A 
ATOM     20  C   UNL     1      -4.196  11.497  16.969  0.00  0.00    +0.000 A 
ATOM     21  C   UNL     1      -3.857  10.626  15.936  0.00  0.00    +0.000 A 
ATOM     22  C   UNL     1      -2.665   9.911  15.997  0.00  0.00    +0.000 A 
ATOM     23  C   UNL     1      -1.810  10.061  17.092  0.00  0.00    +0.000 A 
ENDBRANCH  17  18
ENDBRANCH  16  17
ENDBRANCH  14  16
ENDBRANCH   3  12
BRANCH  10  24
ATOM     24  O   UNL     1       4.367   2.955  18.584  0.00  0.00    +0.000 OA
ATOM     25  C   UNL     1       4.009   1.711  17.995  0.00  0.00    +0.000 C 
ENDBRANCH  10  24
BRANCH   1  26
ATOM     26  C   UNL     1       4.292   5.124  16.945  0.00  0.00    +0.000 C 
BRANCH  26  27
ATOM     27  C   UNL     1       5.694   5.736  16.808  0.00  0.00    +0.000 C 
BRANCH  27  28
ATOM     28  O   UNL     1       6.247   6.002  18.102  0.00  0.00    +0.000 OA
BRANCH  28  30
ATOM     29  C   UNL     1       7.695   7.819  17.563  0.00  0.00    +0.000 C 
ATOM     30  C   UNL     1       7.619   6.379  18.028  0.00  0.00    +0.000 C 
ENDBRANCH  28  30
ENDBRANCH  27  28
ENDBRANCH  26  27
ENDBRANCH   1  26
TORSDOF 9
ENDMDL
MODEL 2
REMARK VINA RESULT:      -7.8      1.028      1.476
REMARK  Name = 
REMARK  11 active torsions:
REMARK  status: ('A' for Active; 'I' for Inactive)
REMARK    1  A    between atoms: C_1  and  C_2
REMARK    2  A    between atoms: C_2  and  O_3
REMARK    3  A    between atoms: O_3  and  C_4
REMARK    4  A    between atoms: C_4  and  C_5
REMARK    5  A    between atoms: C_5  and  N_6
REMARK    6  A    between atoms: C_8  and  C_9
REMARK    7  A    between atoms: N_11  and  C_12
REMARK    8  A    between atoms: C_12  and  C_13
REMARK    9  A    between atoms: C_13  and  C_14
REMARK   10  A    between atoms: C_26  and  O_27
REMARK   11  A    between atoms: O_27  and  C_28
REMARK                            x       y       z     vdW  Elec       q    Type
REMARK                         _______ _______ _______ _____ _____    ______ ____
ROOT
ATOM      1  N   UNL     1       3.606   5.755  18.064  0.00  0.00    +0.000 N 
ATOM      2  C   UNL     1       3.073   7.038  17.930  0.00  0.00    +0.000 A 
ATOM      3  C   UNL     1       2.291   7.694  18.798  0.00  0.00    +0.000 A 
ATOM      4  C   UNL     1       1.945   6.964  20.031  0.00  0.00    +0.000 A 
ATOM      5  O   UNL     1       1.331   7.511  20.945  0.00  0.00    +0.000 OA
ATOM      6  C   UNL     1       2.334   5.534  20.127  0.00  0.00    +0.000 A 
ATOM      7  C   UNL     1       1.806   4.808  21.207  0.00  0.00    +0.000 A 
ATOM      8  C   UNL     1       2.114   3.468  21.352  0.00  0.00    +0.000 A 
ATOM      9  C   UNL     1       2.986   2.865  20.453  0.00  0.00    +0.000 A 
ATOM     10  C   UNL     1       3.553   3.585  19.381  0.00  0.00    +0.000 A 
ATOM     11  C   UNL     1       3.196   4.946  19.160  0.00  0.00    +0.000 A 
ENDROOT
BRANCH   3  12
ATOM     12  C   UNL     1       1.828   9.072  18.466  0.00  0.00    +0.000 C 
ATOM     13  O   UNL     1       2.209   9.655  17.453  0.00  0.00    +0.000 OA
ATOM     14  N   UNL     1       0.954   9.647  19.360  0.00  0.00    +0.000 N 
ATOM     15  H   UNL     1       0.706   9.125  20.202  0.00  0.00    +0.000 HD
BRANCH  14  16
ATOM     16  C   UNL     1       0.449  10.990  19.149  0.00  0.00    +0.000 C 
BRANCH  16  17
ATOM     17  C   UNL     1      -1.007  11.179  19.581  0.00  0.00    +0.000 C 
BRANCH  17  18
ATOM     18  C   UNL     1      -1.952  10.999  18.414  0.00  0.00    +0.000 A 
ATOM     19  C   UNL     1      -3.194  11.645  18.389  0.00  0.00    +0.000 A 
ATOM     20  C   UNL     1      -4.086  11.431  17.335  0.00  0.00    +0.000 A 
ATOM     21  C   UNL     1      -3.745  10.571  16.293  0.00  0.00    +0.000 A 
ATOM     22  C   UNL     1      -2.512   9.925  16.304  0.00  0.00    +0.000 A 
ATOM     23  C   UNL     1      -1.619  10.135  17.358  0.00  0.00    +0.000 A 
ENDBRANCH  17  18
ENDBRANCH  16  17
ENDBRANCH  14  16
ENDBRANCH   3  12
BRANCH  10  24
ATOM     24  O   UNL     1       4.459   2.997  18.531  0.00  0.00    +0.000 OA
ATOM     25  C   UNL     1       4.126   1.760  17.913  0.00  0.00    +0.000 C 
ENDBRANCH  10  24
BRANCH   1  26
ATOM     26  C   UNL     1       4.409   5.204  16.942  0.00  0.00    +0.000 C 
BRANCH  26  27
ATOM     27  C   UNL     1       5.343   6.248  16.313  0.00  0.00    +0.000 C 
BRANCH  27  28
ATOM     28  O   UNL     1       5.923   5.732  15.109  0.00  0.00    +0.000 OA
BRANCH  28  30
ATOM     29  C   UNL     1       6.212   3.897  13.614  0.00  0.00    +0.000 C 
ATOM     30  C   UNL     1       5.433   4.431  14.798  0.00  0.00    +0.000 C 
ENDBRANCH  28  30
ENDBRANCH  27  28
ENDBRANCH  26  27
ENDBRANCH   1  26
TORSDOF 9
ENDMDL
MODEL 3
REMARK VINA RESULT:      -7.8      0.570      1.082
REMARK  Name = 
REMARK  11 active torsions:
REMARK  status: ('A' for Active; 'I' for Inactive)
REMARK    1  A    between atoms: C_1  and  C_2
REMARK    2  A    between atoms: C_2  and  O_3
REMARK    3  A    between atoms: O_3  and  C_4
REMARK    4  A    between atoms: C_4  and  C_5
REMARK    5  A    between atoms: C_5  and  N_6
REMARK    6  A    between atoms: C_8  and  C_9
REMARK    7  A    between atoms: N_11  and  C_12
REMARK    8  A    between atoms: C_12  and  C_13
REMARK    9  A    between atoms: C_13  and  C_14
REMARK   10  A    between atoms: C_26  and  O_27
REMARK   11  A    between atoms: O_27  and  C_28
REMARK                            x       y       z     vdW  Elec       q    Type
REMARK                         _______ _______ _______ _____ _____    ______ ____
ROOT
ATOM      1  N   UNL     1       3.650   5.649  18.016  0.00  0.00    +0.000 N 
ATOM      2  C   UNL     1       3.128   6.932  17.839  0.00  0.00    +0.000 A 
ATOM      3  C   UNL     1       2.360   7.628  18.687  0.00  0.00    +0.000 A 
ATOM      4  C   UNL     1       2.016   6.948  19.948  0.00  0.00    +0.000 A 
ATOM      5  O   UNL     1       1.415   7.535  20.847  0.00  0.00    +0.000 OA
ATOM      6  C   UNL     1       2.392   5.519  20.096  0.00  0.00    +0.000 A 
ATOM      7  C   UNL     1       1.864   4.839  21.205  0.00  0.00    +0.000 A 
ATOM      8  C   UNL     1       2.159   3.502  21.398  0.00  0.00    +0.000 A 
ATOM      9  C   UNL     1       3.018   2.856  20.515  0.00  0.00    +0.000 A 
ATOM     10  C   UNL     1       3.584   3.530  19.413  0.00  0.00    +0.000 A 
ATOM     11  C   UNL     1       3.239   4.886  19.145  0.00  0.00    +0.000 A 
ENDROOT
BRANCH   3  12
ATOM     12  C   UNL     1       1.909   8.998  18.307  0.00  0.00    +0.000 C 
ATOM     13  O   UNL     1       2.481   9.648  17.434  0.00  0.00    +0.000 OA
ATOM     14  N   UNL     1       0.819   9.486  18.993  0.00  0.00    +0.000 N 
ATOM     15  H   UNL     1       0.413   8.911  19.733  0.00  0.00    +0.000 HD
BRANCH  14  16
ATOM     16  C   UNL     1       0.301  10.812  18.719  0.00  0.00    +0.000 C 
BRANCH  16  17
ATOM     17  C   UNL     1      -1.133  11.029  19.207  0.00  0.00    +0.000 C 
BRANCH  17  18
ATOM     18  C   UNL     1      -2.125  10.870  18.077  0.00  0.00    +0.000 A 
ATOM     19  C   UNL     1      -1.867   9.999  17.011  0.00  0.00    +0.000 A 
ATOM     20  C   UNL     1      -2.762   9.898  15.943  0.00  0.00    +0.000 A 
ATOM     21  C   UNL     1      -3.925  10.664  15.929  0.00  0.00    +0.000 A 
ATOM     22  C   UNL     1      -4.194  11.532  16.983  0.00  0.00    +0.000 A 
ATOM     23  C   UNL     1      -3.301  11.638  18.052  0.00  0.00    +0.000 A 
ENDBRANCH  17  18
ENDBRANCH  16  17
ENDBRANCH  14  16
ENDBRANCH   3  12
BRANCH  10  24
ATOM     24  O   UNL     1       4.477   2.902  18.579  0.00  0.00    +0.000 OA
ATOM     25  C   UNL     1       4.138   1.633  18.031  0.00  0.00    +0.000 C 
ENDBRANCH  10  24
BRANCH   1  26
ATOM     26  C   UNL     1       4.437   5.048  16.910  0.00  0.00    +0.000 C 
BRANCH  26  27
ATOM     27  C   UNL     1       5.157   6.102  16.054  0.00  0.00    +0.000 C 
BRANCH  27  28
ATOM     28  O   UNL     1       6.394   6.479  16.671  0.00  0.00    +0.000 OA
BRANCH  28  30
ATOM     29  C   UNL     1       7.706   5.819  18.549  0.00  0.00    +0.000 C 
ATOM     30  C   UNL     1       7.058   5.364  17.258  0.00  0.00    +0.000 C 
ENDBRANCH  28  30
ENDBRANCH  27  28
ENDBRANCH  26  27
ENDBRANCH   1  26
TORSDOF 9
ENDMDL
MODEL 4
REMARK VINA RESULT:      -7.5      2.341      8.383
REMARK  Name = 
REMARK  11 active torsions:
REMARK  status: ('A' for Active; 'I' for Inactive)
REMARK    1  A    between atoms: C_1  and  C_2
REMARK    2  A    between atoms: C_2  and  O_3
REMARK    3  A    between atoms: O_3  and  C_4
REMARK    4  A    between atoms: C_4  and  C_5
REMARK    5  A    between atoms: C_5  and  N_6
REMARK    6  A    between atoms: C_8  and  C_9
REMARK    7  A    between atoms: N_11  and  C_12
REMARK    8  A    between atoms: C_12  and  C_13
REMARK    9  A    between atoms: C_13  and  C_14
REMARK   10  A    between atoms: C_26  and  O_27
REMARK   11  A    between atoms: O_27  and  C_28
REMARK                            x       y       z     vdW  Elec       q    Type
REMARK                         _______ _______ _______ _____ _____    ______ ____
ROOT
ATOM      1  N   UNL     1      -0.466  10.884  18.972  0.00  0.00    +0.000 N 
ATOM      2  C   UNL     1       0.487  10.040  18.397  0.00  0.00    +0.000 A 
ATOM      3  C   UNL     1       1.177   9.059  18.993  0.00  0.00    +0.000 A 
ATOM      4  C   UNL     1       0.906   8.863  20.428  0.00  0.00    +0.000 A 
ATOM      5  O   UNL     1       1.395   7.919  21.047  0.00  0.00    +0.000 OA
ATOM      6  C   UNL     1       0.044   9.856  21.118  0.00  0.00    +0.000 A 
ATOM      7  C   UNL     1      -0.021   9.771  22.518  0.00  0.00    +0.000 A 
ATOM      8  C   UNL     1      -0.792  10.673  23.228  0.00  0.00    +0.000 A 
ATOM      9  C   UNL     1      -1.537  11.625  22.541  0.00  0.00    +0.000 A 
ATOM     10  C   UNL     1      -1.512  11.706  21.134  0.00  0.00    +0.000 A 
ATOM     11  C   UNL     1      -0.668  10.841  20.379  0.00  0.00    +0.000 A 
ENDROOT
BRANCH   3  12
ATOM     12  C   UNL     1       2.152   8.263  18.193  0.00  0.00    +0.000 C 
ATOM     13  O   UNL     1       2.731   8.739  17.219  0.00  0.00    +0.000 OA
ATOM     14  N   UNL     1       2.359   6.967  18.611  0.00  0.00    +0.000 N 
ATOM     15  H   UNL     1       1.817   6.620  19.404  0.00  0.00    +0.000 HD
BRANCH  14  16
ATOM     16  C   UNL     1       3.273   6.094  17.901  0.00  0.00    +0.000 C 
BRANCH  16  17
ATOM     17  C   UNL     1       2.743   4.672  17.705  0.00  0.00    +0.000 C 
BRANCH  17  18
ATOM     18  C   UNL     1       2.498   3.991  19.033  0.00  0.00    +0.000 A 
ATOM     19  C   UNL     1       3.551   3.400  19.743  0.00  0.00    +0.000 A 
ATOM     20  C   UNL     1       3.309   2.725  20.942  0.00  0.00    +0.000 A 
ATOM     21  C   UNL     1       2.014   2.634  21.446  0.00  0.00    +0.000 A 
ATOM     22  C   UNL     1       0.959   3.219  20.751  0.00  0.00    +0.000 A 
ATOM     23  C   UNL     1       1.196   3.894  19.551  0.00  0.00    +0.000 A 
ENDBRANCH  17  18
ENDBRANCH  16  17
ENDBRANCH  14  16
ENDBRANCH   3  12
BRANCH  10  24
ATOM     24  O   UNL     1      -2.295  12.611  20.460  0.00  0.00    +0.000 OA
ATOM     25  C   UNL     1      -2.471  13.914  21.004  0.00  0.00    +0.000 C 
ENDBRANCH  10  24
BRANCH   1  26
ATOM     26  C   UNL     1      -1.070  11.945  18.126  0.00  0.00    +0.000 C 
BRANCH  26  27
ATOM     27  C   UNL     1      -2.421  11.528  17.526  0.00  0.00    +0.000 C 
BRANCH  27  28
ATOM     28  O   UNL     1      -2.269  11.206  16.139  0.00  0.00    +0.000 OA
BRANCH  28  30
ATOM     29  C   UNL     1      -3.181   9.997  14.297  0.00  0.00    +0.000 C 
ATOM     30  C   UNL     1      -3.497  10.782  15.554  0.00  0.00    +0.000 C 
ENDBRANCH  28  30
ENDBRANCH  27  28
ENDBRANCH  26  27
ENDBRANCH   1  26
TORSDOF 9
ENDMDL
MODEL 5
REMARK VINA RESULT:      -7.4      1.958      2.650
REMARK  Name = 
REMARK  11 active torsions:
REMARK  status: ('A' for Active; 'I' for Inactive)
REMARK    1  A    between atoms: C_1  and  C_2
REMARK    2  A    between atoms: C_2  and  O_3
REMARK    3  A    between atoms: O_3  and  C_4
REMARK    4  A    between atoms: C_4  and  C_5
REMARK    5  A    between atoms: C_5  and  N_6
REMARK    6  A    between atoms: C_8  and  C_9
REMARK    7  A    between atoms: N_11  and  C_12
REMARK    8  A    between atoms: C_12  and  C_13
REMARK    9  A    between atoms: C_13  and  C_14
REMARK   10  A    between atoms: C_26  and  O_27
REMARK   11  A    between atoms: O_27  and  C_28
REMARK                            x       y       z     vdW  Elec       q    Type
REMARK                         _______ _______ _______ _____ _____    ______ ____
ROOT
ATOM      1  N   UNL     1       3.480   5.447  18.032  0.00  0.00    +0.000 N 
ATOM      2  C   UNL     1       3.028   6.757  17.862  0.00  0.00    +0.000 A 
ATOM      3  C   UNL     1       2.351   7.510  18.739  0.00  0.00    +0.000 A 
ATOM      4  C   UNL     1       2.037   6.869  20.028  0.00  0.00    +0.000 A 
ATOM      5  O   UNL     1       1.523   7.503  20.948  0.00  0.00    +0.000 OA
ATOM      6  C   UNL     1       2.333   5.421  20.178  0.00  0.00    +0.000 A 
ATOM      7  C   UNL     1       1.827   4.790  21.326  0.00  0.00    +0.000 A 
ATOM      8  C   UNL     1       2.051   3.440  21.524  0.00  0.00    +0.000 A 
ATOM      9  C   UNL     1       2.820   2.732  20.606  0.00  0.00    +0.000 A 
ATOM     10  C   UNL     1       3.364   3.355  19.464  0.00  0.00    +0.000 A 
ATOM     11  C   UNL     1       3.087   4.726  19.193  0.00  0.00    +0.000 A 
ENDROOT
BRANCH   3  12
ATOM     12  C   UNL     1       1.963   8.900  18.362  0.00  0.00    +0.000 C 
ATOM     13  O   UNL     1       2.515   9.497  17.440  0.00  0.00    +0.000 OA
ATOM     14  N   UNL     1       0.955   9.468  19.107  0.00  0.00    +0.000 N 
ATOM     15  H   UNL     1       0.564   8.933  19.884  0.00  0.00    +0.000 HD
BRANCH  14  16
ATOM     16  C   UNL     1       0.505  10.821  18.841  0.00  0.00    +0.000 C 
BRANCH  16  17
ATOM     17  C   UNL     1       0.802  11.806  19.974  0.00  0.00    +0.000 C 
BRANCH  17  18
ATOM     18  C   UNL     1      -0.314  11.818  20.994  0.00  0.00    +0.000 A 
ATOM     19  C   UNL     1      -1.402  12.691  20.860  0.00  0.00    +0.000 A 
ATOM     20  C   UNL     1      -2.402  12.737  21.835  0.00  0.00    +0.000 A 
ATOM     21  C   UNL     1      -2.327  11.910  22.954  0.00  0.00    +0.000 A 
ATOM     22  C   UNL     1      -1.253  11.037  23.099  0.00  0.00    +0.000 A 
ATOM     23  C   UNL     1      -0.250  10.990  22.127  0.00  0.00    +0.000 A 
ENDBRANCH  17  18
ENDBRANCH  16  17
ENDBRANCH  14  16
ENDBRANCH   3  12
BRANCH  10  24
ATOM     24  O   UNL     1       4.170   2.663  18.593  0.00  0.00    +0.000 OA
ATOM     25  C   UNL     1       3.830   1.324  18.251  0.00  0.00    +0.000 C 
ENDBRANCH  10  24
BRANCH   1  26
ATOM     26  C   UNL     1       4.168   4.786  16.894  0.00  0.00    +0.000 C 
BRANCH  26  27
ATOM     27  C   UNL     1       5.369   5.591  16.377  0.00  0.00    +0.000 C 
BRANCH  27  28
ATOM     28  O   UNL     1       6.560   4.798  16.436  0.00  0.00    +0.000 OA
BRANCH  28  30
ATOM     29  C   UNL     1       7.347   6.574  17.820  0.00  0.00    +0.000 C 
ATOM     30  C   UNL     1       7.326   5.074  17.605  0.00  0.00    +0.000 C 
ENDBRANCH  28  30
ENDBRANCH  27  28
ENDBRANCH  26  27
ENDBRANCH   1  26
TORSDOF 9
ENDMDL
MODEL 6
REMARK VINA RESULT:      -7.4      1.428      3.543
REMARK  Name = 
REMARK  11 active torsions:
REMARK  status: ('A' for Active; 'I' for Inactive)
REMARK    1  A    between atoms: C_1  and  C_2
REMARK    2  A    between atoms: C_2  and  O_3
REMARK    3  A    between atoms: O_3  and  C_4
REMARK    4  A    between atoms: C_4  and  C_5
REMARK    5  A    between atoms: C_5  and  N_6
REMARK    6  A    between atoms: C_8  and  C_9
REMARK    7  A    between atoms: N_11  and  C_12
REMARK    8  A    between atoms: C_12  and  C_13
REMARK    9  A    between atoms: C_13  and  C_14
REMARK   10  A    between atoms: C_26  and  O_27
REMARK   11  A    between atoms: O_27  and  C_28
REMARK                            x       y       z     vdW  Elec       q    Type
REMARK                         _______ _______ _______ _____ _____    ______ ____
ROOT
ATOM      1  N   UNL     1       2.738   5.536  20.175  0.00  0.00    +0.000 N 
ATOM      2  C   UNL     1       2.044   6.742  20.292  0.00  0.00    +0.000 A 
ATOM      3  C   UNL     1       2.028   7.765  19.426  0.00  0.00    +0.000 A 
ATOM      4  C   UNL     1       2.854   7.596  18.217  0.00  0.00    +0.000 A 
ATOM      5  O   UNL     1       2.824   8.420  17.304  0.00  0.00    +0.000 OA
ATOM      6  C   UNL     1       3.751   6.415  18.144  0.00  0.00    +0.000 A 
ATOM      7  C   UNL     1       4.681   6.393  17.092  0.00  0.00    +0.000 A 
ATOM      8  C   UNL     1       5.558   5.331  16.970  0.00  0.00    +0.000 A 
ATOM      9  C   UNL     1       5.476   4.270  17.864  0.00  0.00    +0.000 A 
ATOM     10  C   UNL     1       4.528   4.257  18.908  0.00  0.00    +0.000 A 
ATOM     11  C   UNL     1       3.662   5.371  19.106  0.00  0.00    +0.000 A 
ENDROOT
BRANCH   3  12
ATOM     12  C   UNL     1       1.210   8.972  19.738  0.00  0.00    +0.000 C 
ATOM     13  O   UNL     1       0.903   9.265  20.891  0.00  0.00    +0.000 OA
ATOM     14  N   UNL     1       0.821   9.732  18.657  0.00  0.00    +0.000 N 
ATOM     15  H   UNL     1       1.076   9.413  17.721  0.00  0.00    +0.000 HD
BRANCH  14  16
ATOM     16  C   UNL     1       0.009  10.920  18.838  0.00  0.00    +0.000 C 
BRANCH  16  17
ATOM     17  C   UNL     1      -1.458  10.624  19.159  0.00  0.00    +0.000 C 
BRANCH  17  18
ATOM     18  C   UNL     1      -2.312  10.678  17.913  0.00  0.00    +0.000 A 
ATOM     19  C   UNL     1      -3.465  11.472  17.865  0.00  0.00    +0.000 A 
ATOM     20  C   UNL     1      -4.280  11.475  16.731  0.00  0.00    +0.000 A 
ATOM     21  C   UNL     1      -3.953  10.684  15.631  0.00  0.00    +0.000 A 
ATOM     22  C   UNL     1      -2.810   9.891  15.665  0.00  0.00    +0.000 A 
ATOM     23  C   UNL     1      -1.993   9.884  16.799  0.00  0.00    +0.000 A 
ENDBRANCH  17  18
ENDBRANCH  16  17
ENDBRANCH  14  16
ENDBRANCH   3  12
BRANCH  10  24
ATOM     24  O   UNL     1       4.414   3.179  19.751  0.00  0.00    +0.000 OA
ATOM     25  C   UNL     1       4.213   1.884  19.197  0.00  0.00    +0.000 C 
ENDBRANCH  10  24
BRANCH   1  26
ATOM     26  C   UNL     1       2.650   4.561  21.292  0.00  0.00    +0.000 C 
BRANCH  26  27
ATOM     27  C   UNL     1       1.471   3.589  21.139  0.00  0.00    +0.000 C 
BRANCH  27  28
ATOM     28  O   UNL     1       0.699   3.924  19.979  0.00  0.00    +0.000 OA
BRANCH  28  30
ATOM     29  C   UNL     1       1.233   3.493  17.696  0.00  0.00    +0.000 C 
ATOM     30  C   UNL     1       0.740   2.893  18.997  0.00  0.00    +0.000 C 
ENDBRANCH  28  30
ENDBRANCH  27  28
ENDBRANCH  26  27
ENDBRANCH   1  26
TORSDOF 9
ENDMDL
MODEL 7
REMARK VINA RESULT:      -7.4      2.460      8.834
REMARK  Name = 
REMARK  11 active torsions:
REMARK  status: ('A' for Active; 'I' for Inactive)
REMARK    1  A    between atoms: C_1  and  C_2
REMARK    2  A    between atoms: C_2  and  O_3
REMARK    3  A    between atoms: O_3  and  C_4
REMARK    4  A    between atoms: C_4  and  C_5
REMARK    5  A    between atoms: C_5  and  N_6
REMARK    6  A    between atoms: C_8  and  C_9
REMARK    7  A    between atoms: N_11  and  C_12
REMARK    8  A    between atoms: C_12  and  C_13
REMARK    9  A    between atoms: C_13  and  C_14
REMARK   10  A    between atoms: C_26  and  O_27
REMARK   11  A    between atoms: O_27  and  C_28
REMARK                            x       y       z     vdW  Elec       q    Type
REMARK                         _______ _______ _______ _____ _____    ______ ____
ROOT
ATOM      1  N   UNL     1      -1.195  11.114  18.813  0.00  0.00    +0.000 N 
ATOM      2  C   UNL     1      -0.156  10.300  18.358  0.00  0.00    +0.000 A 
ATOM      3  C   UNL     1       0.708   9.587  19.094  0.00  0.00    +0.000 A 
ATOM      4  C   UNL     1       0.545   9.690  20.555  0.00  0.00    +0.000 A 
ATOM      5  O   UNL     1       1.206   8.991  21.321  0.00  0.00    +0.000 OA
ATOM      6  C   UNL     1      -0.421  10.687  21.081  0.00  0.00    +0.000 A 
ATOM      7  C   UNL     1      -0.398  10.918  22.466  0.00  0.00    +0.000 A 
ATOM      8  C   UNL     1      -1.261  11.844  23.024  0.00  0.00    +0.000 A 
ATOM      9  C   UNL     1      -2.178  12.501  22.211  0.00  0.00    +0.000 A 
ATOM     10  C   UNL     1      -2.240  12.258  20.824  0.00  0.00    +0.000 A 
ATOM     11  C   UNL     1      -1.314  11.368  20.208  0.00  0.00    +0.000 A 
ENDROOT
BRANCH   3  12
ATOM     12  C   UNL     1       1.750   8.770  18.407  0.00  0.00    +0.000 C 
ATOM     13  O   UNL     1       2.258   9.129  17.347  0.00  0.00    +0.000 OA
ATOM     14  N   UNL     1       2.103   7.595  19.032  0.00  0.00    +0.000 N 
ATOM     15  H   UNL     1       1.615   7.335  19.891  0.00  0.00    +0.000 HD
BRANCH  14  16
ATOM     16  C   UNL     1       3.094   6.712  18.449  0.00  0.00    +0.000 C 
BRANCH  16  17
ATOM     17  C   UNL     1       2.537   5.351  18.025  0.00  0.00    +0.000 C 
BRANCH  17  18
ATOM     18  C   UNL     1       2.469   4.398  19.196  0.00  0.00    +0.000 A 
ATOM     19  C   UNL     1       3.574   3.614  19.551  0.00  0.00    +0.000 A 
ATOM     20  C   UNL     1       3.486   2.695  20.600  0.00  0.00    +0.000 A 
ATOM     21  C   UNL     1       2.295   2.550  21.307  0.00  0.00    +0.000 A 
ATOM     22  C   UNL     1       1.190   3.325  20.966  0.00  0.00    +0.000 A 
ATOM     23  C   UNL     1       1.272   4.244  19.916  0.00  0.00    +0.000 A 
ENDBRANCH  17  18
ENDBRANCH  16  17
ENDBRANCH  14  16
ENDBRANCH   3  12
BRANCH  10  24
ATOM     24  O   UNL     1      -3.187  12.868  20.038  0.00  0.00    +0.000 OA
ATOM     25  C   UNL     1      -4.437  13.229  20.614  0.00  0.00    +0.000 C 
ENDBRANCH  10  24
BRANCH   1  26
ATOM     26  C   UNL     1      -1.998  11.859  17.810  0.00  0.00    +0.000 C 
BRANCH  26  27
ATOM     27  C   UNL     1      -2.300  11.026  16.555  0.00  0.00    +0.000 C 
BRANCH  27  28
ATOM     28  O   UNL     1      -3.697  11.087  16.244  0.00  0.00    +0.000 OA
BRANCH  28  30
ATOM     29  C   UNL     1      -5.596  12.222  17.134  0.00  0.00    +0.000 C 
ATOM     30  C   UNL     1      -4.497  11.217  17.415  0.00  0.00    +0.000 C 
ENDBRANCH  28  30
ENDBRANCH  27  28
ENDBRANCH  26  27
ENDBRANCH   1  26
TORSDOF 9
ENDMDL
MODEL 8
REMARK VINA RESULT:      -7.4      1.829      2.849
REMARK  Name = 
REMARK  11 active torsions:
REMARK  status: ('A' for Active; 'I' for Inactive)
REMARK    1  A    between atoms: C_1  and  C_2
REMARK    2  A    between atoms: C_2  and  O_3
REMARK    3  A    between atoms: O_3  and  C_4
REMARK    4  A    between atoms: C_4  and  C_5
REMARK    5  A    between atoms: C_5  and  N_6
REMARK    6  A    between atoms: C_8  and  C_9
REMARK    7  A    between atoms: N_11  and  C_12
REMARK    8  A    between atoms: C_12  and  C_13
REMARK    9  A    between atoms: C_13  and  C_14
REMARK   10  A    between atoms: C_26  and  O_27
REMARK   11  A    between atoms: O_27  and  C_28
REMARK                            x       y       z     vdW  Elec       q    Type
REMARK                         _______ _______ _______ _____ _____    ______ ____
ROOT
ATOM      1  N   UNL     1       3.488   5.554  18.020  0.00  0.00    +0.000 N 
ATOM      2  C   UNL     1       3.020   6.862  17.884  0.00  0.00    +0.000 A 
ATOM      3  C   UNL     1       2.313   7.575  18.771  0.00  0.00    +0.000 A 
ATOM      4  C   UNL     1       1.981   6.887  20.030  0.00  0.00    +0.000 A 
ATOM      5  O   UNL     1       1.438   7.483  20.959  0.00  0.00    +0.000 OA
ATOM      6  C   UNL     1       2.295   5.439  20.138  0.00  0.00    +0.000 A 
ATOM      7  C   UNL     1       1.775   4.762  21.253  0.00  0.00    +0.000 A 
ATOM      8  C   UNL     1       2.014   3.410  21.410  0.00  0.00    +0.000 A 
ATOM      9  C   UNL     1       2.813   2.744  20.487  0.00  0.00    +0.000 A 
ATOM     10  C   UNL     1       3.372   3.413  19.379  0.00  0.00    +0.000 A 
ATOM     11  C   UNL     1       3.081   4.788  19.147  0.00  0.00    +0.000 A 
ENDROOT
BRANCH   3  12
ATOM     12  C   UNL     1       1.913   8.972  18.431  0.00  0.00    +0.000 C 
ATOM     13  O   UNL     1       2.223   9.491  17.361  0.00  0.00    +0.000 OA
ATOM     14  N   UNL     1       1.181   9.638  19.388  0.00  0.00    +0.000 N 
ATOM     15  H   UNL     1       0.990   9.164  20.272  0.00  0.00    +0.000 HD
BRANCH  14  16
ATOM     16  C   UNL     1       0.750  11.007  19.175  0.00  0.00    +0.000 C 
BRANCH  16  17
ATOM     17  C   UNL     1      -0.770  11.182  19.172  0.00  0.00    +0.000 C 
BRANCH  17  18
ATOM     18  C   UNL     1      -1.273  11.615  20.531  0.00  0.00    +0.000 A 
ATOM     19  C   UNL     1      -2.197  12.660  20.657  0.00  0.00    +0.000 A 
ATOM     20  C   UNL     1      -2.616  13.091  21.918  0.00  0.00    +0.000 A 
ATOM     21  C   UNL     1      -2.117  12.483  23.068  0.00  0.00    +0.000 A 
ATOM     22  C   UNL     1      -1.200  11.441  22.957  0.00  0.00    +0.000 A 
ATOM     23  C   UNL     1      -0.778  11.008  21.697  0.00  0.00    +0.000 A 
ENDBRANCH  17  18
ENDBRANCH  16  17
ENDBRANCH  14  16
ENDBRANCH   3  12
BRANCH  10  24
ATOM     24  O   UNL     1       4.206   2.762  18.503  0.00  0.00    +0.000 OA
ATOM     25  C   UNL     1       3.876   1.443  18.083  0.00  0.00    +0.000 C 
ENDBRANCH  10  24
BRANCH   1  26
ATOM     26  C   UNL     1       4.210   4.941  16.876  0.00  0.00    +0.000 C 
BRANCH  26  27
ATOM     27  C   UNL     1       5.585   5.580  16.631  0.00  0.00    +0.000 C 
BRANCH  27  28
ATOM     28  O   UNL     1       5.806   5.757  15.227  0.00  0.00    +0.000 OA
BRANCH  28  30
ATOM     29  C   UNL     1       6.068   3.891  13.765  0.00  0.00    +0.000 C 
ATOM     30  C   UNL     1       6.768   4.838  14.719  0.00  0.00    +0.000 C 
ENDBRANCH  28  30
ENDBRANCH  27  28
ENDBRANCH  26  27
ENDBRANCH   1  26
TORSDOF 9
ENDMDL
MODEL 9
REMARK VINA RESULT:      -7.4      2.008      3.030
REMARK  Name = 
REMARK  11 active torsions:
REMARK  status: ('A' for Active; 'I' for Inactive)
REMARK    1  A    between atoms: C_1  and  C_2
REMARK    2  A    between atoms: C_2  and  O_3
REMARK    3  A    between atoms: O_3  and  C_4
REMARK    4  A    between atoms: C_4  and  C_5
REMARK    5  A    between atoms: C_5  and  N_6
REMARK    6  A    between atoms: C_8  and  C_9
REMARK    7  A    between atoms: N_11  and  C_12
REMARK    8  A    between atoms: C_12  and  C_13
REMARK    9  A    between atoms: C_13  and  C_14
REMARK   10  A    between atoms: C_26  and  O_27
REMARK   11  A    between atoms: O_27  and  C_28
REMARK                            x       y       z     vdW  Elec       q    Type
REMARK                         _______ _______ _______ _____ _____    ______ ____
ROOT
ATOM      1  N   UNL     1       3.502   5.602  18.014  0.00  0.00    +0.000 N 
ATOM      2  C   UNL     1       3.006   6.897  17.854  0.00  0.00    +0.000 A 
ATOM      3  C   UNL     1       2.292   7.614  18.732  0.00  0.00    +0.000 A 
ATOM      4  C   UNL     1       1.983   6.945  20.008  0.00  0.00    +0.000 A 
ATOM      5  O   UNL     1       1.435   7.550  20.929  0.00  0.00    +0.000 OA
ATOM      6  C   UNL     1       2.328   5.507  20.144  0.00  0.00    +0.000 A 
ATOM      7  C   UNL     1       1.830   4.843  21.276  0.00  0.00    +0.000 A 
ATOM      8  C   UNL     1       2.098   3.499  21.460  0.00  0.00    +0.000 A 
ATOM      9  C   UNL     1       2.903   2.831  20.545  0.00  0.00    +0.000 A 
ATOM     10  C   UNL     1       3.440   3.488  19.418  0.00  0.00    +0.000 A 
ATOM     11  C   UNL     1       3.119   4.851  19.161  0.00  0.00    +0.000 A 
ENDROOT
BRANCH   3  12
ATOM     12  C   UNL     1       1.861   8.995  18.367  0.00  0.00    +0.000 C 
ATOM     13  O   UNL     1       2.488   9.675  17.558  0.00  0.00    +0.000 OA
ATOM     14  N   UNL     1       0.723   9.456  18.991  0.00  0.00    +0.000 N 
ATOM     15  H   UNL     1       0.270   8.855  19.681  0.00  0.00    +0.000 HD
BRANCH  14  16
ATOM     16  C   UNL     1       0.218  10.789  18.725  0.00  0.00    +0.000 C 
BRANCH  16  17
ATOM     17  C   UNL     1       0.618  11.823  19.780  0.00  0.00    +0.000 C 
BRANCH  17  18
ATOM     18  C   UNL     1      -0.293  11.756  20.985  0.00  0.00    +0.000 A 
ATOM     19  C   UNL     1      -0.089  10.802  21.989  0.00  0.00    +0.000 A 
ATOM     20  C   UNL     1      -0.967  10.709  23.072  0.00  0.00    +0.000 A 
ATOM     21  C   UNL     1      -2.059  11.570  23.164  0.00  0.00    +0.000 A 
ATOM     22  C   UNL     1      -2.272  12.524  22.173  0.00  0.00    +0.000 A 
ATOM     23  C   UNL     1      -1.397  12.619  21.088  0.00  0.00    +0.000 A 
ENDBRANCH  17  18
ENDBRANCH  16  17
ENDBRANCH  14  16
ENDBRANCH   3  12
BRANCH  10  24
ATOM     24  O   UNL     1       4.281   2.835  18.550  0.00  0.00    +0.000 OA
ATOM     25  C   UNL     1       3.911   1.552  18.060  0.00  0.00    +0.000 C 
ENDBRANCH  10  24
BRANCH   1  26
ATOM     26  C   UNL     1       4.227   4.979  16.877  0.00  0.00    +0.000 C 
BRANCH  26  27
ATOM     27  C   UNL     1       5.703   5.400  16.814  0.00  0.00    +0.000 C 
BRANCH  27  28
ATOM     28  O   UNL     1       6.493   4.350  16.242  0.00  0.00    +0.000 OA
BRANCH  28  30
ATOM     29  C   UNL     1       6.243   3.834  13.928  0.00  0.00    +0.000 C 
ATOM     30  C   UNL     1       6.970   4.691  14.944  0.00  0.00    +0.000 C 
ENDBRANCH  28  30
ENDBRANCH  27  28
ENDBRANCH  26  27
ENDBRANCH   1  26
TORSDOF 9
ENDMDL
