MODEL 1
REMARK VINA RESULT:      -8.6      0.000      0.000
REMARK  Name = 
REMARK  11 active torsions:
REMARK  status: ('A' for Active; 'I' for Inactive)
REMARK    1  A    between atoms: C_1  and  C_2
REMARK    2  A    between atoms: C_2  and  C_3
REMARK    3  A    between atoms: C_3  and  C_4
REMARK    4  A    between atoms: C_4  and  C_5
REMARK    5  A    between atoms: C_5  and  C_6
REMARK    6  A    between atoms: C_6  and  O_8
REMARK    7  A    between atoms: O_8  and  C_9
REMARK    8  A    between atoms: C_9  and  C_10
REMARK    9  A    between atoms: C_10  and  C_11
REMARK   10  A    between atoms: C_25  and  C_26
REMARK   11  A    between atoms: C_30  and  C_31
REMARK                            x       y       z     vdW  Elec       q    Type
REMARK                         _______ _______ _______ _____ _____    ______ ____
ROOT
ATOM      1  C   UNL     1       4.606   5.115  18.162  0.00  0.00    +0.000 C 
ATOM      2  C   UNL     1       4.952   6.355  17.234  0.00  0.00    +0.000 C 
ATOM      3  C   UNL     1       3.691   7.178  17.095  0.00  0.00    +0.000 C 
ATOM      4  C   UNL     1       3.183   7.108  18.522  0.00  0.00    +0.000 C 
ATOM      5  C   UNL     1       1.884   7.845  18.844  0.00  0.00    +0.000 C 
ATOM      6  C   UNL     1       1.947   9.272  18.318  0.00  0.00    +0.000 C 
ATOM      7  C   UNL     1       0.602   9.926  18.514  0.00  0.00    +0.000 C 
ATOM      8  C   UNL     1       0.338  10.036  19.988  0.00  0.00    +0.000 C 
ATOM      9  C   UNL     1       0.119  11.281  20.447  0.00  0.00    +0.000 C 
ATOM     10  C   UNL     1      -0.060  11.561  21.879  0.00  0.00    +0.000 C 
ATOM     11  O   UNL     1      -0.135  12.723  22.264  0.00  0.00    +0.000 OA
ATOM     12  C   UNL     1      -0.205  10.380  22.794  0.00  0.00    +0.000 C 
ATOM     13  C   UNL     1       0.725   9.246  22.336  0.00  0.00    +0.000 C 
ATOM     14  C   UNL     1       0.460   8.761  20.868  0.00  0.00    +0.000 C 
ATOM     15  C   UNL     1      -0.879   7.991  20.871  0.00  0.00    +0.000 C 
ATOM     16  C   UNL     1       1.670   7.817  20.385  0.00  0.00    +0.000 C 
ATOM     17  C   UNL     1       1.675   6.322  20.851  0.00  0.00    +0.000 C 
ATOM     18  C   UNL     1       2.916   5.474  20.355  0.00  0.00    +0.000 C 
ATOM     19  C   UNL     1       3.173   5.588  18.828  0.00  0.00    +0.000 C 
ATOM     20  C   UNL     1       1.954   4.902  18.110  0.00  0.00    +0.000 C 
ENDROOT
BRANCH   1  21
ATOM     21  C   UNL     1       4.466   3.885  17.186  0.00  0.00    +0.000 C 
ATOM     22  C   UNL     1       4.116   2.525  17.727  0.00  0.00    +0.000 C 
ATOM     23  O   UNL     1       4.643   3.985  15.966  0.00  0.00    +0.000 OA
ENDBRANCH   1  21
BRANCH   1  24
ATOM     24  O   UNL     1       5.840   5.111  18.962  0.00  0.00    +0.000 OA
BRANCH  24  25
ATOM     25  C   UNL     1       7.054   5.250  18.392  0.00  0.00    +0.000 C 
ATOM     26  O   UNL     1       7.611   4.332  17.805  0.00  0.00    +0.000 OA
BRANCH  25  27
ATOM     27  C   UNL     1       7.748   6.613  18.551  0.00  0.00    +0.000 C 
BRANCH  27  28
ATOM     28  C   UNL     1       7.880   7.667  17.444  0.00  0.00    +0.000 C 
BRANCH  28  29
ATOM     29  C   UNL     1       7.963   9.130  17.866  0.00  0.00    +0.000 C 
BRANCH  29  31
ATOM     30  C   UNL     1       9.480  10.955  18.891  0.00  0.00    +0.000 C 
ATOM     31  C   UNL     1       9.030   9.499  18.907  0.00  0.00    +0.000 C 
ENDBRANCH  29  31
ENDBRANCH  28  29
ENDBRANCH  27  28
ENDBRANCH  25  27
ENDBRANCH  24  25
ENDBRANCH   1  24
TORSDOF 7
ENDMDL
MODEL 2
REMARK VINA RESULT:      -7.9      0.978      1.224
REMARK  Name = 
REMARK  11 active torsions:
REMARK  status: ('A' for Active; 'I' for Inactive)
REMARK    1  A    between atoms: C_1  and  C_2
REMARK    2  A    between atoms: C_2  and  C_3
REMARK    3  A    between atoms: C_3  and  C_4
REMARK    4  A    between atoms: C_4  and  C_5
REMARK    5  A    between atoms: C_5  and  C_6
REMARK    6  A    between atoms: C_6  and  O_8
REMARK    7  A    between atoms: O_8  and  C_9
REMARK    8  A    between atoms: C_9  and  C_10
REMARK    9  A    between atoms: C_10  and  C_11
REMARK   10  A    between atoms: C_25  and  C_26
REMARK   11  A    between atoms: C_30  and  C_31
REMARK                            x       y       z     vdW  Elec       q    Type
REMARK                         _______ _______ _______ _____ _____    ______ ____
ROOT
ATOM      1  C   UNL     1       5.100   5.527  17.404  0.00  0.00    +0.000 C 
ATOM      2  C   UNL     1       5.134   6.808  16.470  0.00  0.00    +0.000 C 
ATOM      3  C   UNL     1       3.758   7.432  16.512  0.00  0.00    +0.000 C 
ATOM      4  C   UNL     1       3.455   7.280  17.990  0.00  0.00    +0.000 C 
ATOM      5  C   UNL     1       2.112   7.811  18.491  0.00  0.00    +0.000 C 
ATOM      6  C   UNL     1       1.893   9.234  17.995  0.00  0.00    +0.000 C 
ATOM      7  C   UNL     1       0.502   9.676  18.376  0.00  0.00    +0.000 C 
ATOM      8  C   UNL     1       0.418   9.739  19.874  0.00  0.00    +0.000 C 
ATOM      9  C   UNL     1       0.077  10.934  20.386  0.00  0.00    +0.000 C 
ATOM     10  C   UNL     1       0.045  11.178  21.836  0.00  0.00    +0.000 C 
ATOM     11  O   UNL     1      -0.152  12.314  22.254  0.00  0.00    +0.000 OA
ATOM     12  C   UNL     1       0.196   9.985  22.733  0.00  0.00    +0.000 C 
ATOM     13  C   UNL     1       1.218   9.006  22.134  0.00  0.00    +0.000 C 
ATOM     14  C   UNL     1       0.841   8.493  20.701  0.00  0.00    +0.000 C 
ATOM     15  C   UNL     1      -0.357   7.530  20.856  0.00  0.00    +0.000 C 
ATOM     16  C   UNL     1       2.106   7.745  20.046  0.00  0.00    +0.000 C 
ATOM     17  C   UNL     1       2.394   6.266  20.472  0.00  0.00    +0.000 C 
ATOM     18  C   UNL     1       3.673   5.617  19.803  0.00  0.00    +0.000 C 
ATOM     19  C   UNL     1       3.711   5.775  18.258  0.00  0.00    +0.000 C 
ATOM     20  C   UNL     1       2.525   4.916  17.684  0.00  0.00    +0.000 C 
ENDROOT
BRANCH   1  21
ATOM     21  C   UNL     1       5.020   4.293  16.426  0.00  0.00    +0.000 C 
ATOM     22  C   UNL     1       5.239   4.483  14.949  0.00  0.00    +0.000 C 
ATOM     23  O   UNL     1       4.771   3.148  16.824  0.00  0.00    +0.000 OA
ENDBRANCH   1  21
BRANCH   1  24
ATOM     24  O   UNL     1       6.414   5.705  18.041  0.00  0.00    +0.000 OA
BRANCH  24  25
ATOM     25  C   UNL     1       7.347   6.525  17.519  0.00  0.00    +0.000 C 
ATOM     26  O   UNL     1       7.653   6.502  16.335  0.00  0.00    +0.000 OA
BRANCH  25  27
ATOM     27  C   UNL     1       8.064   7.477  18.493  0.00  0.00    +0.000 C 
BRANCH  27  28
ATOM     28  C   UNL     1       8.446   8.930  18.182  0.00  0.00    +0.000 C 
BRANCH  28  29
ATOM     29  C   UNL     1       8.982   9.781  19.327  0.00  0.00    +0.000 C 
BRANCH  29  31
ATOM     30  C   UNL     1      10.345  11.210  17.658  0.00  0.00    +0.000 C 
ATOM     31  C   UNL     1       9.564  11.155  18.965  0.00  0.00    +0.000 C 
ENDBRANCH  29  31
ENDBRANCH  28  29
ENDBRANCH  27  28
ENDBRANCH  25  27
ENDBRANCH  24  25
ENDBRANCH   1  24
TORSDOF 7
ENDMDL
MODEL 3
REMARK VINA RESULT:      -7.2      2.915      8.137
REMARK  Name = 
REMARK  11 active torsions:
REMARK  status: ('A' for Active; 'I' for Inactive)
REMARK    1  A    between atoms: C_1  and  C_2
REMARK    2  A    between atoms: C_2  and  C_3
REMARK    3  A    between atoms: C_3  and  C_4
REMARK    4  A    between atoms: C_4  and  C_5
REMARK    5  A    between atoms: C_5  and  C_6
REMARK    6  A    between atoms: C_6  and  O_8
REMARK    7  A    between atoms: O_8  and  C_9
REMARK    8  A    between atoms: C_9  and  C_10
REMARK    9  A    between atoms: C_10  and  C_11
REMARK   10  A    between atoms: C_25  and  C_26
REMARK   11  A    between atoms: C_30  and  C_31
REMARK                            x       y       z     vdW  Elec       q    Type
REMARK                         _______ _______ _______ _____ _____    ______ ____
ROOT
ATOM      1  C   UNL     1       0.761  11.611  19.709  0.00  0.00    +0.000 C 
ATOM      2  C   UNL     1       0.658  11.160  21.227  0.00  0.00    +0.000 C 
ATOM      3  C   UNL     1       0.355   9.679  21.236  0.00  0.00    +0.000 C 
ATOM      4  C   UNL     1       1.273   9.224  20.118  0.00  0.00    +0.000 C 
ATOM      5  C   UNL     1       1.291   7.732  19.786  0.00  0.00    +0.000 C 
ATOM      6  C   UNL     1       1.473   6.915  21.058  0.00  0.00    +0.000 C 
ATOM      7  C   UNL     1       1.337   5.450  20.721  0.00  0.00    +0.000 C 
ATOM      8  C   UNL     1       2.469   5.065  19.812  0.00  0.00    +0.000 C 
ATOM      9  C   UNL     1       3.258   4.072  20.257  0.00  0.00    +0.000 C 
ATOM     10  C   UNL     1       4.460   3.647  19.525  0.00  0.00    +0.000 C 
ATOM     11  O   UNL     1       5.215   2.822  20.028  0.00  0.00    +0.000 OA
ATOM     12  C   UNL     1       4.659   4.215  18.150  0.00  0.00    +0.000 C 
ATOM     13  C   UNL     1       4.214   5.685  18.122  0.00  0.00    +0.000 C 
ATOM     14  C   UNL     1       2.714   5.901  18.525  0.00  0.00    +0.000 C 
ATOM     15  C   UNL     1       1.843   5.361  17.370  0.00  0.00    +0.000 C 
ATOM     16  C   UNL     1       2.442   7.468  18.772  0.00  0.00    +0.000 C 
ATOM     17  C   UNL     1       2.213   8.385  17.524  0.00  0.00    +0.000 C 
ATOM     18  C   UNL     1       1.983   9.916  17.856  0.00  0.00    +0.000 C 
ATOM     19  C   UNL     1       0.896  10.158  18.939  0.00  0.00    +0.000 C 
ATOM     20  C   UNL     1      -0.476   9.711  18.315  0.00  0.00    +0.000 C 
ENDROOT
BRANCH   1  21
ATOM     21  C   UNL     1      -0.591  12.359  19.399  0.00  0.00    +0.000 C 
ATOM     22  C   UNL     1      -1.598  12.589  20.493  0.00  0.00    +0.000 C 
ATOM     23  O   UNL     1      -0.875  12.769  18.267  0.00  0.00    +0.000 OA
ENDBRANCH   1  21
BRANCH   1  24
ATOM     24  O   UNL     1       1.925  12.501  19.841  0.00  0.00    +0.000 OA
BRANCH  24  25
ATOM     25  C   UNL     1       2.128  13.530  18.995  0.00  0.00    +0.000 C 
ATOM     26  O   UNL     1       2.437  13.364  17.823  0.00  0.00    +0.000 OA
BRANCH  25  27
ATOM     27  C   UNL     1       2.003  14.948  19.578  0.00  0.00    +0.000 C 
BRANCH  27  28
ATOM     28  C   UNL     1       0.691  15.598  20.038  0.00  0.00    +0.000 C 
BRANCH  28  29
ATOM     29  C   UNL     1       0.323  16.950  19.438  0.00  0.00    +0.000 C 
BRANCH  29  31
ATOM     30  C   UNL     1      -0.092  18.067  17.144  0.00  0.00    +0.000 C 
ATOM     31  C   UNL     1      -0.443  16.940  18.107  0.00  0.00    +0.000 C 
ENDBRANCH  29  31
ENDBRANCH  28  29
ENDBRANCH  27  28
ENDBRANCH  25  27
ENDBRANCH  24  25
ENDBRANCH   1  24
TORSDOF 7
ENDMDL
MODEL 4
REMARK VINA RESULT:      -7.2      2.963      7.875
REMARK  Name = 
REMARK  11 active torsions:
REMARK  status: ('A' for Active; 'I' for Inactive)
REMARK    1  A    between atoms: C_1  and  C_2
REMARK    2  A    between atoms: C_2  and  C_3
REMARK    3  A    between atoms: C_3  and  C_4
REMARK    4  A    between atoms: C_4  and  C_5
REMARK    5  A    between atoms: C_5  and  C_6
REMARK    6  A    between atoms: C_6  and  O_8
REMARK    7  A    between atoms: O_8  and  C_9
REMARK    8  A    between atoms: C_9  and  C_10
REMARK    9  A    between atoms: C_10  and  C_11
REMARK   10  A    between atoms: C_25  and  C_26
REMARK   11  A    between atoms: C_30  and  C_31
REMARK                            x       y       z     vdW  Elec       q    Type
REMARK                         _______ _______ _______ _____ _____    ______ ____
ROOT
ATOM      1  C   UNL     1       0.908  11.488  19.663  0.00  0.00    +0.000 C 
ATOM      2  C   UNL     1       0.789  11.058  21.185  0.00  0.00    +0.000 C 
ATOM      3  C   UNL     1       0.444   9.586  21.212  0.00  0.00    +0.000 C 
ATOM      4  C   UNL     1       1.352   9.093  20.102  0.00  0.00    +0.000 C 
ATOM      5  C   UNL     1       1.330   7.598  19.787  0.00  0.00    +0.000 C 
ATOM      6  C   UNL     1       1.485   6.790  21.069  0.00  0.00    +0.000 C 
ATOM      7  C   UNL     1       1.310   5.326  20.749  0.00  0.00    +0.000 C 
ATOM      8  C   UNL     1       2.433   4.899  19.848  0.00  0.00    +0.000 C 
ATOM      9  C   UNL     1       3.192   3.889  20.307  0.00  0.00    +0.000 C 
ATOM     10  C   UNL     1       4.384   3.423  19.584  0.00  0.00    +0.000 C 
ATOM     11  O   UNL     1       5.114   2.583  20.099  0.00  0.00    +0.000 OA
ATOM     12  C   UNL     1       4.603   3.969  18.203  0.00  0.00    +0.000 C 
ATOM     13  C   UNL     1       4.199   5.450  18.156  0.00  0.00    +0.000 C 
ATOM     14  C   UNL     1       2.704   5.713  18.553  0.00  0.00    +0.000 C 
ATOM     15  C   UNL     1       1.822   5.183  17.401  0.00  0.00    +0.000 C 
ATOM     16  C   UNL     1       2.475   7.289  18.780  0.00  0.00    +0.000 C 
ATOM     17  C   UNL     1       2.275   8.198  17.520  0.00  0.00    +0.000 C 
ATOM     18  C   UNL     1       2.087   9.738  17.834  0.00  0.00    +0.000 C 
ATOM     19  C   UNL     1       1.005  10.023  18.911  0.00  0.00    +0.000 C 
ATOM     20  C   UNL     1      -0.377   9.607  18.288  0.00  0.00    +0.000 C 
ENDROOT
BRANCH   1  21
ATOM     21  C   UNL     1      -0.422  12.270  19.340  0.00  0.00    +0.000 C 
ATOM     22  C   UNL     1      -1.425  12.541  20.429  0.00  0.00    +0.000 C 
ATOM     23  O   UNL     1      -0.691  12.674  18.202  0.00  0.00    +0.000 OA
ENDBRANCH   1  21
BRANCH   1  24
ATOM     24  O   UNL     1       2.096  12.347  19.788  0.00  0.00    +0.000 OA
BRANCH  24  25
ATOM     25  C   UNL     1       2.031  13.677  19.584  0.00  0.00    +0.000 C 
ATOM     26  O   UNL     1       1.647  14.455  20.447  0.00  0.00    +0.000 OA
BRANCH  25  27
ATOM     27  C   UNL     1       2.418  14.189  18.186  0.00  0.00    +0.000 C 
BRANCH  27  28
ATOM     28  C   UNL     1       3.500  15.240  17.902  0.00  0.00    +0.000 C 
BRANCH  28  29
ATOM     29  C   UNL     1       3.040  16.643  17.522  0.00  0.00    +0.000 C 
BRANCH  29  31
ATOM     30  C   UNL     1       0.632  17.547  17.774  0.00  0.00    +0.000 C 
ATOM     31  C   UNL     1       1.988  17.304  18.424  0.00  0.00    +0.000 C 
ENDBRANCH  29  31
ENDBRANCH  28  29
ENDBRANCH  27  28
ENDBRANCH  25  27
ENDBRANCH  24  25
ENDBRANCH   1  24
TORSDOF 7
ENDMDL
MODEL 5
REMARK VINA RESULT:      -7.2      1.950      3.509
REMARK  Name = 
REMARK  11 active torsions:
REMARK  status: ('A' for Active; 'I' for Inactive)
REMARK    1  A    between atoms: C_1  and  C_2
REMARK    2  A    between atoms: C_2  and  C_3
REMARK    3  A    between atoms: C_3  and  C_4
REMARK    4  A    between atoms: C_4  and  C_5
REMARK    5  A    between atoms: C_5  and  C_6
REMARK    6  A    between atoms: C_6  and  O_8
REMARK    7  A    between atoms: O_8  and  C_9
REMARK    8  A    between atoms: C_9  and  C_10
REMARK    9  A    between atoms: C_10  and  C_11
REMARK   10  A    between atoms: C_25  and  C_26
REMARK   11  A    between atoms: C_30  and  C_31
REMARK                            x       y       z     vdW  Elec       q    Type
REMARK                         _______ _______ _______ _____ _____    ______ ____
ROOT
ATOM      1  C   UNL     1       4.502   5.775  17.668  0.00  0.00    +0.000 C 
ATOM      2  C   UNL     1       4.670   7.091  16.798  0.00  0.00    +0.000 C 
ATOM      3  C   UNL     1       3.343   7.815  16.818  0.00  0.00    +0.000 C 
ATOM      4  C   UNL     1       2.968   7.621  18.274  0.00  0.00    +0.000 C 
ATOM      5  C   UNL     1       1.649   8.229  18.748  0.00  0.00    +0.000 C 
ATOM      6  C   UNL     1       1.557   9.685  18.313  0.00  0.00    +0.000 C 
ATOM      7  C   UNL     1       0.188  10.215  18.662  0.00  0.00    +0.000 C 
ATOM      8  C   UNL     1       0.046  10.217  20.157  0.00  0.00    +0.000 C 
ATOM      9  C   UNL     1      -0.226  11.410  20.712  0.00  0.00    +0.000 C 
ATOM     10  C   UNL     1      -0.300  11.590  22.169  0.00  0.00    +0.000 C 
ATOM     11  O   UNL     1      -0.430  12.718  22.634  0.00  0.00    +0.000 OA
ATOM     12  C   UNL     1      -0.275  10.350  23.013  0.00  0.00    +0.000 C 
ATOM     13  C   UNL     1       0.695   9.324  22.408  0.00  0.00    +0.000 C 
ATOM     14  C   UNL     1       0.341   8.906  20.938  0.00  0.00    +0.000 C 
ATOM     15  C   UNL     1      -0.930   8.031  21.001  0.00  0.00    +0.000 C 
ATOM     16  C   UNL     1       1.573   8.094  20.297  0.00  0.00    +0.000 C 
ATOM     17  C   UNL     1       1.733   6.580  20.663  0.00  0.00    +0.000 C 
ATOM     18  C   UNL     1       2.987   5.866  20.012  0.00  0.00    +0.000 C 
ATOM     19  C   UNL     1       3.101   6.090  18.479  0.00  0.00    +0.000 C 
ATOM     20  C   UNL     1       1.880   5.350  17.821  0.00  0.00    +0.000 C 
ENDROOT
BRANCH   1  21
ATOM     21  C   UNL     1       4.372   4.597  16.629  0.00  0.00    +0.000 C 
ATOM     22  C   UNL     1       5.189   4.607  15.366  0.00  0.00    +0.000 C 
ATOM     23  O   UNL     1       3.603   3.643  16.804  0.00  0.00    +0.000 OA
ENDBRANCH   1  21
BRANCH   1  24
ATOM     24  O   UNL     1       5.798   5.825  18.362  0.00  0.00    +0.000 OA
BRANCH  24  25
ATOM     25  C   UNL     1       6.435   4.704  18.752  0.00  0.00    +0.000 C 
ATOM     26  O   UNL     1       7.496   4.347  18.257  0.00  0.00    +0.000 OA
BRANCH  25  27
ATOM     27  C   UNL     1       5.746   3.845  19.826  0.00  0.00    +0.000 C 
BRANCH  27  28
ATOM     28  C   UNL     1       4.749   2.714  19.542  0.00  0.00    +0.000 C 
BRANCH  28  29
ATOM     29  C   UNL     1       3.667   2.448  20.582  0.00  0.00    +0.000 C 
BRANCH  29  31
ATOM     30  C   UNL     1       1.163   2.835  21.097  0.00  0.00    +0.000 C 
ATOM     31  C   UNL     1       2.215   2.397  20.085  0.00  0.00    +0.000 C 
ENDBRANCH  29  31
ENDBRANCH  28  29
ENDBRANCH  27  28
ENDBRANCH  25  27
ENDBRANCH  24  25
ENDBRANCH   1  24
TORSDOF 7
ENDMDL
MODEL 6
REMARK VINA RESULT:      -7.1      1.745      2.663
REMARK  Name = 
REMARK  11 active torsions:
REMARK  status: ('A' for Active; 'I' for Inactive)
REMARK    1  A    between atoms: C_1  and  C_2
REMARK    2  A    between atoms: C_2  and  C_3
REMARK    3  A    between atoms: C_3  and  C_4
REMARK    4  A    between atoms: C_4  and  C_5
REMARK    5  A    between atoms: C_5  and  C_6
REMARK    6  A    between atoms: C_6  and  O_8
REMARK    7  A    between atoms: O_8  and  C_9
REMARK    8  A    between atoms: C_9  and  C_10
REMARK    9  A    between atoms: C_10  and  C_11
REMARK   10  A    between atoms: C_25  and  C_26
REMARK   11  A    between atoms: C_30  and  C_31
REMARK                            x       y       z     vdW  Elec       q    Type
REMARK                         _______ _______ _______ _____ _____    ______ ____
ROOT
ATOM      1  C   UNL     1       4.288   5.037  18.182  0.00  0.00    +0.000 C 
ATOM      2  C   UNL     1       4.591   6.224  17.173  0.00  0.00    +0.000 C 
ATOM      3  C   UNL     1       3.338   7.063  17.077  0.00  0.00    +0.000 C 
ATOM      4  C   UNL     1       2.924   7.072  18.535  0.00  0.00    +0.000 C 
ATOM      5  C   UNL     1       1.660   7.848  18.904  0.00  0.00    +0.000 C 
ATOM      6  C   UNL     1       1.711   9.247  18.305  0.00  0.00    +0.000 C 
ATOM      7  C   UNL     1       0.393   9.935  18.557  0.00  0.00    +0.000 C 
ATOM      8  C   UNL     1       0.229  10.122  20.038  0.00  0.00    +0.000 C 
ATOM      9  C   UNL     1       0.061  11.391  20.448  0.00  0.00    +0.000 C 
ATOM     10  C   UNL     1      -0.018  11.743  21.872  0.00  0.00    +0.000 C 
ATOM     11  O   UNL     1      -0.049  12.924  22.203  0.00  0.00    +0.000 OA
ATOM     12  C   UNL     1      -0.122  10.611  22.852  0.00  0.00    +0.000 C 
ATOM     13  C   UNL     1       0.758   9.439  22.391  0.00  0.00    +0.000 C 
ATOM     14  C   UNL     1       0.388   8.889  20.969  0.00  0.00    +0.000 C 
ATOM     15  C   UNL     1      -0.959   8.146  21.098  0.00  0.00    +0.000 C 
ATOM     16  C   UNL     1       1.549   7.900  20.456  0.00  0.00    +0.000 C 
ATOM     17  C   UNL     1       1.561   6.429  20.994  0.00  0.00    +0.000 C 
ATOM     18  C   UNL     1       2.753   5.535  20.461  0.00  0.00    +0.000 C 
ATOM     19  C   UNL     1       2.910   5.569  18.916  0.00  0.00    +0.000 C 
ATOM     20  C   UNL     1       1.635   4.873  18.314  0.00  0.00    +0.000 C 
ENDROOT
BRANCH   1  21
ATOM     21  C   UNL     1       4.064   3.764  17.280  0.00  0.00    +0.000 C 
ATOM     22  C   UNL     1       4.019   2.394  17.901  0.00  0.00    +0.000 C 
ATOM     23  O   UNL     1       3.928   3.839  16.052  0.00  0.00    +0.000 OA
ENDBRANCH   1  21
BRANCH   1  24
ATOM     24  O   UNL     1       5.572   5.048  18.899  0.00  0.00    +0.000 OA
BRANCH  24  25
ATOM     25  C   UNL     1       6.722   5.391  18.286  0.00  0.00    +0.000 C 
ATOM     26  O   UNL     1       7.302   6.442  18.523  0.00  0.00    +0.000 OA
BRANCH  25  27
ATOM     27  C   UNL     1       7.264   4.421  17.223  0.00  0.00    +0.000 C 
BRANCH  27  28
ATOM     28  C   UNL     1       7.688   4.819  15.803  0.00  0.00    +0.000 C 
BRANCH  28  29
ATOM     29  C   UNL     1       6.591   4.986  14.758  0.00  0.00    +0.000 C 
BRANCH  29  31
ATOM     30  C   UNL     1       6.594   3.873  12.425  0.00  0.00    +0.000 C 
ATOM     31  C   UNL     1       6.244   3.758  13.904  0.00  0.00    +0.000 C 
ENDBRANCH  29  31
ENDBRANCH  28  29
ENDBRANCH  27  28
ENDBRANCH  25  27
ENDBRANCH  24  25
ENDBRANCH   1  24
TORSDOF 7
ENDMDL
MODEL 7
REMARK VINA RESULT:      -7.0      2.869      7.518
REMARK  Name = 
REMARK  11 active torsions:
REMARK  status: ('A' for Active; 'I' for Inactive)
REMARK    1  A    between atoms: C_1  and  C_2
REMARK    2  A    between atoms: C_2  and  C_3
REMARK    3  A    between atoms: C_3  and  C_4
REMARK    4  A    between atoms: C_4  and  C_5
REMARK    5  A    between atoms: C_5  and  C_6
REMARK    6  A    between atoms: C_6  and  O_8
REMARK    7  A    between atoms: O_8  and  C_9
REMARK    8  A    between atoms: C_9  and  C_10
REMARK    9  A    between atoms: C_10  and  C_11
REMARK   10  A    between atoms: C_25  and  C_26
REMARK   11  A    between atoms: C_30  and  C_31
REMARK                            x       y       z     vdW  Elec       q    Type
REMARK                         _______ _______ _______ _____ _____    ______ ____
ROOT
ATOM      1  C   UNL     1       0.803  11.568  19.800  0.00  0.00    +0.000 C 
ATOM      2  C   UNL     1       0.700  11.100  21.312  0.00  0.00    +0.000 C 
ATOM      3  C   UNL     1       0.380   9.622  21.304  0.00  0.00    +0.000 C 
ATOM      4  C   UNL     1       1.289   9.171  20.177  0.00  0.00    +0.000 C 
ATOM      5  C   UNL     1       1.290   7.684  19.825  0.00  0.00    +0.000 C 
ATOM      6  C   UNL     1       1.466   6.848  21.086  0.00  0.00    +0.000 C 
ATOM      7  C   UNL     1       1.313   5.389  20.731  0.00  0.00    +0.000 C 
ATOM      8  C   UNL     1       2.438   5.003  19.814  0.00  0.00    +0.000 C 
ATOM      9  C   UNL     1       3.217   3.996  20.243  0.00  0.00    +0.000 C 
ATOM     10  C   UNL     1       4.412   3.567  19.502  0.00  0.00    +0.000 C 
ATOM     11  O   UNL     1       5.159   2.727  19.992  0.00  0.00    +0.000 OA
ATOM     12  C   UNL     1       4.614   4.150  18.135  0.00  0.00    +0.000 C 
ATOM     13  C   UNL     1       4.184   5.626  18.126  0.00  0.00    +0.000 C 
ATOM     14  C   UNL     1       2.688   5.853  18.537  0.00  0.00    +0.000 C 
ATOM     15  C   UNL     1       1.808   5.337  17.378  0.00  0.00    +0.000 C 
ATOM     16  C   UNL     1       2.435   7.419  18.805  0.00  0.00    +0.000 C 
ATOM     17  C   UNL     1       2.212   8.355  17.569  0.00  0.00    +0.000 C 
ATOM     18  C   UNL     1       2.000   9.884  17.921  0.00  0.00    +0.000 C 
ATOM     19  C   UNL     1       0.919  10.124  19.011  0.00  0.00    +0.000 C 
ATOM     20  C   UNL     1      -0.459   9.701  18.386  0.00  0.00    +0.000 C 
ENDROOT
BRANCH   1  21
ATOM     21  C   UNL     1      -0.542  12.335  19.504  0.00  0.00    +0.000 C 
ATOM     22  C   UNL     1      -1.539  12.569  20.606  0.00  0.00    +0.000 C 
ATOM     23  O   UNL     1      -0.827  12.758  18.376  0.00  0.00    +0.000 OA
ENDBRANCH   1  21
BRANCH   1  24
ATOM     24  O   UNL     1       1.977  12.444  19.939  0.00  0.00    +0.000 OA
BRANCH  24  25
ATOM     25  C   UNL     1       2.201  13.468  19.092  0.00  0.00    +0.000 C 
ATOM     26  O   UNL     1       2.530  13.294  17.927  0.00  0.00    +0.000 OA
BRANCH  25  27
ATOM     27  C   UNL     1       2.074  14.889  19.665  0.00  0.00    +0.000 C 
BRANCH  27  28
ATOM     28  C   UNL     1       3.076  16.026  19.428  0.00  0.00    +0.000 C 
BRANCH  28  29
ATOM     29  C   UNL     1       4.531  15.776  19.808  0.00  0.00    +0.000 C 
BRANCH  29  31
ATOM     30  C   UNL     1       5.776  14.671  17.829  0.00  0.00    +0.000 C 
ATOM     31  C   UNL     1       5.579  15.911  18.693  0.00  0.00    +0.000 C 
ENDBRANCH  29  31
ENDBRANCH  28  29
ENDBRANCH  27  28
ENDBRANCH  25  27
ENDBRANCH  24  25
ENDBRANCH   1  24
TORSDOF 7
ENDMDL
MODEL 8
REMARK VINA RESULT:      -7.0      2.728      7.786
REMARK  Name = 
REMARK  11 active torsions:
REMARK  status: ('A' for Active; 'I' for Inactive)
REMARK    1  A    between atoms: C_1  and  C_2
REMARK    2  A    between atoms: C_2  and  C_3
REMARK    3  A    between atoms: C_3  and  C_4
REMARK    4  A    between atoms: C_4  and  C_5
REMARK    5  A    between atoms: C_5  and  C_6
REMARK    6  A    between atoms: C_6  and  O_8
REMARK    7  A    between atoms: O_8  and  C_9
REMARK    8  A    between atoms: C_9  and  C_10
REMARK    9  A    between atoms: C_10  and  C_11
REMARK   10  A    between atoms: C_25  and  C_26
REMARK   11  A    between atoms: C_30  and  C_31
REMARK                            x       y       z     vdW  Elec       q    Type
REMARK                         _______ _______ _______ _____ _____    ______ ____
ROOT
ATOM      1  C   UNL     1       0.662  11.486  20.069  0.00  0.00    +0.000 C 
ATOM      2  C   UNL     1       0.552  10.939  21.554  0.00  0.00    +0.000 C 
ATOM      3  C   UNL     1       0.269   9.456  21.467  0.00  0.00    +0.000 C 
ATOM      4  C   UNL     1       1.201   9.085  20.331  0.00  0.00    +0.000 C 
ATOM      5  C   UNL     1       1.243   7.618  19.906  0.00  0.00    +0.000 C 
ATOM      6  C   UNL     1       1.425   6.723  21.125  0.00  0.00    +0.000 C 
ATOM      7  C   UNL     1       1.312   5.282  20.695  0.00  0.00    +0.000 C 
ATOM      8  C   UNL     1       2.456   4.969  19.774  0.00  0.00    +0.000 C 
ATOM      9  C   UNL     1       3.254   3.960  20.162  0.00  0.00    +0.000 C 
ATOM     10  C   UNL     1       4.467   3.598  19.416  0.00  0.00    +0.000 C 
ATOM     11  O   UNL     1       5.230   2.752  19.873  0.00  0.00    +0.000 OA
ATOM     12  C   UNL     1       4.671   4.254  18.082  0.00  0.00    +0.000 C 
ATOM     13  C   UNL     1       4.206   5.717  18.142  0.00  0.00    +0.000 C 
ATOM     14  C   UNL     1       2.700   5.888  18.545  0.00  0.00    +0.000 C 
ATOM     15  C   UNL     1       1.846   5.410  17.350  0.00  0.00    +0.000 C 
ATOM     16  C   UNL     1       2.405   7.432  18.887  0.00  0.00    +0.000 C 
ATOM     17  C   UNL     1       2.174   8.424  17.698  0.00  0.00    +0.000 C 
ATOM     18  C   UNL     1       1.921   9.927  18.123  0.00  0.00    +0.000 C 
ATOM     19  C   UNL     1       0.822  10.087  19.210  0.00  0.00    +0.000 C 
ATOM     20  C   UNL     1      -0.538   9.663  18.547  0.00  0.00    +0.000 C 
ENDROOT
BRANCH   1  21
ATOM     21  C   UNL     1      -0.698  12.235  19.794  0.00  0.00    +0.000 C 
ATOM     22  C   UNL     1      -1.730  12.356  20.883  0.00  0.00    +0.000 C 
ATOM     23  O   UNL     1      -0.968  12.733  18.694  0.00  0.00    +0.000 OA
ENDBRANCH   1  21
BRANCH   1  24
ATOM     24  O   UNL     1       1.812  12.381  20.267  0.00  0.00    +0.000 OA
BRANCH  24  25
ATOM     25  C   UNL     1       1.657  13.649  20.696  0.00  0.00    +0.000 C 
ATOM     26  O   UNL     1       1.533  13.929  21.881  0.00  0.00    +0.000 OA
BRANCH  25  27
ATOM     27  C   UNL     1       1.589  14.747  19.621  0.00  0.00    +0.000 C 
BRANCH  27  28
ATOM     28  C   UNL     1       2.429  16.031  19.622  0.00  0.00    +0.000 C 
BRANCH  28  29
ATOM     29  C   UNL     1       2.817  16.623  18.272  0.00  0.00    +0.000 C 
BRANCH  29  31
ATOM     30  C   UNL     1       4.811  15.023  17.883  0.00  0.00    +0.000 C 
ATOM     31  C   UNL     1       3.582  15.710  17.301  0.00  0.00    +0.000 C 
ENDBRANCH  29  31
ENDBRANCH  28  29
ENDBRANCH  27  28
ENDBRANCH  25  27
ENDBRANCH  24  25
ENDBRANCH   1  24
TORSDOF 7
ENDMDL
MODEL 9
REMARK VINA RESULT:      -7.0      2.800      8.047
REMARK  Name = 
REMARK  11 active torsions:
REMARK  status: ('A' for Active; 'I' for Inactive)
REMARK    1  A    between atoms: C_1  and  C_2
REMARK    2  A    between atoms: C_2  and  C_3
REMARK    3  A    between atoms: C_3  and  C_4
REMARK    4  A    between atoms: C_4  and  C_5
REMARK    5  A    between atoms: C_5  and  C_6
REMARK    6  A    between atoms: C_6  and  O_8
REMARK    7  A    between atoms: O_8  and  C_9
REMARK    8  A    between atoms: C_9  and  C_10
REMARK    9  A    between atoms: C_10  and  C_11
REMARK   10  A    between atoms: C_25  and  C_26
REMARK   11  A    between atoms: C_30  and  C_31
REMARK                            x       y       z     vdW  Elec       q    Type
REMARK                         _______ _______ _______ _____ _____    ______ ____
ROOT
ATOM      1  C   UNL     1       0.811  11.464  19.710  0.00  0.00    +0.000 C 
ATOM      2  C   UNL     1       0.658  11.006  21.221  0.00  0.00    +0.000 C 
ATOM      3  C   UNL     1       0.337   9.529  21.213  0.00  0.00    +0.000 C 
ATOM      4  C   UNL     1       1.281   9.069  20.119  0.00  0.00    +0.000 C 
ATOM      5  C   UNL     1       1.291   7.579  19.779  0.00  0.00    +0.000 C 
ATOM      6  C   UNL     1       1.426   6.752  21.050  0.00  0.00    +0.000 C 
ATOM      7  C   UNL     1       1.283   5.291  20.701  0.00  0.00    +0.000 C 
ATOM      8  C   UNL     1       2.435   4.897  19.823  0.00  0.00    +0.000 C 
ATOM      9  C   UNL     1       3.199   3.892  20.284  0.00  0.00    +0.000 C 
ATOM     10  C   UNL     1       4.416   3.457  19.585  0.00  0.00    +0.000 C 
ATOM     11  O   UNL     1       5.147   2.620  20.105  0.00  0.00    +0.000 OA
ATOM     12  C   UNL     1       4.663   4.030  18.220  0.00  0.00    +0.000 C 
ATOM     13  C   UNL     1       4.236   5.506  18.188  0.00  0.00    +0.000 C 
ATOM     14  C   UNL     1       2.727   5.738  18.549  0.00  0.00    +0.000 C 
ATOM     15  C   UNL     1       1.884   5.214  17.366  0.00  0.00    +0.000 C 
ATOM     16  C   UNL     1       2.468   7.306  18.797  0.00  0.00    +0.000 C 
ATOM     17  C   UNL     1       2.286   8.233  17.548  0.00  0.00    +0.000 C 
ATOM     18  C   UNL     1       2.065   9.764  17.882  0.00  0.00    +0.000 C 
ATOM     19  C   UNL     1       0.950  10.014  18.935  0.00  0.00    +0.000 C 
ATOM     20  C   UNL     1      -0.408   9.588  18.269  0.00  0.00    +0.000 C 
ENDROOT
BRANCH   1  21
ATOM     21  C   UNL     1      -0.523  12.230  19.365  0.00  0.00    +0.000 C 
ATOM     22  C   UNL     1      -1.570  12.443  20.425  0.00  0.00    +0.000 C 
ATOM     23  O   UNL     1      -0.760  12.669  18.232  0.00  0.00    +0.000 OA
ENDBRANCH   1  21
BRANCH   1  24
ATOM     24  O   UNL     1       1.980  12.339  19.880  0.00  0.00    +0.000 OA
BRANCH  24  25
ATOM     25  C   UNL     1       2.185  13.409  19.088  0.00  0.00    +0.000 C 
ATOM     26  O   UNL     1       2.627  13.308  17.951  0.00  0.00    +0.000 OA
BRANCH  25  27
ATOM     27  C   UNL     1       1.886  14.793  19.690  0.00  0.00    +0.000 C 
BRANCH  27  28
ATOM     28  C   UNL     1       1.984  15.143  21.180  0.00  0.00    +0.000 C 
BRANCH  28  29
ATOM     29  C   UNL     1       0.783  14.825  22.063  0.00  0.00    +0.000 C 
BRANCH  29  31
ATOM     30  C   UNL     1      -1.558  15.490  22.934  0.00  0.00    +0.000 C 
ATOM     31  C   UNL     1      -0.461  15.711  21.900  0.00  0.00    +0.000 C 
ENDBRANCH  29  31
ENDBRANCH  28  29
ENDBRANCH  27  28
ENDBRANCH  25  27
ENDBRANCH  24  25
ENDBRANCH   1  24
TORSDOF 7
ENDMDL
