MODEL 1
REMARK VINA RESULT:      -6.8      0.000      0.000
REMARK  Name = 
REMARK  10 active torsions:
REMARK  status: ('A' for Active; 'I' for Inactive)
REMARK    1  A    between atoms: C_1  and  C_2
REMARK    2  A    between atoms: C_2  and  C_3
REMARK    3  A    between atoms: C_4  and  O_5
REMARK    4  A    between atoms: O_5  and  C_6
REMARK    5  A    between atoms: C_7  and  C_8
REMARK    6  A    between atoms: C_7  and  C_9
REMARK    7  A    between atoms: C_12  and  C_13
REMARK    8  A    between atoms: C_13  and  C_15
REMARK    9  A    between atoms: C_16  and  C_17
REMARK   10  A    between atoms: C_23  and  O_24
REMARK                            x       y       z     vdW  Elec       q    Type
REMARK                         _______ _______ _______ _____ _____    ______ ____
ROOT
ATOM      1  C   UNL     1       4.162   3.790  19.488  0.00  0.00    +0.000 C 
ATOM      2  C   UNL     1       2.917   4.319  19.583  0.00  0.00    +0.000 C 
ATOM      3  C   UNL     1       2.517   5.635  18.927  0.00  0.00    +0.000 C 
ATOM      4  C   UNL     1       2.062   6.637  20.010  0.00  0.00    +0.000 C 
ATOM      5  C   UNL     1       1.458   5.462  17.816  0.00  0.00    +0.000 C 
ATOM      6  C   UNL     1       3.696   6.330  18.226  0.00  0.00    +0.000 C 
ATOM      7  O   UNL     1       3.549   7.481  17.794  0.00  0.00    +0.000 OA
ATOM      8  C   UNL     1       5.003   5.651  18.065  0.00  0.00    +0.000 C 
ATOM      9  C   UNL     1       5.186   4.465  18.687  0.00  0.00    +0.000 C 
ENDROOT
BRANCH   1  11
ATOM     10  C   UNL     1       4.538   1.132  19.654  0.00  0.00    +0.000 C 
ATOM     11  C   UNL     1       4.439   2.514  20.295  0.00  0.00    +0.000 C 
ENDBRANCH   1  11
BRANCH   2  12
ATOM     12  O   UNL     1       2.048   3.752  20.518  0.00  0.00    +0.000 OA
ATOM     13  C   UNL     1       1.011   2.888  20.064  0.00  0.00    +0.000 C 
ENDBRANCH   2  12
BRANCH   8  14
ATOM     14  C   UNL     1       6.146   6.249  17.297  0.00  0.00    +0.000 C 
ATOM     15  O   UNL     1       6.784   7.195  17.769  0.00  0.00    +0.000 OA
BRANCH  14  16
ATOM     16  C   UNL     1       6.535   5.659  15.987  0.00  0.00    +0.000 C 
ATOM     17  C   UNL     1       5.607   5.192  15.139  0.00  0.00    +0.000 C 
BRANCH  17  18
ATOM     18  C   UNL     1       6.027   4.535  13.900  0.00  0.00    +0.000 A 
ATOM     19  C   UNL     1       7.204   4.944  13.265  0.00  0.00    +0.000 A 
ATOM     20  C   UNL     1       7.586   4.378  12.046  0.00  0.00    +0.000 A 
ATOM     21  C   UNL     1       6.783   3.398  11.458  0.00  0.00    +0.000 A 
ATOM     22  C   UNL     1       5.615   2.984  12.084  0.00  0.00    +0.000 A 
ATOM     23  C   UNL     1       5.232   3.550  13.305  0.00  0.00    +0.000 A 
ENDBRANCH  17  18
ENDBRANCH  14  16
ENDBRANCH   8  14
BRANCH   9  24
ATOM     24  O   UNL     1       6.399   3.806  18.650  0.00  0.00    +0.000 OA
ATOM     25  H   UNL     1       6.877   4.036  17.820  0.00  0.00    +0.000 HD
ENDBRANCH   9  24
TORSDOF 6
ENDMDL
MODEL 2
REMARK VINA RESULT:      -6.8      1.513      3.274
REMARK  Name = 
REMARK  10 active torsions:
REMARK  status: ('A' for Active; 'I' for Inactive)
REMARK    1  A    between atoms: C_1  and  C_2
REMARK    2  A    between atoms: C_2  and  C_3
REMARK    3  A    between atoms: C_4  and  O_5
REMARK    4  A    between atoms: O_5  and  C_6
REMARK    5  A    between atoms: C_7  and  C_8
REMARK    6  A    between atoms: C_7  and  C_9
REMARK    7  A    between atoms: C_12  and  C_13
REMARK    8  A    between atoms: C_13  and  C_15
REMARK    9  A    between atoms: C_16  and  C_17
REMARK   10  A    between atoms: C_23  and  O_24
REMARK                            x       y       z     vdW  Elec       q    Type
REMARK                         _______ _______ _______ _____ _____    ______ ____
ROOT
ATOM      1  C   UNL     1       3.423   6.155  18.324  0.00  0.00    +0.000 C 
ATOM      2  C   UNL     1       2.916   4.955  18.700  0.00  0.00    +0.000 C 
ATOM      3  C   UNL     1       3.508   3.623  18.255  0.00  0.00    +0.000 C 
ATOM      4  C   UNL     1       2.451   2.823  17.465  0.00  0.00    +0.000 C 
ATOM      5  C   UNL     1       4.103   2.804  19.421  0.00  0.00    +0.000 C 
ATOM      6  C   UNL     1       4.679   3.794  17.273  0.00  0.00    +0.000 C 
ATOM      7  O   UNL     1       5.145   2.796  16.708  0.00  0.00    +0.000 OA
ATOM      8  C   UNL     1       5.253   5.130  16.986  0.00  0.00    +0.000 C 
ATOM      9  C   UNL     1       4.623   6.215  17.487  0.00  0.00    +0.000 C 
ENDROOT
BRANCH   1  11
ATOM     10  C   UNL     1       2.027   8.389  17.778  0.00  0.00    +0.000 C 
ATOM     11  C   UNL     1       2.649   7.406  18.766  0.00  0.00    +0.000 C 
ENDBRANCH   1  11
BRANCH   2  12
ATOM     12  O   UNL     1       1.664   4.951  19.319  0.00  0.00    +0.000 OA
ATOM     13  C   UNL     1       1.571   4.584  20.691  0.00  0.00    +0.000 C 
ENDBRANCH   2  12
BRANCH   8  14
ATOM     14  C   UNL     1       6.461   5.331  16.117  0.00  0.00    +0.000 C 
ATOM     15  O   UNL     1       7.292   6.200  16.401  0.00  0.00    +0.000 OA
BRANCH  14  16
ATOM     16  C   UNL     1       6.674   4.443  14.943  0.00  0.00    +0.000 C 
ATOM     17  C   UNL     1       5.923   4.567  13.839  0.00  0.00    +0.000 C 
BRANCH  17  18
ATOM     18  C   UNL     1       6.095   3.618  12.737  0.00  0.00    +0.000 A 
ATOM     19  C   UNL     1       4.981   2.951  12.219  0.00  0.00    +0.000 A 
ATOM     20  C   UNL     1       5.133   1.992  11.214  0.00  0.00    +0.000 A 
ATOM     21  C   UNL     1       6.409   1.697  10.728  0.00  0.00    +0.000 A 
ATOM     22  C   UNL     1       7.520   2.359  11.234  0.00  0.00    +0.000 A 
ATOM     23  C   UNL     1       7.368   3.320  12.240  0.00  0.00    +0.000 A 
ENDBRANCH  17  18
ENDBRANCH  14  16
ENDBRANCH   8  14
BRANCH   9  24
ATOM     24  O   UNL     1       5.049   7.497  17.202  0.00  0.00    +0.000 OA
ATOM     25  H   UNL     1       4.490   7.883  16.489  0.00  0.00    +0.000 HD
ENDBRANCH   9  24
TORSDOF 6
ENDMDL
MODEL 3
REMARK VINA RESULT:      -6.7      3.128      7.692
REMARK  Name = 
REMARK  10 active torsions:
REMARK  status: ('A' for Active; 'I' for Inactive)
REMARK    1  A    between atoms: C_1  and  C_2
REMARK    2  A    between atoms: C_2  and  C_3
REMARK    3  A    between atoms: C_4  and  O_5
REMARK    4  A    between atoms: O_5  and  C_6
REMARK    5  A    between atoms: C_7  and  C_8
REMARK    6  A    between atoms: C_7  and  C_9
REMARK    7  A    between atoms: C_12  and  C_13
REMARK    8  A    between atoms: C_13  and  C_15
REMARK    9  A    between atoms: C_16  and  C_17
REMARK   10  A    between atoms: C_23  and  O_24
REMARK                            x       y       z     vdW  Elec       q    Type
REMARK                         _______ _______ _______ _____ _____    ______ ____
ROOT
ATOM      1  C   UNL     1       4.194   4.664  18.277  0.00  0.00    +0.000 C 
ATOM      2  C   UNL     1       3.565   3.718  19.018  0.00  0.00    +0.000 C 
ATOM      3  C   UNL     1       2.360   4.015  19.902  0.00  0.00    +0.000 C 
ATOM      4  C   UNL     1       2.696   3.674  21.370  0.00  0.00    +0.000 C 
ATOM      5  C   UNL     1       1.070   3.313  19.425  0.00  0.00    +0.000 C 
ATOM      6  C   UNL     1       1.996   5.509  19.924  0.00  0.00    +0.000 C 
ATOM      7  O   UNL     1       1.142   5.911  20.726  0.00  0.00    +0.000 OA
ATOM      8  C   UNL     1       2.651   6.474  19.011  0.00  0.00    +0.000 C 
ATOM      9  C   UNL     1       3.691   6.039  18.265  0.00  0.00    +0.000 C 
ENDROOT
BRANCH   1  11
ATOM     10  C   UNL     1       5.459   3.860  16.044  0.00  0.00    +0.000 C 
ATOM     11  C   UNL     1       5.460   4.230  17.524  0.00  0.00    +0.000 C 
ENDBRANCH   1  11
BRANCH   2  12
ATOM     12  O   UNL     1       4.202   2.482  19.157  0.00  0.00    +0.000 OA
ATOM     13  C   UNL     1       3.658   1.345  18.497  0.00  0.00    +0.000 C 
ENDBRANCH   2  12
BRANCH   8  14
ATOM     14  C   UNL     1       2.253   7.919  18.925  0.00  0.00    +0.000 C 
ATOM     15  O   UNL     1       2.579   8.595  17.944  0.00  0.00    +0.000 OA
BRANCH  14  16
ATOM     16  C   UNL     1       1.420   8.514  20.005  0.00  0.00    +0.000 C 
ATOM     17  C   UNL     1       0.625   9.566  19.763  0.00  0.00    +0.000 C 
BRANCH  17  18
ATOM     18  C   UNL     1      -0.112  10.184  20.866  0.00  0.00    +0.000 A 
ATOM     19  C   UNL     1      -0.652  11.464  20.705  0.00  0.00    +0.000 A 
ATOM     20  C   UNL     1      -1.299  12.099  21.769  0.00  0.00    +0.000 A 
ATOM     21  C   UNL     1      -1.404  11.449  23.001  0.00  0.00    +0.000 A 
ATOM     22  C   UNL     1      -0.875  10.176  23.166  0.00  0.00    +0.000 A 
ATOM     23  C   UNL     1      -0.228   9.540  22.102  0.00  0.00    +0.000 A 
ENDBRANCH  17  18
ENDBRANCH  14  16
ENDBRANCH   8  14
BRANCH   9  24
ATOM     24  O   UNL     1       4.404   6.894  17.447  0.00  0.00    +0.000 OA
ATOM     25  H   UNL     1       5.369   6.727  17.552  0.00  0.00    +0.000 HD
ENDBRANCH   9  24
TORSDOF 6
ENDMDL
MODEL 4
REMARK VINA RESULT:      -6.7      2.911      4.950
REMARK  Name = 
REMARK  10 active torsions:
REMARK  status: ('A' for Active; 'I' for Inactive)
REMARK    1  A    between atoms: C_1  and  C_2
REMARK    2  A    between atoms: C_2  and  C_3
REMARK    3  A    between atoms: C_4  and  O_5
REMARK    4  A    between atoms: O_5  and  C_6
REMARK    5  A    between atoms: C_7  and  C_8
REMARK    6  A    between atoms: C_7  and  C_9
REMARK    7  A    between atoms: C_12  and  C_13
REMARK    8  A    between atoms: C_13  and  C_15
REMARK    9  A    between atoms: C_16  and  C_17
REMARK   10  A    between atoms: C_23  and  O_24
REMARK                            x       y       z     vdW  Elec       q    Type
REMARK                         _______ _______ _______ _____ _____    ______ ____
ROOT
ATOM      1  C   UNL     1       4.251   3.870  19.111  0.00  0.00    +0.000 C 
ATOM      2  C   UNL     1       3.001   4.374  19.267  0.00  0.00    +0.000 C 
ATOM      3  C   UNL     1       2.584   5.745  18.749  0.00  0.00    +0.000 C 
ATOM      4  C   UNL     1       2.129   6.629  19.929  0.00  0.00    +0.000 C 
ATOM      5  C   UNL     1       1.519   5.674  17.633  0.00  0.00    +0.000 C 
ATOM      6  C   UNL     1       3.752   6.518  18.113  0.00  0.00    +0.000 C 
ATOM      7  O   UNL     1       3.591   7.705  17.799  0.00  0.00    +0.000 OA
ATOM      8  C   UNL     1       5.064   5.871  17.877  0.00  0.00    +0.000 C 
ATOM      9  C   UNL     1       5.262   4.631  18.376  0.00  0.00    +0.000 C 
ENDROOT
BRANCH   1  11
ATOM     10  C   UNL     1       4.204   1.180  19.141  0.00  0.00    +0.000 C 
ATOM     11  C   UNL     1       4.545   2.521  19.785  0.00  0.00    +0.000 C 
ENDBRANCH   1  11
BRANCH   2  12
ATOM     12  O   UNL     1       2.144   3.707  20.146  0.00  0.00    +0.000 OA
ATOM     13  C   UNL     1       1.007   3.028  19.623  0.00  0.00    +0.000 C 
ENDBRANCH   2  12
BRANCH   8  14
ATOM     14  C   UNL     1       6.196   6.554  17.164  0.00  0.00    +0.000 C 
ATOM     15  O   UNL     1       6.689   6.045  16.153  0.00  0.00    +0.000 OA
BRANCH  14  16
ATOM     16  C   UNL     1       6.682   7.871  17.657  0.00  0.00    +0.000 C 
ATOM     17  C   UNL     1       7.980   8.199  17.582  0.00  0.00    +0.000 C 
BRANCH  17  18
ATOM     18  C   UNL     1       8.440   9.464  18.159  0.00  0.00    +0.000 A 
ATOM     19  C   UNL     1       8.256  10.654  17.448  0.00  0.00    +0.000 A 
ATOM     20  C   UNL     1       8.749  11.862  17.950  0.00  0.00    +0.000 A 
ATOM     21  C   UNL     1       9.432  11.877  19.168  0.00  0.00    +0.000 A 
ATOM     22  C   UNL     1       9.613  10.699  19.882  0.00  0.00    +0.000 A 
ATOM     23  C   UNL     1       9.120   9.490  19.380  0.00  0.00    +0.000 A 
ENDBRANCH  17  18
ENDBRANCH  14  16
ENDBRANCH   8  14
BRANCH   9  24
ATOM     24  O   UNL     1       6.481   3.991  18.265  0.00  0.00    +0.000 OA
ATOM     25  H   UNL     1       6.565   3.590  17.369  0.00  0.00    +0.000 HD
ENDBRANCH   9  24
TORSDOF 6
ENDMDL
MODEL 5
REMARK VINA RESULT:      -6.7      3.111      7.703
REMARK  Name = 
REMARK  10 active torsions:
REMARK  status: ('A' for Active; 'I' for Inactive)
REMARK    1  A    between atoms: C_1  and  C_2
REMARK    2  A    between atoms: C_2  and  C_3
REMARK    3  A    between atoms: C_4  and  O_5
REMARK    4  A    between atoms: O_5  and  C_6
REMARK    5  A    between atoms: C_7  and  C_8
REMARK    6  A    between atoms: C_7  and  C_9
REMARK    7  A    between atoms: C_12  and  C_13
REMARK    8  A    between atoms: C_13  and  C_15
REMARK    9  A    between atoms: C_16  and  C_17
REMARK   10  A    between atoms: C_23  and  O_24
REMARK                            x       y       z     vdW  Elec       q    Type
REMARK                         _______ _______ _______ _____ _____    ______ ____
ROOT
ATOM      1  C   UNL     1       4.218   4.582  18.451  0.00  0.00    +0.000 C 
ATOM      2  C   UNL     1       3.539   3.634  19.146  0.00  0.00    +0.000 C 
ATOM      3  C   UNL     1       2.265   3.926  19.928  0.00  0.00    +0.000 C 
ATOM      4  C   UNL     1       2.484   3.597  21.420  0.00  0.00    +0.000 C 
ATOM      5  C   UNL     1       1.023   3.211  19.353  0.00  0.00    +0.000 C 
ATOM      6  C   UNL     1       1.888   5.417  19.911  0.00  0.00    +0.000 C 
ATOM      7  O   UNL     1       0.969   5.816  20.639  0.00  0.00    +0.000 OA
ATOM      8  C   UNL     1       2.607   6.382  19.047  0.00  0.00    +0.000 C 
ATOM      9  C   UNL     1       3.706   5.952  18.390  0.00  0.00    +0.000 C 
ENDROOT
BRANCH   1  11
ATOM     10  C   UNL     1       5.698   3.918  16.306  0.00  0.00    +0.000 C 
ATOM     11  C   UNL     1       5.544   4.154  17.806  0.00  0.00    +0.000 C 
ENDBRANCH   1  11
BRANCH   2  12
ATOM     12  O   UNL     1       4.173   2.405  19.344  0.00  0.00    +0.000 OA
ATOM     13  C   UNL     1       3.666   1.251  18.682  0.00  0.00    +0.000 C 
ENDBRANCH   2  12
BRANCH   8  14
ATOM     14  C   UNL     1       2.205   7.824  18.920  0.00  0.00    +0.000 C 
ATOM     15  O   UNL     1       2.437   8.443  17.877  0.00  0.00    +0.000 OA
BRANCH  14  16
ATOM     16  C   UNL     1       1.481   8.482  20.040  0.00  0.00    +0.000 C 
ATOM     17  C   UNL     1       0.673   9.530  19.819  0.00  0.00    +0.000 C 
BRANCH  17  18
ATOM     18  C   UNL     1       0.047  10.212  20.952  0.00  0.00    +0.000 A 
ATOM     19  C   UNL     1      -0.154   9.519  22.150  0.00  0.00    +0.000 A 
ATOM     20  C   UNL     1      -0.811  10.131  23.221  0.00  0.00    +0.000 A 
ATOM     21  C   UNL     1      -1.272  11.443  23.091  0.00  0.00    +0.000 A 
ATOM     22  C   UNL     1      -1.072  12.139  21.905  0.00  0.00    +0.000 A 
ATOM     23  C   UNL     1      -0.413  11.527  20.833  0.00  0.00    +0.000 A 
ENDBRANCH  17  18
ENDBRANCH  14  16
ENDBRANCH   8  14
BRANCH   9  24
ATOM     24  O   UNL     1       4.476   6.808  17.626  0.00  0.00    +0.000 OA
ATOM     25  H   UNL     1       4.725   7.597  18.160  0.00  0.00    +0.000 HD
ENDBRANCH   9  24
TORSDOF 6
ENDMDL
MODEL 6
REMARK VINA RESULT:      -6.6      2.909      4.957
REMARK  Name = 
REMARK  10 active torsions:
REMARK  status: ('A' for Active; 'I' for Inactive)
REMARK    1  A    between atoms: C_1  and  C_2
REMARK    2  A    between atoms: C_2  and  C_3
REMARK    3  A    between atoms: C_4  and  O_5
REMARK    4  A    between atoms: O_5  and  C_6
REMARK    5  A    between atoms: C_7  and  C_8
REMARK    6  A    between atoms: C_7  and  C_9
REMARK    7  A    between atoms: C_12  and  C_13
REMARK    8  A    between atoms: C_13  and  C_15
REMARK    9  A    between atoms: C_16  and  C_17
REMARK   10  A    between atoms: C_23  and  O_24
REMARK                            x       y       z     vdW  Elec       q    Type
REMARK                         _______ _______ _______ _____ _____    ______ ____
ROOT
ATOM      1  C   UNL     1       4.284   4.030  19.142  0.00  0.00    +0.000 C 
ATOM      2  C   UNL     1       3.063   4.596  19.309  0.00  0.00    +0.000 C 
ATOM      3  C   UNL     1       2.694   5.963  18.745  0.00  0.00    +0.000 C 
ATOM      4  C   UNL     1       2.312   6.915  19.899  0.00  0.00    +0.000 C 
ATOM      5  C   UNL     1       1.596   5.896  17.662  0.00  0.00    +0.000 C 
ATOM      6  C   UNL     1       3.876   6.655  18.047  0.00  0.00    +0.000 C 
ATOM      7  O   UNL     1       3.760   7.835  17.688  0.00  0.00    +0.000 OA
ATOM      8  C   UNL     1       5.151   5.940  17.803  0.00  0.00    +0.000 C 
ATOM      9  C   UNL     1       5.307   4.714  18.349  0.00  0.00    +0.000 C 
ENDROOT
BRANCH   1  11
ATOM     10  C   UNL     1       4.126   1.348  19.281  0.00  0.00    +0.000 C 
ATOM     11  C   UNL     1       4.537   2.698  19.863  0.00  0.00    +0.000 C 
ENDBRANCH   1  11
BRANCH   2  12
ATOM     12  O   UNL     1       2.203   4.006  20.238  0.00  0.00    +0.000 OA
ATOM     13  C   UNL     1       1.020   3.364  19.774  0.00  0.00    +0.000 C 
ENDBRANCH   2  12
BRANCH   8  14
ATOM     14  C   UNL     1       6.292   6.541  17.033  0.00  0.00    +0.000 C 
ATOM     15  O   UNL     1       6.776   5.938  16.071  0.00  0.00    +0.000 OA
BRANCH  14  16
ATOM     16  C   UNL     1       6.798   7.889  17.409  0.00  0.00    +0.000 C 
ATOM     17  C   UNL     1       8.072   8.067  17.786  0.00  0.00    +0.000 C 
BRANCH  17  18
ATOM     18  C   UNL     1       8.514   9.388  18.236  0.00  0.00    +0.000 A 
ATOM     19  C   UNL     1       9.120   9.523  19.489  0.00  0.00    +0.000 A 
ATOM     20  C   UNL     1       9.488  10.784  19.967  0.00  0.00    +0.000 A 
ATOM     21  C   UNL     1       9.244  11.917  19.186  0.00  0.00    +0.000 A 
ATOM     22  C   UNL     1       8.647  11.789  17.938  0.00  0.00    +0.000 A 
ATOM     23  C   UNL     1       8.280  10.527  17.460  0.00  0.00    +0.000 A 
ENDBRANCH  17  18
ENDBRANCH  14  16
ENDBRANCH   8  14
BRANCH   9  24
ATOM     24  O   UNL     1       6.493   4.014  18.232  0.00  0.00    +0.000 OA
ATOM     25  H   UNL     1       6.777   3.996  17.290  0.00  0.00    +0.000 HD
ENDBRANCH   9  24
TORSDOF 6
ENDMDL
MODEL 7
REMARK VINA RESULT:      -6.6      6.943      9.503
REMARK  Name = 
REMARK  10 active torsions:
REMARK  status: ('A' for Active; 'I' for Inactive)
REMARK    1  A    between atoms: C_1  and  C_2
REMARK    2  A    between atoms: C_2  and  C_3
REMARK    3  A    between atoms: C_4  and  O_5
REMARK    4  A    between atoms: O_5  and  C_6
REMARK    5  A    between atoms: C_7  and  C_8
REMARK    6  A    between atoms: C_7  and  C_9
REMARK    7  A    between atoms: C_12  and  C_13
REMARK    8  A    between atoms: C_13  and  C_15
REMARK    9  A    between atoms: C_16  and  C_17
REMARK   10  A    between atoms: C_23  and  O_24
REMARK                            x       y       z     vdW  Elec       q    Type
REMARK                         _______ _______ _______ _____ _____    ______ ____
ROOT
ATOM      1  C   UNL     1       7.721  14.385  18.886  0.00  0.00    +0.000 C 
ATOM      2  C   UNL     1       7.974  14.723  20.175  0.00  0.00    +0.000 C 
ATOM      3  C   UNL     1       8.843  13.883  21.102  0.00  0.00    +0.000 C 
ATOM      4  C   UNL     1       8.011  13.420  22.317  0.00  0.00    +0.000 C 
ATOM      5  C   UNL     1      10.143  14.599  21.529  0.00  0.00    +0.000 C 
ATOM      6  C   UNL     1       9.325  12.579  20.443  0.00  0.00    +0.000 C 
ATOM      7  O   UNL     1       9.902  11.730  21.135  0.00  0.00    +0.000 OA
ATOM      8  C   UNL     1       9.104  12.320  19.001  0.00  0.00    +0.000 C 
ATOM      9  C   UNL     1       8.331  13.186  18.309  0.00  0.00    +0.000 C 
ENDROOT
BRANCH   1  11
ATOM     10  C   UNL     1       5.264  14.921  17.931  0.00  0.00    +0.000 C 
ATOM     11  C   UNL     1       6.737  15.276  18.114  0.00  0.00    +0.000 C 
ENDBRANCH   1  11
BRANCH   2  12
ATOM     12  O   UNL     1       7.209  15.750  20.732  0.00  0.00    +0.000 OA
ATOM     13  C   UNL     1       7.744  17.069  20.771  0.00  0.00    +0.000 C 
ENDBRANCH   2  12
BRANCH   8  14
ATOM     14  C   UNL     1       9.649  11.111  18.295  0.00  0.00    +0.000 C 
ATOM     15  O   UNL     1      10.622  11.219  17.542  0.00  0.00    +0.000 OA
BRANCH  14  16
ATOM     16  C   UNL     1       9.038   9.779  18.549  0.00  0.00    +0.000 C 
ATOM     17  C   UNL     1       8.368   9.132  17.584  0.00  0.00    +0.000 C 
BRANCH  17  18
ATOM     18  C   UNL     1       7.701   7.866  17.892  0.00  0.00    +0.000 A 
ATOM     19  C   UNL     1       8.269   6.995  18.827  0.00  0.00    +0.000 A 
ATOM     20  C   UNL     1       7.685   5.752  19.085  0.00  0.00    +0.000 A 
ATOM     21  C   UNL     1       6.527   5.378  18.400  0.00  0.00    +0.000 A 
ATOM     22  C   UNL     1       5.954   6.239  17.473  0.00  0.00    +0.000 A 
ATOM     23  C   UNL     1       6.538   7.484  17.215  0.00  0.00    +0.000 A 
ENDBRANCH  17  18
ENDBRANCH  14  16
ENDBRANCH   8  14
BRANCH   9  24
ATOM     24  O   UNL     1       8.015  12.974  16.981  0.00  0.00    +0.000 OA
ATOM     25  H   UNL     1       7.050  12.803  16.893  0.00  0.00    +0.000 HD
ENDBRANCH   9  24
TORSDOF 6
ENDMDL
MODEL 8
REMARK VINA RESULT:      -6.6      5.051      8.462
REMARK  Name = 
REMARK  10 active torsions:
REMARK  status: ('A' for Active; 'I' for Inactive)
REMARK    1  A    between atoms: C_1  and  C_2
REMARK    2  A    between atoms: C_2  and  C_3
REMARK    3  A    between atoms: C_4  and  O_5
REMARK    4  A    between atoms: O_5  and  C_6
REMARK    5  A    between atoms: C_7  and  C_8
REMARK    6  A    between atoms: C_7  and  C_9
REMARK    7  A    between atoms: C_12  and  C_13
REMARK    8  A    between atoms: C_13  and  C_15
REMARK    9  A    between atoms: C_16  and  C_17
REMARK   10  A    between atoms: C_23  and  O_24
REMARK                            x       y       z     vdW  Elec       q    Type
REMARK                         _______ _______ _______ _____ _____    ______ ____
ROOT
ATOM      1  C   UNL     1      -1.781  11.372  19.028  0.00  0.00    +0.000 C 
ATOM      2  C   UNL     1      -1.779  11.976  20.242  0.00  0.00    +0.000 C 
ATOM      3  C   UNL     1      -0.651  11.811  21.254  0.00  0.00    +0.000 C 
ATOM      4  C   UNL     1      -1.207  11.188  22.553  0.00  0.00    +0.000 C 
ATOM      5  C   UNL     1       0.120  13.121  21.523  0.00  0.00    +0.000 C 
ATOM      6  C   UNL     1       0.428  10.823  20.781  0.00  0.00    +0.000 C 
ATOM      7  O   UNL     1       1.315  10.472  21.572  0.00  0.00    +0.000 OA
ATOM      8  C   UNL     1       0.423  10.280  19.403  0.00  0.00    +0.000 C 
ATOM      9  C   UNL     1      -0.642  10.549  18.616  0.00  0.00    +0.000 C 
ENDROOT
BRANCH   1  11
ATOM     10  C   UNL     1      -3.993  10.402  17.844  0.00  0.00    +0.000 C 
ATOM     11  C   UNL     1      -3.040  11.550  18.166  0.00  0.00    +0.000 C 
ENDBRANCH   1  11
BRANCH   2  12
ATOM     12  O   UNL     1      -2.968  12.573  20.666  0.00  0.00    +0.000 OA
ATOM     13  C   UNL     1      -3.020  13.989  20.809  0.00  0.00    +0.000 C 
ENDBRANCH   2  12
BRANCH   8  14
ATOM     14  C   UNL     1       1.514   9.397  18.867  0.00  0.00    +0.000 C 
ATOM     15  O   UNL     1       2.267   9.812  17.980  0.00  0.00    +0.000 OA
BRANCH  14  16
ATOM     16  C   UNL     1       1.710   8.042  19.448  0.00  0.00    +0.000 C 
ATOM     17  C   UNL     1       2.462   7.125  18.821  0.00  0.00    +0.000 C 
BRANCH  17  18
ATOM     18  C   UNL     1       2.560   5.773  19.373  0.00  0.00    +0.000 A 
ATOM     19  C   UNL     1       1.827   5.438  20.516  0.00  0.00    +0.000 A 
ATOM     20  C   UNL     1       1.960   4.174  21.097  0.00  0.00    +0.000 A 
ATOM     21  C   UNL     1       2.833   3.241  20.533  0.00  0.00    +0.000 A 
ATOM     22  C   UNL     1       3.561   3.566  19.395  0.00  0.00    +0.000 A 
ATOM     23  C   UNL     1       3.428   4.830  18.812  0.00  0.00    +0.000 A 
ENDBRANCH  17  18
ENDBRANCH  14  16
ENDBRANCH   8  14
BRANCH   9  24
ATOM     24  O   UNL     1      -0.760  10.018  17.347  0.00  0.00    +0.000 OA
ATOM     25  H   UNL     1       0.064   9.531  17.113  0.00  0.00    +0.000 HD
ENDBRANCH   9  24
TORSDOF 6
ENDMDL
MODEL 9
REMARK VINA RESULT:      -6.6      5.216      8.689
REMARK  Name = 
REMARK  10 active torsions:
REMARK  status: ('A' for Active; 'I' for Inactive)
REMARK    1  A    between atoms: C_1  and  C_2
REMARK    2  A    between atoms: C_2  and  C_3
REMARK    3  A    between atoms: C_4  and  O_5
REMARK    4  A    between atoms: O_5  and  C_6
REMARK    5  A    between atoms: C_7  and  C_8
REMARK    6  A    between atoms: C_7  and  C_9
REMARK    7  A    between atoms: C_12  and  C_13
REMARK    8  A    between atoms: C_13  and  C_15
REMARK    9  A    between atoms: C_16  and  C_17
REMARK   10  A    between atoms: C_23  and  O_24
REMARK                            x       y       z     vdW  Elec       q    Type
REMARK                         _______ _______ _______ _____ _____    ______ ____
ROOT
ATOM      1  C   UNL     1      -1.293  11.729  21.876  0.00  0.00    +0.000 C 
ATOM      2  C   UNL     1      -1.576  12.141  20.616  0.00  0.00    +0.000 C 
ATOM      3  C   UNL     1      -0.979  11.495  19.372  0.00  0.00    +0.000 C 
ATOM      4  C   UNL     1      -0.167  12.543  18.581  0.00  0.00    +0.000 C 
ATOM      5  C   UNL     1      -2.032  10.791  18.489  0.00  0.00    +0.000 C 
ATOM      6  C   UNL     1       0.037  10.390  19.708  0.00  0.00    +0.000 C 
ATOM      7  O   UNL     1       0.716   9.896  18.798  0.00  0.00    +0.000 OA
ATOM      8  C   UNL     1       0.222   9.914  21.099  0.00  0.00    +0.000 C 
ATOM      9  C   UNL     1      -0.410  10.580  22.090  0.00  0.00    +0.000 C 
ENDROOT
BRANCH   1  11
ATOM     10  C   UNL     1      -3.275  12.286  23.607  0.00  0.00    +0.000 C 
ATOM     11  C   UNL     1      -1.888  12.552  23.028  0.00  0.00    +0.000 C 
ENDBRANCH   1  11
BRANCH   2  12
ATOM     12  O   UNL     1      -2.250  13.357  20.474  0.00  0.00    +0.000 OA
ATOM     13  C   UNL     1      -1.514  14.572  20.573  0.00  0.00    +0.000 C 
ENDBRANCH   2  12
BRANCH   8  14
ATOM     14  C   UNL     1       1.123   8.767  21.458  0.00  0.00    +0.000 C 
ATOM     15  O   UNL     1       1.980   8.903  22.337  0.00  0.00    +0.000 OA
BRANCH  14  16
ATOM     16  C   UNL     1       0.942   7.455  20.781  0.00  0.00    +0.000 C 
ATOM     17  C   UNL     1       1.926   6.545  20.766  0.00  0.00    +0.000 C 
BRANCH  17  18
ATOM     18  C   UNL     1       1.749   5.301  20.014  0.00  0.00    +0.000 A 
ATOM     19  C   UNL     1       2.035   5.274  18.645  0.00  0.00    +0.000 A 
ATOM     20  C   UNL     1       1.807   4.117  17.896  0.00  0.00    +0.000 A 
ATOM     21  C   UNL     1       1.287   2.981  18.521  0.00  0.00    +0.000 A 
ATOM     22  C   UNL     1       1.005   2.998  19.881  0.00  0.00    +0.000 A 
ATOM     23  C   UNL     1       1.233   4.157  20.631  0.00  0.00    +0.000 A 
ENDBRANCH  17  18
ENDBRANCH  14  16
ENDBRANCH   8  14
BRANCH   9  24
ATOM     24  O   UNL     1      -0.229  10.247  23.418  0.00  0.00    +0.000 OA
ATOM     25  H   UNL     1      -0.367   9.280  23.540  0.00  0.00    +0.000 HD
ENDBRANCH   9  24
TORSDOF 6
ENDMDL
