MODEL 1
REMARK VINA RESULT:      -8.5      0.000      0.000
REMARK  Name = 
REMARK  7 active torsions:
REMARK  status: ('A' for Active; 'I' for Inactive)
REMARK    1  A    between atoms: C_1  and  C_2
REMARK    2  A    between atoms: C_4  and  C_5
REMARK    3  A    between atoms: C_5  and  N_6
REMARK    4  A    between atoms: C_7  and  C_9
REMARK    5  A    between atoms: C_9  and  C_10
REMARK    6  A    between atoms: C_21  and  C_22
REMARK    7  A    between atoms: C_22  and  O_24
REMARK                            x       y       z     vdW  Elec       q    Type
REMARK                         _______ _______ _______ _____ _____    ______ ____
ROOT
ATOM      1  N   UNL     1       5.046   4.948  17.428  0.00  0.00    +0.000 N 
ATOM      2  C   UNL     1       4.704   4.334  18.613  0.00  0.00    +0.000 C 
ATOM      3  O   UNL     1       5.543   3.869  19.383  0.00  0.00    +0.000 OA
ATOM      4  H   UNL     1       4.337   5.305  16.803  0.00  0.00    +0.000 HD
ENDROOT
BRANCH   1   5
ATOM      5  C   UNL     1       6.431   5.001  17.021  0.00  0.00    +0.000 C 
BRANCH   5   9
ATOM      6  C   UNL     1       8.300   5.678  12.629  0.00  0.00    +0.000 C 
ATOM      7  C   UNL     1       7.387   4.968  13.554  0.00  0.00    +0.000 A 
ATOM      8  O   UNL     1       7.470   5.386  14.853  0.00  0.00    +0.000 OA
ATOM      9  C   UNL     1       6.568   4.673  15.581  0.00  0.00    +0.000 A 
ATOM     10  C   UNL     1       5.916   3.786  14.757  0.00  0.00    +0.000 A 
ATOM     11  C   UNL     1       6.435   3.963  13.432  0.00  0.00    +0.000 A 
BRANCH  11  12
ATOM     12  C   UNL     1       5.979   3.204  12.272  0.00  0.00    +0.000 C 
ATOM     13  O   UNL     1       4.861   3.348  11.797  0.00  0.00    +0.000 OA
BRANCH  12  14
ATOM     14  O   UNL     1       6.846   2.317  11.730  0.00  0.00    +0.000 OA
ATOM     15  H   UNL     1       6.609   1.387  11.859  0.00  0.00    +0.000 HD
ENDBRANCH  12  14
ENDBRANCH  11  12
ENDBRANCH   5   9
ENDBRANCH   1   5
BRANCH   2  16
ATOM     16  C   UNL     1       3.216   4.247  18.891  0.00  0.00    +0.000 C 
BRANCH  16  17
ATOM     17  C   UNL     1       2.567   5.564  19.251  0.00  0.00    +0.000 A 
ATOM     18  C   UNL     1       2.001   5.739  20.518  0.00  0.00    +0.000 A 
ATOM     19  C   UNL     1       1.469   6.974  20.895  0.00  0.00    +0.000 A 
ATOM     20  C   UNL     1       1.492   8.066  20.017  0.00  0.00    +0.000 A 
ATOM     21  C   UNL     1       0.974   9.315  20.399  0.00  0.00    +0.000 A 
ATOM     22  C   UNL     1       1.006  10.399  19.522  0.00  0.00    +0.000 A 
ATOM     23  C   UNL     1       1.552  10.246  18.251  0.00  0.00    +0.000 A 
ATOM     24  C   UNL     1       2.074   9.010  17.858  0.00  0.00    +0.000 A 
ATOM     25  C   UNL     1       2.055   7.907  18.730  0.00  0.00    +0.000 A 
ATOM     26  C   UNL     1       2.587   6.654  18.364  0.00  0.00    +0.000 A 
ENDBRANCH  16  17
ENDBRANCH   2  16
TORSDOF 6
ENDMDL
MODEL 2
REMARK VINA RESULT:      -8.5      2.185      3.593
REMARK  Name = 
REMARK  7 active torsions:
REMARK  status: ('A' for Active; 'I' for Inactive)
REMARK    1  A    between atoms: C_1  and  C_2
REMARK    2  A    between atoms: C_4  and  C_5
REMARK    3  A    between atoms: C_5  and  N_6
REMARK    4  A    between atoms: C_7  and  C_9
REMARK    5  A    between atoms: C_9  and  C_10
REMARK    6  A    between atoms: C_21  and  C_22
REMARK    7  A    between atoms: C_22  and  O_24
REMARK                            x       y       z     vdW  Elec       q    Type
REMARK                         _______ _______ _______ _____ _____    ______ ____
ROOT
ATOM      1  N   UNL     1       5.546   5.452  17.227  0.00  0.00    +0.000 N 
ATOM      2  C   UNL     1       5.349   6.816  17.226  0.00  0.00    +0.000 C 
ATOM      3  O   UNL     1       6.200   7.607  16.821  0.00  0.00    +0.000 OA
ATOM      4  H   UNL     1       4.839   4.824  17.583  0.00  0.00    +0.000 HD
ENDROOT
BRANCH   1   5
ATOM      5  C   UNL     1       6.816   4.911  16.804  0.00  0.00    +0.000 C 
BRANCH   5   9
ATOM      6  C   UNL     1       8.095   5.677  12.219  0.00  0.00    +0.000 C 
ATOM      7  C   UNL     1       7.341   4.921  13.246  0.00  0.00    +0.000 A 
ATOM      8  O   UNL     1       7.561   5.346  14.526  0.00  0.00    +0.000 OA
ATOM      9  C   UNL     1       6.793   4.587  15.356  0.00  0.00    +0.000 A 
ATOM     10  C   UNL     1       6.094   3.666  14.614  0.00  0.00    +0.000 A 
ATOM     11  C   UNL     1       6.436   3.866  13.236  0.00  0.00    +0.000 A 
BRANCH  11  12
ATOM     12  C   UNL     1       5.882   3.082  12.138  0.00  0.00    +0.000 C 
ATOM     13  O   UNL     1       4.788   3.325  11.650  0.00  0.00    +0.000 OA
BRANCH  12  14
ATOM     14  O   UNL     1       6.631   2.055  11.669  0.00  0.00    +0.000 OA
ATOM     15  H   UNL     1       6.659   1.278  12.246  0.00  0.00    +0.000 HD
ENDBRANCH  12  14
ENDBRANCH  11  12
ENDBRANCH   5   9
ENDBRANCH   1   5
BRANCH   2  16
ATOM     16  C   UNL     1       4.017   7.278  17.784  0.00  0.00    +0.000 C 
BRANCH  16  17
ATOM     17  C   UNL     1       3.148   6.170  18.333  0.00  0.00    +0.000 A 
ATOM     18  C   UNL     1       2.250   5.506  17.491  0.00  0.00    +0.000 A 
ATOM     19  C   UNL     1       1.498   4.428  17.962  0.00  0.00    +0.000 A 
ATOM     20  C   UNL     1       1.626   3.985  19.285  0.00  0.00    +0.000 A 
ATOM     21  C   UNL     1       0.884   2.889  19.757  0.00  0.00    +0.000 A 
ATOM     22  C   UNL     1       1.021   2.448  21.074  0.00  0.00    +0.000 A 
ATOM     23  C   UNL     1       1.898   3.102  21.935  0.00  0.00    +0.000 A 
ATOM     24  C   UNL     1       2.645   4.192  21.478  0.00  0.00    +0.000 A 
ATOM     25  C   UNL     1       2.523   4.647  20.153  0.00  0.00    +0.000 A 
ATOM     26  C   UNL     1       3.276   5.734  19.663  0.00  0.00    +0.000 A 
ENDBRANCH  16  17
ENDBRANCH   2  16
TORSDOF 6
ENDMDL
MODEL 3
REMARK VINA RESULT:      -8.4      4.716      6.898
REMARK  Name = 
REMARK  7 active torsions:
REMARK  status: ('A' for Active; 'I' for Inactive)
REMARK    1  A    between atoms: C_1  and  C_2
REMARK    2  A    between atoms: C_4  and  C_5
REMARK    3  A    between atoms: C_5  and  N_6
REMARK    4  A    between atoms: C_7  and  C_9
REMARK    5  A    between atoms: C_9  and  C_10
REMARK    6  A    between atoms: C_21  and  C_22
REMARK    7  A    between atoms: C_22  and  O_24
REMARK                            x       y       z     vdW  Elec       q    Type
REMARK                         _______ _______ _______ _____ _____    ______ ____
ROOT
ATOM      1  N   UNL     1       6.869   7.586  17.748  0.00  0.00    +0.000 N 
ATOM      2  C   UNL     1       6.591   6.650  16.776  0.00  0.00    +0.000 C 
ATOM      3  O   UNL     1       7.445   5.887  16.328  0.00  0.00    +0.000 OA
ATOM      4  H   UNL     1       6.154   8.215  18.085  0.00  0.00    +0.000 HD
ENDROOT
BRANCH   1   5
ATOM      5  C   UNL     1       8.222   7.742  18.226  0.00  0.00    +0.000 C 
BRANCH   5   9
ATOM      6  C   UNL     1      10.135  11.522  20.528  0.00  0.00    +0.000 C 
ATOM      7  C   UNL     1       9.427  10.933  19.368  0.00  0.00    +0.000 A 
ATOM      8  O   UNL     1       9.260   9.578  19.444  0.00  0.00    +0.000 OA
ATOM      9  C   UNL     1       8.579   9.177  18.335  0.00  0.00    +0.000 A 
ATOM     10  C   UNL     1       8.322  10.268  17.540  0.00  0.00    +0.000 A 
ATOM     11  C   UNL     1       8.865  11.422  18.194  0.00  0.00    +0.000 A 
BRANCH  11  12
ATOM     12  C   UNL     1       8.778  12.777  17.660  0.00  0.00    +0.000 C 
ATOM     13  O   UNL     1       9.663  13.604  17.833  0.00  0.00    +0.000 OA
BRANCH  12  14
ATOM     14  O   UNL     1       7.667  13.097  16.955  0.00  0.00    +0.000 OA
ATOM     15  H   UNL     1       7.380  14.017  17.047  0.00  0.00    +0.000 HD
ENDBRANCH  12  14
ENDBRANCH  11  12
ENDBRANCH   5   9
ENDBRANCH   1   5
BRANCH   2  16
ATOM     16  C   UNL     1       5.159   6.641  16.276  0.00  0.00    +0.000 C 
BRANCH  16  17
ATOM     17  C   UNL     1       4.171   5.982  17.211  0.00  0.00    +0.000 A 
ATOM     18  C   UNL     1       3.447   6.759  18.121  0.00  0.00    +0.000 A 
ATOM     19  C   UNL     1       2.474   6.178  18.936  0.00  0.00    +0.000 A 
ATOM     20  C   UNL     1       2.197   4.807  18.860  0.00  0.00    +0.000 A 
ATOM     21  C   UNL     1       1.206   4.221  19.666  0.00  0.00    +0.000 A 
ATOM     22  C   UNL     1       0.931   2.856  19.581  0.00  0.00    +0.000 A 
ATOM     23  C   UNL     1       1.648   2.060  18.693  0.00  0.00    +0.000 A 
ATOM     24  C   UNL     1       2.635   2.628  17.883  0.00  0.00    +0.000 A 
ATOM     25  C   UNL     1       2.923   4.003  17.951  0.00  0.00    +0.000 A 
ATOM     26  C   UNL     1       3.903   4.604  17.135  0.00  0.00    +0.000 A 
ENDBRANCH  16  17
ENDBRANCH   2  16
TORSDOF 6
ENDMDL
MODEL 4
REMARK VINA RESULT:      -8.4      4.655      6.866
REMARK  Name = 
REMARK  7 active torsions:
REMARK  status: ('A' for Active; 'I' for Inactive)
REMARK    1  A    between atoms: C_1  and  C_2
REMARK    2  A    between atoms: C_4  and  C_5
REMARK    3  A    between atoms: C_5  and  N_6
REMARK    4  A    between atoms: C_7  and  C_9
REMARK    5  A    between atoms: C_9  and  C_10
REMARK    6  A    between atoms: C_21  and  C_22
REMARK    7  A    between atoms: C_22  and  O_24
REMARK                            x       y       z     vdW  Elec       q    Type
REMARK                         _______ _______ _______ _____ _____    ______ ____
ROOT
ATOM      1  N   UNL     1       6.840   7.502  17.827  0.00  0.00    +0.000 N 
ATOM      2  C   UNL     1       6.578   6.619  16.802  0.00  0.00    +0.000 C 
ATOM      3  O   UNL     1       7.455   5.932  16.280  0.00  0.00    +0.000 OA
ATOM      4  H   UNL     1       6.105   8.069  18.225  0.00  0.00    +0.000 HD
ENDROOT
BRANCH   1   5
ATOM      5  C   UNL     1       8.198   7.695  18.277  0.00  0.00    +0.000 C 
BRANCH   5   9
ATOM      6  C   UNL     1      10.182  11.566  20.357  0.00  0.00    +0.000 C 
ATOM      7  C   UNL     1       9.413  10.935  19.259  0.00  0.00    +0.000 A 
ATOM      8  O   UNL     1       9.277   9.580  19.380  0.00  0.00    +0.000 OA
ATOM      9  C   UNL     1       8.535   9.139  18.326  0.00  0.00    +0.000 A 
ATOM     10  C   UNL     1       8.208  10.204  17.522  0.00  0.00    +0.000 A 
ATOM     11  C   UNL     1       8.770  11.384  18.112  0.00  0.00    +0.000 A 
BRANCH  11  12
ATOM     12  C   UNL     1       8.625  12.722  17.550  0.00  0.00    +0.000 C 
ATOM     13  O   UNL     1       7.533  13.246  17.386  0.00  0.00    +0.000 OA
BRANCH  12  14
ATOM     14  O   UNL     1       9.760  13.378  17.207  0.00  0.00    +0.000 OA
ATOM     15  H   UNL     1      10.555  13.082  17.673  0.00  0.00    +0.000 HD
ENDBRANCH  12  14
ENDBRANCH  11  12
ENDBRANCH   5   9
ENDBRANCH   1   5
BRANCH   2  16
ATOM     16  C   UNL     1       5.134   6.570  16.342  0.00  0.00    +0.000 C 
BRANCH  16  17
ATOM     17  C   UNL     1       4.286   5.535  17.046  0.00  0.00    +0.000 A 
ATOM     18  C   UNL     1       4.390   4.187  16.688  0.00  0.00    +0.000 A 
ATOM     19  C   UNL     1       3.674   3.210  17.381  0.00  0.00    +0.000 A 
ATOM     20  C   UNL     1       2.838   3.554  18.452  0.00  0.00    +0.000 A 
ATOM     21  C   UNL     1       2.130   2.571  19.164  0.00  0.00    +0.000 A 
ATOM     22  C   UNL     1       1.304   2.919  20.232  0.00  0.00    +0.000 A 
ATOM     23  C   UNL     1       1.173   4.255  20.599  0.00  0.00    +0.000 A 
ATOM     24  C   UNL     1       1.874   5.244  19.902  0.00  0.00    +0.000 A 
ATOM     25  C   UNL     1       2.714   4.911  18.825  0.00  0.00    +0.000 A 
ATOM     26  C   UNL     1       3.443   5.887  18.115  0.00  0.00    +0.000 A 
ENDBRANCH  16  17
ENDBRANCH   2  16
TORSDOF 6
ENDMDL
MODEL 5
REMARK VINA RESULT:      -8.4      0.790      1.778
REMARK  Name = 
REMARK  7 active torsions:
REMARK  status: ('A' for Active; 'I' for Inactive)
REMARK    1  A    between atoms: C_1  and  C_2
REMARK    2  A    between atoms: C_4  and  C_5
REMARK    3  A    between atoms: C_5  and  N_6
REMARK    4  A    between atoms: C_7  and  C_9
REMARK    5  A    between atoms: C_9  and  C_10
REMARK    6  A    between atoms: C_21  and  C_22
REMARK    7  A    between atoms: C_22  and  O_24
REMARK                            x       y       z     vdW  Elec       q    Type
REMARK                         _______ _______ _______ _____ _____    ______ ____
ROOT
ATOM      1  N   UNL     1       5.290   4.836  17.560  0.00  0.00    +0.000 N 
ATOM      2  C   UNL     1       5.025   5.203  18.862  0.00  0.00    +0.000 C 
ATOM      3  O   UNL     1       5.912   5.515  19.655  0.00  0.00    +0.000 OA
ATOM      4  H   UNL     1       4.545   4.565  16.934  0.00  0.00    +0.000 HD
ENDROOT
BRANCH   1   5
ATOM      5  C   UNL     1       6.658   4.741  17.107  0.00  0.00    +0.000 C 
BRANCH   5   9
ATOM      6  C   UNL     1       8.266   5.725  12.670  0.00  0.00    +0.000 C 
ATOM      7  C   UNL     1       7.410   4.949  13.596  0.00  0.00    +0.000 A 
ATOM      8  O   UNL     1       7.569   5.278  14.913  0.00  0.00    +0.000 OA
ATOM      9  C   UNL     1       6.711   4.512  15.642  0.00  0.00    +0.000 A 
ATOM     10  C   UNL     1       6.014   3.681  14.799  0.00  0.00    +0.000 A 
ATOM     11  C   UNL     1       6.453   3.950  13.461  0.00  0.00    +0.000 A 
BRANCH  11  12
ATOM     12  C   UNL     1       5.931   3.269  12.281  0.00  0.00    +0.000 C 
ATOM     13  O   UNL     1       6.631   2.555  11.577  0.00  0.00    +0.000 OA
BRANCH  12  14
ATOM     14  O   UNL     1       4.623   3.458  11.983  0.00  0.00    +0.000 OA
ATOM     15  H   UNL     1       4.102   2.645  11.915  0.00  0.00    +0.000 HD
ENDBRANCH  12  14
ENDBRANCH  11  12
ENDBRANCH   5   9
ENDBRANCH   1   5
BRANCH   2  16
ATOM     16  C   UNL     1       3.562   5.173  19.257  0.00  0.00    +0.000 C 
BRANCH  16  17
ATOM     17  C   UNL     1       2.874   6.519  19.224  0.00  0.00    +0.000 A 
ATOM     18  C   UNL     1       2.916   7.295  18.061  0.00  0.00    +0.000 A 
ATOM     19  C   UNL     1       2.220   8.503  17.987  0.00  0.00    +0.000 A 
ATOM     20  C   UNL     1       1.462   8.964  19.071  0.00  0.00    +0.000 A 
ATOM     21  C   UNL     1       0.746  10.171  18.994  0.00  0.00    +0.000 A 
ATOM     22  C   UNL     1      -0.012  10.622  20.075  0.00  0.00    +0.000 A 
ATOM     23  C   UNL     1      -0.059   9.874  21.247  0.00  0.00    +0.000 A 
ATOM     24  C   UNL     1       0.647   8.670  21.338  0.00  0.00    +0.000 A 
ATOM     25  C   UNL     1       1.412   8.198  20.257  0.00  0.00    +0.000 A 
ATOM     26  C   UNL     1       2.121   6.980  20.318  0.00  0.00    +0.000 A 
ENDBRANCH  16  17
ENDBRANCH   2  16
TORSDOF 6
ENDMDL
MODEL 6
REMARK VINA RESULT:      -8.2      2.714      4.252
REMARK  Name = 
REMARK  7 active torsions:
REMARK  status: ('A' for Active; 'I' for Inactive)
REMARK    1  A    between atoms: C_1  and  C_2
REMARK    2  A    between atoms: C_4  and  C_5
REMARK    3  A    between atoms: C_5  and  N_6
REMARK    4  A    between atoms: C_7  and  C_9
REMARK    5  A    between atoms: C_9  and  C_10
REMARK    6  A    between atoms: C_21  and  C_22
REMARK    7  A    between atoms: C_22  and  O_24
REMARK                            x       y       z     vdW  Elec       q    Type
REMARK                         _______ _______ _______ _____ _____    ______ ____
ROOT
ATOM      1  N   UNL     1       6.600   5.421  14.840  0.00  0.00    +0.000 N 
ATOM      2  C   UNL     1       6.894   5.197  16.167  0.00  0.00    +0.000 C 
ATOM      3  O   UNL     1       7.797   4.442  16.526  0.00  0.00    +0.000 OA
ATOM      4  H   UNL     1       5.841   6.031  14.570  0.00  0.00    +0.000 HD
ENDROOT
BRANCH   1   5
ATOM      5  C   UNL     1       7.321   4.703  13.814  0.00  0.00    +0.000 C 
BRANCH   5   9
ATOM      6  C   UNL     1       6.081   0.998  10.990  0.00  0.00    +0.000 C 
ATOM      7  C   UNL     1       5.790   2.314  11.604  0.00  0.00    +0.000 A 
ATOM      8  O   UNL     1       6.765   2.764  12.450  0.00  0.00    +0.000 OA
ATOM      9  C   UNL     1       6.382   3.983  12.920  0.00  0.00    +0.000 A 
ATOM     10  C   UNL     1       5.156   4.310  12.391  0.00  0.00    +0.000 A 
ATOM     11  C   UNL     1       4.753   3.236  11.530  0.00  0.00    +0.000 A 
BRANCH  11  12
ATOM     12  C   UNL     1       3.505   3.224  10.775  0.00  0.00    +0.000 C 
ATOM     13  O   UNL     1       2.721   2.287  10.827  0.00  0.00    +0.000 OA
BRANCH  12  14
ATOM     14  O   UNL     1       3.238   4.301   9.999  0.00  0.00    +0.000 OA
ATOM     15  H   UNL     1       3.578   4.243   9.095  0.00  0.00    +0.000 HD
ENDBRANCH  12  14
ENDBRANCH  11  12
ENDBRANCH   5   9
ENDBRANCH   1   5
BRANCH   2  16
ATOM     16  C   UNL     1       6.010   5.927  17.158  0.00  0.00    +0.000 C 
BRANCH  16  17
ATOM     17  C   UNL     1       4.759   5.177  17.556  0.00  0.00    +0.000 A 
ATOM     18  C   UNL     1       4.278   4.145  16.744  0.00  0.00    +0.000 A 
ATOM     19  C   UNL     1       3.171   3.390  17.135  0.00  0.00    +0.000 A 
ATOM     20  C   UNL     1       2.519   3.644  18.350  0.00  0.00    +0.000 A 
ATOM     21  C   UNL     1       1.416   2.874  18.756  0.00  0.00    +0.000 A 
ATOM     22  C   UNL     1       0.776   3.128  19.969  0.00  0.00    +0.000 A 
ATOM     23  C   UNL     1       1.228   4.158  20.787  0.00  0.00    +0.000 A 
ATOM     24  C   UNL     1       2.326   4.931  20.398  0.00  0.00    +0.000 A 
ATOM     25  C   UNL     1       2.987   4.687  19.181  0.00  0.00    +0.000 A 
ATOM     26  C   UNL     1       4.105   5.441  18.772  0.00  0.00    +0.000 A 
ENDBRANCH  16  17
ENDBRANCH   2  16
TORSDOF 6
ENDMDL
MODEL 7
REMARK VINA RESULT:      -8.2      1.915      3.410
REMARK  Name = 
REMARK  7 active torsions:
REMARK  status: ('A' for Active; 'I' for Inactive)
REMARK    1  A    between atoms: C_1  and  C_2
REMARK    2  A    between atoms: C_4  and  C_5
REMARK    3  A    between atoms: C_5  and  N_6
REMARK    4  A    between atoms: C_7  and  C_9
REMARK    5  A    between atoms: C_9  and  C_10
REMARK    6  A    between atoms: C_21  and  C_22
REMARK    7  A    between atoms: C_22  and  O_24
REMARK                            x       y       z     vdW  Elec       q    Type
REMARK                         _______ _______ _______ _____ _____    ______ ____
ROOT
ATOM      1  N   UNL     1       5.564   5.591  17.106  0.00  0.00    +0.000 N 
ATOM      2  C   UNL     1       5.426   6.961  17.166  0.00  0.00    +0.000 C 
ATOM      3  O   UNL     1       6.330   7.732  16.850  0.00  0.00    +0.000 OA
ATOM      4  H   UNL     1       4.812   4.979  17.389  0.00  0.00    +0.000 HD
ENDROOT
BRANCH   1   5
ATOM      5  C   UNL     1       6.831   5.015  16.723  0.00  0.00    +0.000 C 
BRANCH   5   9
ATOM      6  C   UNL     1       8.171   5.653  12.136  0.00  0.00    +0.000 C 
ATOM      7  C   UNL     1       7.406   4.924  13.174  0.00  0.00    +0.000 A 
ATOM      8  O   UNL     1       7.606   5.387  14.445  0.00  0.00    +0.000 OA
ATOM      9  C   UNL     1       6.830   4.650  15.286  0.00  0.00    +0.000 A 
ATOM     10  C   UNL     1       6.145   3.704  14.561  0.00  0.00    +0.000 A 
ATOM     11  C   UNL     1       6.505   3.866  13.183  0.00  0.00    +0.000 A 
BRANCH  11  12
ATOM     12  C   UNL     1       5.970   3.047  12.101  0.00  0.00    +0.000 C 
ATOM     13  O   UNL     1       4.839   3.205  11.661  0.00  0.00    +0.000 OA
BRANCH  12  14
ATOM     14  O   UNL     1       6.778   2.088  11.589  0.00  0.00    +0.000 OA
ATOM     15  H   UNL     1       6.314   1.354  11.160  0.00  0.00    +0.000 HD
ENDBRANCH  12  14
ENDBRANCH  11  12
ENDBRANCH   5   9
ENDBRANCH   1   5
BRANCH   2  16
ATOM     16  C   UNL     1       4.085   7.455  17.675  0.00  0.00    +0.000 C 
BRANCH  16  17
ATOM     17  C   UNL     1       3.285   6.423  18.437  0.00  0.00    +0.000 A 
ATOM     18  C   UNL     1       2.776   6.732  19.703  0.00  0.00    +0.000 A 
ATOM     19  C   UNL     1       1.968   5.821  20.386  0.00  0.00    +0.000 A 
ATOM     20  C   UNL     1       1.645   4.580  19.821  0.00  0.00    +0.000 A 
ATOM     21  C   UNL     1       0.818   3.668  20.497  0.00  0.00    +0.000 A 
ATOM     22  C   UNL     1       0.496   2.437  19.926  0.00  0.00    +0.000 A 
ATOM     23  C   UNL     1       1.001   2.101  18.674  0.00  0.00    +0.000 A 
ATOM     24  C   UNL     1       1.824   3.000  17.987  0.00  0.00    +0.000 A 
ATOM     25  C   UNL     1       2.156   4.247  18.545  0.00  0.00    +0.000 A 
ATOM     26  C   UNL     1       2.970   5.177  17.868  0.00  0.00    +0.000 A 
ENDBRANCH  16  17
ENDBRANCH   2  16
TORSDOF 6
ENDMDL
MODEL 8
REMARK VINA RESULT:      -8.0      4.895      7.102
REMARK  Name = 
REMARK  7 active torsions:
REMARK  status: ('A' for Active; 'I' for Inactive)
REMARK    1  A    between atoms: C_1  and  C_2
REMARK    2  A    between atoms: C_4  and  C_5
REMARK    3  A    between atoms: C_5  and  N_6
REMARK    4  A    between atoms: C_7  and  C_9
REMARK    5  A    between atoms: C_9  and  C_10
REMARK    6  A    between atoms: C_21  and  C_22
REMARK    7  A    between atoms: C_22  and  O_24
REMARK                            x       y       z     vdW  Elec       q    Type
REMARK                         _______ _______ _______ _____ _____    ______ ____
ROOT
ATOM      1  N   UNL     1       6.770   7.961  17.441  0.00  0.00    +0.000 N 
ATOM      2  C   UNL     1       6.240   6.776  16.978  0.00  0.00    +0.000 C 
ATOM      3  O   UNL     1       6.914   5.756  16.849  0.00  0.00    +0.000 OA
ATOM      4  H   UNL     1       6.199   8.791  17.521  0.00  0.00    +0.000 HD
ENDROOT
BRANCH   1   5
ATOM      5  C   UNL     1       8.182   8.051  17.727  0.00  0.00    +0.000 C 
BRANCH   5   9
ATOM      6  C   UNL     1       8.183  12.861  17.404  0.00  0.00    +0.000 C 
ATOM      7  C   UNL     1       8.570  11.608  18.091  0.00  0.00    +0.000 A 
ATOM      8  O   UNL     1       8.083  10.474  17.504  0.00  0.00    +0.000 OA
ATOM      9  C   UNL     1       8.533   9.406  18.219  0.00  0.00    +0.000 A 
ATOM     10  C   UNL     1       9.294   9.852  19.273  0.00  0.00    +0.000 A 
ATOM     11  C   UNL     1       9.332  11.283  19.208  0.00  0.00    +0.000 A 
BRANCH  11  12
ATOM     12  C   UNL     1      10.056  12.122  20.157  0.00  0.00    +0.000 C 
ATOM     13  O   UNL     1      10.668  13.122  19.809  0.00  0.00    +0.000 OA
BRANCH  12  14
ATOM     14  O   UNL     1      10.032  11.750  21.459  0.00  0.00    +0.000 OA
ATOM     15  H   UNL     1      10.889  11.478  21.818  0.00  0.00    +0.000 HD
ENDBRANCH  12  14
ENDBRANCH  11  12
ENDBRANCH   5   9
ENDBRANCH   1   5
BRANCH   2  16
ATOM     16  C   UNL     1       4.768   6.824  16.615  0.00  0.00    +0.000 C 
BRANCH  16  17
ATOM     17  C   UNL     1       3.858   6.107  17.586  0.00  0.00    +0.000 A 
ATOM     18  C   UNL     1       3.331   6.794  18.685  0.00  0.00    +0.000 A 
ATOM     19  C   UNL     1       2.426   6.170  19.546  0.00  0.00    +0.000 A 
ATOM     20  C   UNL     1       2.023   4.846  19.330  0.00  0.00    +0.000 A 
ATOM     21  C   UNL     1       1.100   4.220  20.185  0.00  0.00    +0.000 A 
ATOM     22  C   UNL     1       0.698   2.903  19.961  0.00  0.00    +0.000 A 
ATOM     23  C   UNL     1       1.220   2.194  18.883  0.00  0.00    +0.000 A 
ATOM     24  C   UNL     1       2.138   2.804  18.022  0.00  0.00    +0.000 A 
ATOM     25  C   UNL     1       2.551   4.132  18.230  0.00  0.00    +0.000 A 
ATOM     26  C   UNL     1       3.463   4.775  17.369  0.00  0.00    +0.000 A 
ENDBRANCH  16  17
ENDBRANCH   2  16
TORSDOF 6
ENDMDL
MODEL 9
REMARK VINA RESULT:      -8.0      5.379      7.488
REMARK  Name = 
REMARK  7 active torsions:
REMARK  status: ('A' for Active; 'I' for Inactive)
REMARK    1  A    between atoms: C_1  and  C_2
REMARK    2  A    between atoms: C_4  and  C_5
REMARK    3  A    between atoms: C_5  and  N_6
REMARK    4  A    between atoms: C_7  and  C_9
REMARK    5  A    between atoms: C_9  and  C_10
REMARK    6  A    between atoms: C_21  and  C_22
REMARK    7  A    between atoms: C_22  and  O_24
REMARK                            x       y       z     vdW  Elec       q    Type
REMARK                         _______ _______ _______ _____ _____    ______ ____
ROOT
ATOM      1  N   UNL     1       7.646   8.411  17.760  0.00  0.00    +0.000 N 
ATOM      2  C   UNL     1       7.226   7.103  17.651  0.00  0.00    +0.000 C 
ATOM      3  O   UNL     1       7.725   6.191  18.307  0.00  0.00    +0.000 OA
ATOM      4  H   UNL     1       7.232   9.140  17.195  0.00  0.00    +0.000 HD
ENDROOT
BRANCH   1   5
ATOM      5  C   UNL     1       8.758   8.737  18.622  0.00  0.00    +0.000 C 
BRANCH   5   9
ATOM      6  C   UNL     1      10.946  12.714  20.247  0.00  0.00    +0.000 C 
ATOM      7  C   UNL     1       9.991  12.039  19.338  0.00  0.00    +0.000 A 
ATOM      8  O   UNL     1       9.952  10.679  19.477  0.00  0.00    +0.000 OA
ATOM      9  C   UNL     1       9.024  10.196  18.606  0.00  0.00    +0.000 A 
ATOM     10  C   UNL     1       8.478  11.240  17.897  0.00  0.00    +0.000 A 
ATOM     11  C   UNL     1       9.093  12.449  18.359  0.00  0.00    +0.000 A 
BRANCH  11  12
ATOM     12  C   UNL     1       8.764  13.776  17.850  0.00  0.00    +0.000 C 
ATOM     13  O   UNL     1       7.621  14.212  17.859  0.00  0.00    +0.000 OA
BRANCH  12  14
ATOM     14  O   UNL     1       9.780  14.522  17.356  0.00  0.00    +0.000 OA
ATOM     15  H   UNL     1      10.650  14.320  17.730  0.00  0.00    +0.000 HD
ENDBRANCH  12  14
ENDBRANCH  11  12
ENDBRANCH   5   9
ENDBRANCH   1   5
BRANCH   2  16
ATOM     16  C   UNL     1       6.118   6.861  16.644  0.00  0.00    +0.000 C 
BRANCH  16  17
ATOM     17  C   UNL     1       4.908   6.146  17.201  0.00  0.00    +0.000 A 
ATOM     18  C   UNL     1       3.829   6.885  17.697  0.00  0.00    +0.000 A 
ATOM     19  C   UNL     1       2.672   6.242  18.141  0.00  0.00    +0.000 A 
ATOM     20  C   UNL     1       2.562   4.846  18.097  0.00  0.00    +0.000 A 
ATOM     21  C   UNL     1       1.392   4.197  18.527  0.00  0.00    +0.000 A 
ATOM     22  C   UNL     1       1.287   2.807  18.475  0.00  0.00    +0.000 A 
ATOM     23  C   UNL     1       2.352   2.050  17.998  0.00  0.00    +0.000 A 
ATOM     24  C   UNL     1       3.522   2.681  17.565  0.00  0.00    +0.000 A 
ATOM     25  C   UNL     1       3.644   4.082  17.605  0.00  0.00    +0.000 A 
ATOM     26  C   UNL     1       4.806   4.745  17.161  0.00  0.00    +0.000 A 
ENDBRANCH  16  17
ENDBRANCH   2  16
TORSDOF 6
ENDMDL
