MODEL 1
REMARK VINA RESULT:      -8.9      0.000      0.000
REMARK  Name = 
REMARK  9 active torsions:
REMARK  status: ('A' for Active; 'I' for Inactive)
REMARK    1  A    between atoms: C_2  and  C_7
REMARK    2  A    between atoms: N_3  and  C_4
REMARK    3  A    between atoms: C_10  and  C_11
REMARK    4  A    between atoms: C_11  and  N_12
REMARK    5  A    between atoms: N_12  and  C_13
REMARK    6  A    between atoms: N_12  and  C_19
REMARK    7  A    between atoms: C_13  and  C_14
REMARK    8  A    between atoms: C_19  and  C_20
REMARK    9  A    between atoms: C_22  and  C_23
REMARK                            x       y       z     vdW  Elec       q    Type
REMARK                         _______ _______ _______ _____ _____    ______ ____
ROOT
ATOM      1  N   UNL     1       3.340   5.663  18.538  0.00  0.00    +0.000 NA
ENDROOT
BRANCH   1   2
ATOM      2  C   UNL     1       4.815   5.775  18.533  0.00  0.00    +0.000 C 
BRANCH   2   6
ATOM      3  C   UNL     1       6.397   4.686  14.666  0.00  0.00    +0.000 A 
ATOM      4  C   UNL     1       6.940   4.103  15.819  0.00  0.00    +0.000 A 
ATOM      5  C   UNL     1       6.503   4.520  17.087  0.00  0.00    +0.000 A 
ATOM      6  C   UNL     1       5.522   5.515  17.215  0.00  0.00    +0.000 A 
ATOM      7  C   UNL     1       5.042   6.143  16.057  0.00  0.00    +0.000 A 
ATOM      8  C   UNL     1       5.473   5.729  14.797  0.00  0.00    +0.000 A 
BRANCH   3  10
ATOM      9  O   UNL     1       7.421   4.766  12.554  0.00  0.00    +0.000 OA
ATOM     10  C   UNL     1       6.639   4.167  13.288  0.00  0.00    +0.000 C 
ATOM     11  N   UNL     1       5.957   3.031  12.893  0.00  0.00    +0.000 N 
ATOM     12  H   UNL     1       5.407   2.508  13.559  0.00  0.00    +0.000 HD
BRANCH  11  13
ATOM     13  C   UNL     1       6.070   2.536  11.553  0.00  0.00    +0.000 C 
ATOM     14  C   UNL     1       7.294   1.818  11.063  0.00  0.00    +0.000 C 
ATOM     15  C   UNL     1       6.026   1.053  11.305  0.00  0.00    +0.000 C 
ENDBRANCH  11  13
ENDBRANCH   3  10
ENDBRANCH   2   6
ENDBRANCH   1   2
BRANCH   1  16
ATOM     16  C   UNL     1       2.945   4.261  18.259  0.00  0.00    +0.000 C 
BRANCH  16  17
ATOM     17  C   UNL     1       2.383   3.561  19.456  0.00  0.00    +0.000 A 
ATOM     18  C   UNL     1       1.106   3.390  19.953  0.00  0.00    +0.000 A 
ATOM     19  C   UNL     1       1.240   2.671  21.165  0.00  0.00    +0.000 A 
ATOM     20  C   UNL     1       2.586   2.437  21.323  0.00  0.00    +0.000 A 
ATOM     21  O   UNL     1       3.287   2.977  20.296  0.00  0.00    +0.000 OA
ENDBRANCH  16  17
ENDBRANCH   1  16
BRANCH   1  22
ATOM     22  C   UNL     1       2.842   6.054  19.893  0.00  0.00    +0.000 C 
BRANCH  22  23
ATOM     23  C   UNL     1       2.147   7.379  19.942  0.00  0.00    +0.000 A 
ATOM     24  N   UNL     1       1.631   8.014  20.971  0.00  0.00    +0.000 NA
ATOM     25  C   UNL     1       1.118   9.156  20.391  0.00  0.00    +0.000 A 
ATOM     26  N   UNL     1       1.307   9.221  19.062  0.00  0.00    +0.000 NA
ATOM     27  O   UNL     1       1.993   8.044  18.763  0.00  0.00    +0.000 OA
BRANCH  25  28
ATOM     28  C   UNL     1       0.420  10.178  21.167  0.00  0.00    +0.000 A 
ATOM     29  C   UNL     1       0.547  11.536  20.826  0.00  0.00    +0.000 A 
ATOM     30  C   UNL     1      -0.105  12.521  21.576  0.00  0.00    +0.000 A 
ATOM     31  C   UNL     1      -0.884  12.150  22.665  0.00  0.00    +0.000 A 
ATOM     32  F   UNL     1      -1.502  13.095  23.385  0.00  0.00    +0.000 F 
ATOM     33  C   UNL     1      -1.028  10.815  23.018  0.00  0.00    +0.000 A 
ATOM     34  C   UNL     1      -0.378   9.829  22.270  0.00  0.00    +0.000 A 
ENDBRANCH  25  28
ENDBRANCH  22  23
ENDBRANCH   1  22
TORSDOF 9
ENDMDL
MODEL 2
REMARK VINA RESULT:      -8.8      2.155      2.561
REMARK  Name = 
REMARK  9 active torsions:
REMARK  status: ('A' for Active; 'I' for Inactive)
REMARK    1  A    between atoms: C_2  and  C_7
REMARK    2  A    between atoms: N_3  and  C_4
REMARK    3  A    between atoms: C_10  and  C_11
REMARK    4  A    between atoms: C_11  and  N_12
REMARK    5  A    between atoms: N_12  and  C_13
REMARK    6  A    between atoms: N_12  and  C_19
REMARK    7  A    between atoms: C_13  and  C_14
REMARK    8  A    between atoms: C_19  and  C_20
REMARK    9  A    between atoms: C_22  and  C_23
REMARK                            x       y       z     vdW  Elec       q    Type
REMARK                         _______ _______ _______ _____ _____    ______ ____
ROOT
ATOM      1  N   UNL     1       2.993   5.625  19.452  0.00  0.00    +0.000 NA
ENDROOT
BRANCH   1   2
ATOM      2  C   UNL     1       4.382   6.132  19.434  0.00  0.00    +0.000 C 
BRANCH   2   6
ATOM      3  C   UNL     1       6.208   5.215  15.631  0.00  0.00    +0.000 A 
ATOM      4  C   UNL     1       6.592   4.494  16.769  0.00  0.00    +0.000 A 
ATOM      5  C   UNL     1       6.080   4.846  18.028  0.00  0.00    +0.000 A 
ATOM      6  C   UNL     1       5.181   5.914  18.162  0.00  0.00    +0.000 A 
ATOM      7  C   UNL     1       4.863   6.675  17.028  0.00  0.00    +0.000 A 
ATOM      8  C   UNL     1       5.368   6.326  15.776  0.00  0.00    +0.000 A 
BRANCH   3  10
ATOM      9  O   UNL     1       7.515   5.263  13.679  0.00  0.00    +0.000 OA
ATOM     10  C   UNL     1       6.527   4.789  14.237  0.00  0.00    +0.000 C 
ATOM     11  N   UNL     1       5.685   3.878  13.627  0.00  0.00    +0.000 N 
ATOM     12  H   UNL     1       4.948   3.431  14.154  0.00  0.00    +0.000 HD
BRANCH  11  13
ATOM     13  C   UNL     1       5.879   3.500  12.259  0.00  0.00    +0.000 C 
ATOM     14  C   UNL     1       5.766   2.076  11.796  0.00  0.00    +0.000 C 
ATOM     15  C   UNL     1       4.698   3.066  11.434  0.00  0.00    +0.000 C 
ENDBRANCH  11  13
ENDBRANCH   3  10
ENDBRANCH   2   6
ENDBRANCH   1   2
BRANCH   1  16
ATOM     16  C   UNL     1       2.942   4.332  20.178  0.00  0.00    +0.000 C 
BRANCH  16  17
ATOM     17  C   UNL     1       3.137   3.149  19.283  0.00  0.00    +0.000 A 
ATOM     18  C   UNL     1       3.962   2.043  19.326  0.00  0.00    +0.000 A 
ATOM     19  C   UNL     1       3.709   1.307  18.143  0.00  0.00    +0.000 A 
ATOM     20  C   UNL     1       2.737   2.003  17.462  0.00  0.00    +0.000 A 
ATOM     21  O   UNL     1       2.389   3.123  18.142  0.00  0.00    +0.000 OA
ENDBRANCH  16  17
ENDBRANCH   1  16
BRANCH   1  22
ATOM     22  C   UNL     1       2.135   6.623  20.163  0.00  0.00    +0.000 C 
BRANCH  22  23
ATOM     23  C   UNL     1       1.861   7.872  19.386  0.00  0.00    +0.000 A 
ATOM     24  N   UNL     1       1.420   9.038  19.807  0.00  0.00    +0.000 NA
ATOM     25  C   UNL     1       1.350   9.770  18.640  0.00  0.00    +0.000 A 
ATOM     26  N   UNL     1       1.727   9.086  17.547  0.00  0.00    +0.000 NA
ATOM     27  O   UNL     1       2.070   7.828  18.041  0.00  0.00    +0.000 OA
BRANCH  25  28
ATOM     28  C   UNL     1       0.885  11.155  18.617  0.00  0.00    +0.000 A 
ATOM     29  C   UNL     1      -0.490  11.439  18.544  0.00  0.00    +0.000 A 
ATOM     30  C   UNL     1      -0.941  12.763  18.505  0.00  0.00    +0.000 A 
ATOM     31  C   UNL     1      -0.020  13.802  18.538  0.00  0.00    +0.000 A 
ATOM     32  F   UNL     1      -0.453  15.069  18.494  0.00  0.00    +0.000 F 
ATOM     33  C   UNL     1       1.343  13.547  18.614  0.00  0.00    +0.000 A 
ATOM     34  C   UNL     1       1.796  12.225  18.655  0.00  0.00    +0.000 A 
ENDBRANCH  25  28
ENDBRANCH  22  23
ENDBRANCH   1  22
TORSDOF 9
ENDMDL
MODEL 3
REMARK VINA RESULT:      -8.7      0.978      1.077
REMARK  Name = 
REMARK  9 active torsions:
REMARK  status: ('A' for Active; 'I' for Inactive)
REMARK    1  A    between atoms: C_2  and  C_7
REMARK    2  A    between atoms: N_3  and  C_4
REMARK    3  A    between atoms: C_10  and  C_11
REMARK    4  A    between atoms: C_11  and  N_12
REMARK    5  A    between atoms: N_12  and  C_13
REMARK    6  A    between atoms: N_12  and  C_19
REMARK    7  A    between atoms: C_13  and  C_14
REMARK    8  A    between atoms: C_19  and  C_20
REMARK    9  A    between atoms: C_22  and  C_23
REMARK                            x       y       z     vdW  Elec       q    Type
REMARK                         _______ _______ _______ _____ _____    ______ ____
ROOT
ATOM      1  N   UNL     1       3.099   6.122  18.964  0.00  0.00    +0.000 NA
ENDROOT
BRANCH   1   2
ATOM      2  C   UNL     1       4.536   5.786  19.071  0.00  0.00    +0.000 C 
BRANCH   2   6
ATOM      3  C   UNL     1       6.366   5.108  15.219  0.00  0.00    +0.000 A 
ATOM      4  C   UNL     1       6.904   4.486  16.355  0.00  0.00    +0.000 A 
ATOM      5  C   UNL     1       6.381   4.774  17.625  0.00  0.00    +0.000 A 
ATOM      6  C   UNL     1       5.318   5.678  17.774  0.00  0.00    +0.000 A 
ATOM      7  C   UNL     1       4.839   6.350  16.641  0.00  0.00    +0.000 A 
ATOM      8  C   UNL     1       5.356   6.064  15.377  0.00  0.00    +0.000 A 
BRANCH   3  10
ATOM      9  O   UNL     1       7.506   5.397  13.186  0.00  0.00    +0.000 OA
ATOM     10  C   UNL     1       6.708   4.711  13.823  0.00  0.00    +0.000 C 
ATOM     11  N   UNL     1       6.099   3.586  13.299  0.00  0.00    +0.000 N 
ATOM     12  H   UNL     1       5.534   2.991  13.888  0.00  0.00    +0.000 HD
BRANCH  11  13
ATOM     13  C   UNL     1       6.309   3.205  11.934  0.00  0.00    +0.000 C 
ATOM     14  C   UNL     1       7.342   2.193  11.533  0.00  0.00    +0.000 C 
ATOM     15  C   UNL     1       5.886   1.837  11.472  0.00  0.00    +0.000 C 
ENDBRANCH  11  13
ENDBRANCH   3  10
ENDBRANCH   2   6
ENDBRANCH   1   2
BRANCH   1  16
ATOM     16  C   UNL     1       2.322   4.899  18.647  0.00  0.00    +0.000 C 
BRANCH  16  17
ATOM     17  C   UNL     1       2.180   3.976  19.815  0.00  0.00    +0.000 A 
ATOM     18  C   UNL     1       3.076   3.253  20.578  0.00  0.00    +0.000 A 
ATOM     19  C   UNL     1       2.307   2.518  21.512  0.00  0.00    +0.000 A 
ATOM     20  C   UNL     1       0.994   2.849  21.269  0.00  0.00    +0.000 A 
ATOM     21  O   UNL     1       0.907   3.727  20.239  0.00  0.00    +0.000 OA
ENDBRANCH  16  17
ENDBRANCH   1  16
BRANCH   1  22
ATOM     22  C   UNL     1       2.644   6.667  20.280  0.00  0.00    +0.000 C 
BRANCH  22  23
ATOM     23  C   UNL     1       1.809   7.906  20.185  0.00  0.00    +0.000 A 
ATOM     24  N   UNL     1       1.085   8.499  21.109  0.00  0.00    +0.000 NA
ATOM     25  C   UNL     1       0.540   9.565  20.423  0.00  0.00    +0.000 A 
ATOM     26  N   UNL     1       0.908   9.624  19.132  0.00  0.00    +0.000 NA
ATOM     27  O   UNL     1       1.753   8.527  18.973  0.00  0.00    +0.000 OA
BRANCH  25  28
ATOM     28  C   UNL     1      -0.369  10.516  21.059  0.00  0.00    +0.000 A 
ATOM     29  C   UNL     1      -1.099  11.428  20.276  0.00  0.00    +0.000 A 
ATOM     30  C   UNL     1      -1.958  12.354  20.879  0.00  0.00    +0.000 A 
ATOM     31  C   UNL     1      -2.088  12.367  22.263  0.00  0.00    +0.000 A 
ATOM     32  F   UNL     1      -2.906  13.258  22.839  0.00  0.00    +0.000 F 
ATOM     33  C   UNL     1      -1.381  11.474  23.056  0.00  0.00    +0.000 A 
ATOM     34  C   UNL     1      -0.522  10.548  22.455  0.00  0.00    +0.000 A 
ENDBRANCH  25  28
ENDBRANCH  22  23
ENDBRANCH   1  22
TORSDOF 9
ENDMDL
MODEL 4
REMARK VINA RESULT:      -8.7      2.351      2.631
REMARK  Name = 
REMARK  9 active torsions:
REMARK  status: ('A' for Active; 'I' for Inactive)
REMARK    1  A    between atoms: C_2  and  C_7
REMARK    2  A    between atoms: N_3  and  C_4
REMARK    3  A    between atoms: C_10  and  C_11
REMARK    4  A    between atoms: C_11  and  N_12
REMARK    5  A    between atoms: N_12  and  C_13
REMARK    6  A    between atoms: N_12  and  C_19
REMARK    7  A    between atoms: C_13  and  C_14
REMARK    8  A    between atoms: C_19  and  C_20
REMARK    9  A    between atoms: C_22  and  C_23
REMARK                            x       y       z     vdW  Elec       q    Type
REMARK                         _______ _______ _______ _____ _____    ______ ____
ROOT
ATOM      1  N   UNL     1       2.986   6.044  18.826  0.00  0.00    +0.000 NA
ENDROOT
BRANCH   1   2
ATOM      2  C   UNL     1       4.418   5.714  19.000  0.00  0.00    +0.000 C 
BRANCH   2   6
ATOM      3  C   UNL     1       6.368   4.954  15.224  0.00  0.00    +0.000 A 
ATOM      4  C   UNL     1       6.797   4.268  16.369  0.00  0.00    +0.000 A 
ATOM      5  C   UNL     1       6.239   4.577  17.620  0.00  0.00    +0.000 A 
ATOM      6  C   UNL     1       5.250   5.565  17.740  0.00  0.00    +0.000 A 
ATOM      7  C   UNL     1       4.884   6.295  16.600  0.00  0.00    +0.000 A 
ATOM      8  C   UNL     1       5.435   5.990  15.356  0.00  0.00    +0.000 A 
BRANCH   3  10
ATOM      9  O   UNL     1       7.628   5.179  13.254  0.00  0.00    +0.000 OA
ATOM     10  C   UNL     1       6.742   4.556  13.836  0.00  0.00    +0.000 C 
ATOM     11  N   UNL     1       6.063   3.499  13.257  0.00  0.00    +0.000 N 
ATOM     12  H   UNL     1       5.419   2.946  13.805  0.00  0.00    +0.000 HD
BRANCH  11  13
ATOM     13  C   UNL     1       6.306   3.128  11.895  0.00  0.00    +0.000 C 
ATOM     14  C   UNL     1       7.314   2.081  11.516  0.00  0.00    +0.000 C 
ATOM     15  C   UNL     1       5.847   1.783  11.401  0.00  0.00    +0.000 C 
ENDBRANCH  11  13
ENDBRANCH   3  10
ENDBRANCH   2   6
ENDBRANCH   1   2
BRANCH   1  16
ATOM     16  C   UNL     1       2.153   4.889  19.240  0.00  0.00    +0.000 C 
BRANCH  16  17
ATOM     17  C   UNL     1       2.788   3.569  18.934  0.00  0.00    +0.000 A 
ATOM     18  C   UNL     1       2.809   2.753  17.820  0.00  0.00    +0.000 A 
ATOM     19  C   UNL     1       3.544   1.599  18.182  0.00  0.00    +0.000 A 
ATOM     20  C   UNL     1       3.937   1.790  19.486  0.00  0.00    +0.000 A 
ATOM     21  O   UNL     1       3.478   2.978  19.952  0.00  0.00    +0.000 OA
ENDBRANCH  16  17
ENDBRANCH   1  16
BRANCH   1  22
ATOM     22  C   UNL     1       2.665   7.219  19.694  0.00  0.00    +0.000 C 
BRANCH  22  23
ATOM     23  C   UNL     1       1.848   8.281  19.027  0.00  0.00    +0.000 A 
ATOM     24  N   UNL     1       0.580   8.587  19.191  0.00  0.00    +0.000 NA
ATOM     25  C   UNL     1       0.403   9.622  18.296  0.00  0.00    +0.000 A 
ATOM     26  N   UNL     1       1.512   9.937  17.606  0.00  0.00    +0.000 NA
ATOM     27  O   UNL     1       2.473   9.051  18.093  0.00  0.00    +0.000 OA
BRANCH  25  28
ATOM     28  C   UNL     1      -0.887  10.284  18.116  0.00  0.00    +0.000 A 
ATOM     29  C   UNL     1      -1.260  11.347  18.956  0.00  0.00    +0.000 A 
ATOM     30  C   UNL     1      -2.500  11.975  18.801  0.00  0.00    +0.000 A 
ATOM     31  C   UNL     1      -3.367  11.541  17.805  0.00  0.00    +0.000 A 
ATOM     32  F   UNL     1      -4.557  12.139  17.662  0.00  0.00    +0.000 F 
ATOM     33  C   UNL     1      -3.020  10.496  16.960  0.00  0.00    +0.000 A 
ATOM     34  C   UNL     1      -1.780   9.868  17.114  0.00  0.00    +0.000 A 
ENDBRANCH  25  28
ENDBRANCH  22  23
ENDBRANCH   1  22
TORSDOF 9
ENDMDL
MODEL 5
REMARK VINA RESULT:      -8.6      4.522      8.879
REMARK  Name = 
REMARK  9 active torsions:
REMARK  status: ('A' for Active; 'I' for Inactive)
REMARK    1  A    between atoms: C_2  and  C_7
REMARK    2  A    between atoms: N_3  and  C_4
REMARK    3  A    between atoms: C_10  and  C_11
REMARK    4  A    between atoms: C_11  and  N_12
REMARK    5  A    between atoms: N_12  and  C_13
REMARK    6  A    between atoms: N_12  and  C_19
REMARK    7  A    between atoms: C_13  and  C_14
REMARK    8  A    between atoms: C_19  and  C_20
REMARK    9  A    between atoms: C_22  and  C_23
REMARK                            x       y       z     vdW  Elec       q    Type
REMARK                         _______ _______ _______ _____ _____    ______ ____
ROOT
ATOM      1  N   UNL     1       5.106   5.744  17.704  0.00  0.00    +0.000 NA
ENDROOT
BRANCH   1   2
ATOM      2  C   UNL     1       3.723   6.157  17.382  0.00  0.00    +0.000 C 
BRANCH   2   6
ATOM      3  C   UNL     1       1.316   8.616  19.991  0.00  0.00    +0.000 A 
ATOM      4  C   UNL     1       1.730   9.127  18.754  0.00  0.00    +0.000 A 
ATOM      5  C   UNL     1       2.593   8.378  17.939  0.00  0.00    +0.000 A 
ATOM      6  C   UNL     1       3.047   7.114  18.347  0.00  0.00    +0.000 A 
ATOM      7  C   UNL     1       2.687   6.647  19.619  0.00  0.00    +0.000 A 
ATOM      8  C   UNL     1       1.828   7.388  20.429  0.00  0.00    +0.000 A 
BRANCH   3  10
ATOM      9  O   UNL     1      -0.451   8.514  21.535  0.00  0.00    +0.000 OA
ATOM     10  C   UNL     1       0.245   9.235  20.823  0.00  0.00    +0.000 C 
ATOM     11  N   UNL     1       0.073  10.606  20.748  0.00  0.00    +0.000 N 
ATOM     12  H   UNL     1       0.732  11.174  20.235  0.00  0.00    +0.000 HD
BRANCH  11  13
ATOM     13  C   UNL     1      -0.998  11.251  21.446  0.00  0.00    +0.000 C 
ATOM     14  C   UNL     1      -0.866  11.713  22.868  0.00  0.00    +0.000 C 
ATOM     15  C   UNL     1      -0.902  12.720  21.756  0.00  0.00    +0.000 C 
ENDBRANCH  11  13
ENDBRANCH   3  10
ENDBRANCH   2   6
ENDBRANCH   1   2
BRANCH   1  16
ATOM     16  C   UNL     1       5.250   4.282  17.501  0.00  0.00    +0.000 C 
BRANCH  16  17
ATOM     17  C   UNL     1       4.212   3.484  18.225  0.00  0.00    +0.000 A 
ATOM     18  C   UNL     1       4.010   3.157  19.551  0.00  0.00    +0.000 A 
ATOM     19  C   UNL     1       2.869   2.319  19.589  0.00  0.00    +0.000 A 
ATOM     20  C   UNL     1       2.441   2.200  18.287  0.00  0.00    +0.000 A 
ATOM     21  O   UNL     1       3.252   2.897  17.453  0.00  0.00    +0.000 OA
ENDBRANCH  16  17
ENDBRANCH   1  16
BRANCH   1  22
ATOM     22  C   UNL     1       6.040   6.463  16.782  0.00  0.00    +0.000 C 
BRANCH  22  23
ATOM     23  C   UNL     1       7.021   7.362  17.467  0.00  0.00    +0.000 A 
ATOM     24  N   UNL     1       7.231   8.649  17.302  0.00  0.00    +0.000 NA
ATOM     25  C   UNL     1       8.260   8.900  18.186  0.00  0.00    +0.000 A 
ATOM     26  N   UNL     1       8.670   7.814  18.863  0.00  0.00    +0.000 NA
ATOM     27  O   UNL     1       7.845   6.793  18.391  0.00  0.00    +0.000 OA
BRANCH  25  28
ATOM     28  C   UNL     1       8.849  10.228  18.339  0.00  0.00    +0.000 A 
ATOM     29  C   UNL     1       9.913  10.432  19.235  0.00  0.00    +0.000 A 
ATOM     30  C   UNL     1      10.471  11.704  19.398  0.00  0.00    +0.000 A 
ATOM     31  C   UNL     1       9.966  12.773  18.667  0.00  0.00    +0.000 A 
ATOM     32  F   UNL     1      10.497  13.992  18.830  0.00  0.00    +0.000 F 
ATOM     33  C   UNL     1       8.919  12.596  17.774  0.00  0.00    +0.000 A 
ATOM     34  C   UNL     1       8.361  11.324  17.607  0.00  0.00    +0.000 A 
ENDBRANCH  25  28
ENDBRANCH  22  23
ENDBRANCH   1  22
TORSDOF 9
ENDMDL
MODEL 6
REMARK VINA RESULT:      -8.5      4.571      8.876
REMARK  Name = 
REMARK  9 active torsions:
REMARK  status: ('A' for Active; 'I' for Inactive)
REMARK    1  A    between atoms: C_2  and  C_7
REMARK    2  A    between atoms: N_3  and  C_4
REMARK    3  A    between atoms: C_10  and  C_11
REMARK    4  A    between atoms: C_11  and  N_12
REMARK    5  A    between atoms: N_12  and  C_13
REMARK    6  A    between atoms: N_12  and  C_19
REMARK    7  A    between atoms: C_13  and  C_14
REMARK    8  A    between atoms: C_19  and  C_20
REMARK    9  A    between atoms: C_22  and  C_23
REMARK                            x       y       z     vdW  Elec       q    Type
REMARK                         _______ _______ _______ _____ _____    ______ ____
ROOT
ATOM      1  N   UNL     1       4.968   5.941  17.677  0.00  0.00    +0.000 NA
ENDROOT
BRANCH   1   2
ATOM      2  C   UNL     1       3.563   6.156  17.271  0.00  0.00    +0.000 C 
BRANCH   2   6
ATOM      3  C   UNL     1       1.448   8.396  20.296  0.00  0.00    +0.000 A 
ATOM      4  C   UNL     1       1.737   7.043  20.520  0.00  0.00    +0.000 A 
ATOM      5  C   UNL     1       2.335   6.278  19.506  0.00  0.00    +0.000 A 
ATOM      6  C   UNL     1       2.654   6.854  18.267  0.00  0.00    +0.000 A 
ATOM      7  C   UNL     1       2.292   8.187  18.030  0.00  0.00    +0.000 A 
ATOM      8  C   UNL     1       1.700   8.950  19.035  0.00  0.00    +0.000 A 
BRANCH   3  10
ATOM      9  O   UNL     1       1.720   9.469  22.368  0.00  0.00    +0.000 OA
ATOM     10  C   UNL     1       1.013   9.334  21.371  0.00  0.00    +0.000 C 
ATOM     11  N   UNL     1      -0.181  10.010  21.200  0.00  0.00    +0.000 N 
ATOM     12  H   UNL     1      -0.678   9.954  20.323  0.00  0.00    +0.000 HD
BRANCH  11  13
ATOM     13  C   UNL     1      -0.703  10.852  22.235  0.00  0.00    +0.000 C 
ATOM     14  C   UNL     1      -0.495  12.338  22.242  0.00  0.00    +0.000 C 
ATOM     15  C   UNL     1      -1.851  11.775  21.931  0.00  0.00    +0.000 C 
ENDBRANCH  11  13
ENDBRANCH   3  10
ENDBRANCH   2   6
ENDBRANCH   1   2
BRANCH   1  16
ATOM     16  C   UNL     1       5.337   4.520  17.469  0.00  0.00    +0.000 C 
BRANCH  16  17
ATOM     17  C   UNL     1       4.425   3.568  18.176  0.00  0.00    +0.000 A 
ATOM     18  C   UNL     1       3.483   2.653  17.752  0.00  0.00    +0.000 A 
ATOM     19  C   UNL     1       2.910   2.095  18.921  0.00  0.00    +0.000 A 
ATOM     20  C   UNL     1       3.548   2.695  19.981  0.00  0.00    +0.000 A 
ATOM     21  O   UNL     1       4.463   3.593  19.540  0.00  0.00    +0.000 OA
ENDBRANCH  16  17
ENDBRANCH   1  16
BRANCH   1  22
ATOM     22  C   UNL     1       5.842   6.807  16.826  0.00  0.00    +0.000 C 
BRANCH  22  23
ATOM     23  C   UNL     1       6.934   7.511  17.570  0.00  0.00    +0.000 A 
ATOM     24  N   UNL     1       7.285   8.778  17.535  0.00  0.00    +0.000 NA
ATOM     25  C   UNL     1       8.355   8.815  18.406  0.00  0.00    +0.000 A 
ATOM     26  N   UNL     1       8.653   7.623  18.950  0.00  0.00    +0.000 NA
ATOM     27  O   UNL     1       7.708   6.758  18.400  0.00  0.00    +0.000 OA
BRANCH  25  28
ATOM     28  C   UNL     1       9.094  10.045  18.679  0.00  0.00    +0.000 A 
ATOM     29  C   UNL     1       9.561  10.841  17.617  0.00  0.00    +0.000 A 
ATOM     30  C   UNL     1      10.284  12.012  17.871  0.00  0.00    +0.000 A 
ATOM     31  C   UNL     1      10.541  12.387  19.184  0.00  0.00    +0.000 A 
ATOM     32  F   UNL     1      11.239  13.505  19.425  0.00  0.00    +0.000 F 
ATOM     33  C   UNL     1      10.087  11.620  20.248  0.00  0.00    +0.000 A 
ATOM     34  C   UNL     1       9.363  10.450  19.997  0.00  0.00    +0.000 A 
ENDBRANCH  25  28
ENDBRANCH  22  23
ENDBRANCH   1  22
TORSDOF 9
ENDMDL
MODEL 7
REMARK VINA RESULT:      -8.5      3.928      6.973
REMARK  Name = 
REMARK  9 active torsions:
REMARK  status: ('A' for Active; 'I' for Inactive)
REMARK    1  A    between atoms: C_2  and  C_7
REMARK    2  A    between atoms: N_3  and  C_4
REMARK    3  A    between atoms: C_10  and  C_11
REMARK    4  A    between atoms: C_11  and  N_12
REMARK    5  A    between atoms: N_12  and  C_13
REMARK    6  A    between atoms: N_12  and  C_19
REMARK    7  A    between atoms: C_13  and  C_14
REMARK    8  A    between atoms: C_19  and  C_20
REMARK    9  A    between atoms: C_22  and  C_23
REMARK                            x       y       z     vdW  Elec       q    Type
REMARK                         _______ _______ _______ _____ _____    ______ ____
ROOT
ATOM      1  N   UNL     1       0.286  11.893  18.996  0.00  0.00    +0.000 NA
ENDROOT
BRANCH   1   2
ATOM      2  C   UNL     1      -0.053  10.511  19.401  0.00  0.00    +0.000 C 
BRANCH   2   6
ATOM      3  C   UNL     1       2.632   7.202  18.705  0.00  0.00    +0.000 A 
ATOM      4  C   UNL     1       2.098   7.395  19.986  0.00  0.00    +0.000 A 
ATOM      5  C   UNL     1       1.303   8.522  20.251  0.00  0.00    +0.000 A 
ATOM      6  C   UNL     1       1.031   9.460  19.243  0.00  0.00    +0.000 A 
ATOM      7  C   UNL     1       1.633   9.295  17.988  0.00  0.00    +0.000 A 
ATOM      8  C   UNL     1       2.421   8.176  17.722  0.00  0.00    +0.000 A 
BRANCH   3  10
ATOM      9  O   UNL     1       4.529   5.928  18.159  0.00  0.00    +0.000 OA
ATOM     10  C   UNL     1       3.305   5.942  18.274  0.00  0.00    +0.000 C 
ATOM     11  N   UNL     1       2.513   4.839  18.011  0.00  0.00    +0.000 N 
ATOM     12  H   UNL     1       1.525   4.860  18.220  0.00  0.00    +0.000 HD
BRANCH  11  13
ATOM     13  C   UNL     1       3.085   3.629  17.501  0.00  0.00    +0.000 C 
ATOM     14  C   UNL     1       3.749   2.618  18.391  0.00  0.00    +0.000 C 
ATOM     15  C   UNL     1       2.410   2.314  17.784  0.00  0.00    +0.000 C 
ENDBRANCH  11  13
ENDBRANCH   3  10
ENDBRANCH   2   6
ENDBRANCH   1   2
BRANCH   1  16
ATOM     16  C   UNL     1      -0.811  12.456  18.173  0.00  0.00    +0.000 C 
BRANCH  16  17
ATOM     17  C   UNL     1      -1.851  11.443  17.811  0.00  0.00    +0.000 A 
ATOM     18  C   UNL     1      -1.852  10.315  17.013  0.00  0.00    +0.000 A 
ATOM     19  C   UNL     1      -3.175   9.811  17.032  0.00  0.00    +0.000 A 
ATOM     20  C   UNL     1      -3.892  10.653  17.849  0.00  0.00    +0.000 A 
ATOM     21  O   UNL     1      -3.101  11.648  18.320  0.00  0.00    +0.000 OA
ENDBRANCH  16  17
ENDBRANCH   1  16
BRANCH   1  22
ATOM     22  C   UNL     1       0.448  12.719  20.232  0.00  0.00    +0.000 C 
BRANCH  22  23
ATOM     23  C   UNL     1      -0.581  12.466  21.289  0.00  0.00    +0.000 A 
ATOM     24  N   UNL     1      -1.845  12.827  21.328  0.00  0.00    +0.000 NA
ATOM     25  C   UNL     1      -2.261  12.330  22.546  0.00  0.00    +0.000 A 
ATOM     26  N   UNL     1      -1.295  11.694  23.230  0.00  0.00    +0.000 NA
ATOM     27  O   UNL     1      -0.181  11.779  22.395  0.00  0.00    +0.000 OA
BRANCH  25  28
ATOM     28  C   UNL     1      -3.626  12.509  23.035  0.00  0.00    +0.000 A 
ATOM     29  C   UNL     1      -3.917  12.336  24.400  0.00  0.00    +0.000 A 
ATOM     30  C   UNL     1      -5.224  12.489  24.873  0.00  0.00    +0.000 A 
ATOM     31  C   UNL     1      -6.240  12.817  23.983  0.00  0.00    +0.000 A 
ATOM     32  F   UNL     1      -7.493  12.958  24.437  0.00  0.00    +0.000 F 
ATOM     33  C   UNL     1      -5.977  12.998  22.632  0.00  0.00    +0.000 A 
ATOM     34  C   UNL     1      -4.670  12.846  22.158  0.00  0.00    +0.000 A 
ENDBRANCH  25  28
ENDBRANCH  22  23
ENDBRANCH   1  22
TORSDOF 9
ENDMDL
MODEL 8
REMARK VINA RESULT:      -8.4      3.788      9.961
REMARK  Name = 
REMARK  9 active torsions:
REMARK  status: ('A' for Active; 'I' for Inactive)
REMARK    1  A    between atoms: C_2  and  C_7
REMARK    2  A    between atoms: N_3  and  C_4
REMARK    3  A    between atoms: C_10  and  C_11
REMARK    4  A    between atoms: C_11  and  N_12
REMARK    5  A    between atoms: N_12  and  C_13
REMARK    6  A    between atoms: N_12  and  C_19
REMARK    7  A    between atoms: C_13  and  C_14
REMARK    8  A    between atoms: C_19  and  C_20
REMARK    9  A    between atoms: C_22  and  C_23
REMARK                            x       y       z     vdW  Elec       q    Type
REMARK                         _______ _______ _______ _____ _____    ______ ____
ROOT
ATOM      1  N   UNL     1       3.463   5.710  19.208  0.00  0.00    +0.000 NA
ENDROOT
BRANCH   1   2
ATOM      2  C   UNL     1       3.034   6.692  18.189  0.00  0.00    +0.000 C 
BRANCH   2   6
ATOM      3  C   UNL     1       0.708  10.072  19.535  0.00  0.00    +0.000 A 
ATOM      4  C   UNL     1       1.254  10.084  18.244  0.00  0.00    +0.000 A 
ATOM      5  C   UNL     1       2.093   9.038  17.828  0.00  0.00    +0.000 A 
ATOM      6  C   UNL     1       2.391   7.972  18.691  0.00  0.00    +0.000 A 
ATOM      7  C   UNL     1       1.900   8.009  20.004  0.00  0.00    +0.000 A 
ATOM      8  C   UNL     1       1.065   9.046  20.419  0.00  0.00    +0.000 A 
BRANCH   3  10
ATOM      9  O   UNL     1      -1.371  11.142  19.314  0.00  0.00    +0.000 OA
ATOM     10  C   UNL     1      -0.352  11.017  19.990  0.00  0.00    +0.000 C 
ATOM     11  N   UNL     1      -0.135  11.724  21.159  0.00  0.00    +0.000 N 
ATOM     12  H   UNL     1       0.664  11.514  21.740  0.00  0.00    +0.000 HD
BRANCH  11  13
ATOM     13  C   UNL     1      -1.068  12.716  21.601  0.00  0.00    +0.000 C 
ATOM     14  C   UNL     1      -2.413  12.359  22.163  0.00  0.00    +0.000 C 
ATOM     15  C   UNL     1      -1.338  12.876  23.073  0.00  0.00    +0.000 C 
ENDBRANCH  11  13
ENDBRANCH   3  10
ENDBRANCH   2   6
ENDBRANCH   1   2
BRANCH   1  16
ATOM     16  C   UNL     1       2.990   4.357  18.828  0.00  0.00    +0.000 C 
BRANCH  16  17
ATOM     17  C   UNL     1       2.401   3.598  19.975  0.00  0.00    +0.000 A 
ATOM     18  C   UNL     1       1.132   3.512  20.514  0.00  0.00    +0.000 A 
ATOM     19  C   UNL     1       1.231   2.660  21.641  0.00  0.00    +0.000 A 
ATOM     20  C   UNL     1       2.548   2.270  21.709  0.00  0.00    +0.000 A 
ATOM     21  O   UNL     1       3.266   2.838  20.708  0.00  0.00    +0.000 OA
ENDBRANCH  16  17
ENDBRANCH   1  16
BRANCH   1  22
ATOM     22  C   UNL     1       4.958   5.711  19.264  0.00  0.00    +0.000 C 
BRANCH  22  23
ATOM     23  C   UNL     1       5.630   5.773  17.928  0.00  0.00    +0.000 A 
ATOM     24  N   UNL     1       5.520   4.962  16.899  0.00  0.00    +0.000 NA
ATOM     25  C   UNL     1       6.389   5.521  15.984  0.00  0.00    +0.000 A 
ATOM     26  N   UNL     1       7.010   6.626  16.431  0.00  0.00    +0.000 NA
ATOM     27  O   UNL     1       6.504   6.797  17.719  0.00  0.00    +0.000 OA
BRANCH  25  28
ATOM     28  C   UNL     1       6.612   4.936  14.664  0.00  0.00    +0.000 A 
ATOM     29  C   UNL     1       7.573   5.487  13.799  0.00  0.00    +0.000 A 
ATOM     30  C   UNL     1       7.780   4.942  12.527  0.00  0.00    +0.000 A 
ATOM     31  C   UNL     1       7.028   3.847  12.120  0.00  0.00    +0.000 A 
ATOM     32  F   UNL     1       7.223   3.330  10.900  0.00  0.00    +0.000 F 
ATOM     33  C   UNL     1       6.076   3.282  12.959  0.00  0.00    +0.000 A 
ATOM     34  C   UNL     1       5.868   3.825  14.230  0.00  0.00    +0.000 A 
ENDBRANCH  25  28
ENDBRANCH  22  23
ENDBRANCH   1  22
TORSDOF 9
ENDMDL
MODEL 9
REMARK VINA RESULT:      -8.3      3.889      9.567
REMARK  Name = 
REMARK  9 active torsions:
REMARK  status: ('A' for Active; 'I' for Inactive)
REMARK    1  A    between atoms: C_2  and  C_7
REMARK    2  A    between atoms: N_3  and  C_4
REMARK    3  A    between atoms: C_10  and  C_11
REMARK    4  A    between atoms: C_11  and  N_12
REMARK    5  A    between atoms: N_12  and  C_13
REMARK    6  A    between atoms: N_12  and  C_19
REMARK    7  A    between atoms: C_13  and  C_14
REMARK    8  A    between atoms: C_19  and  C_20
REMARK    9  A    between atoms: C_22  and  C_23
REMARK                            x       y       z     vdW  Elec       q    Type
REMARK                         _______ _______ _______ _____ _____    ______ ____
ROOT
ATOM      1  N   UNL     1       4.197   5.305  19.679  0.00  0.00    +0.000 NA
ENDROOT
BRANCH   1   2
ATOM      2  C   UNL     1       3.242   5.773  18.652  0.00  0.00    +0.000 C 
BRANCH   2   6
ATOM      3  C   UNL     1       1.191   9.395  19.803  0.00  0.00    +0.000 A 
ATOM      4  C   UNL     1       1.278   8.335  20.715  0.00  0.00    +0.000 A 
ATOM      5  C   UNL     1       1.855   7.117  20.322  0.00  0.00    +0.000 A 
ATOM      6  C   UNL     1       2.352   6.947  19.021  0.00  0.00    +0.000 A 
ATOM      7  C   UNL     1       2.192   7.988  18.096  0.00  0.00    +0.000 A 
ATOM      8  C   UNL     1       1.621   9.199  18.484  0.00  0.00    +0.000 A 
BRANCH   3  10
ATOM      9  O   UNL     1       0.195  10.960  21.242  0.00  0.00    +0.000 OA
ATOM     10  C   UNL     1       0.794  10.781  20.184  0.00  0.00    +0.000 C 
ATOM     11  N   UNL     1       1.113  11.811  19.318  0.00  0.00    +0.000 N 
ATOM     12  H   UNL     1       1.699  11.637  18.513  0.00  0.00    +0.000 HD
BRANCH  11  13
ATOM     13  C   UNL     1       0.677  13.150  19.577  0.00  0.00    +0.000 C 
ATOM     14  C   UNL     1       1.092  14.309  18.718  0.00  0.00    +0.000 C 
ATOM     15  C   UNL     1      -0.318  13.798  18.653  0.00  0.00    +0.000 C 
ENDBRANCH  11  13
ENDBRANCH   3  10
ENDBRANCH   2   6
ENDBRANCH   1   2
BRANCH   1  16
ATOM     16  C   UNL     1       4.057   3.839  19.860  0.00  0.00    +0.000 C 
BRANCH  16  17
ATOM     17  C   UNL     1       2.641   3.368  19.756  0.00  0.00    +0.000 A 
ATOM     18  C   UNL     1       1.537   3.466  20.580  0.00  0.00    +0.000 A 
ATOM     19  C   UNL     1       0.492   2.759  19.936  0.00  0.00    +0.000 A 
ATOM     20  C   UNL     1       1.020   2.289  18.756  0.00  0.00    +0.000 A 
ATOM     21  O   UNL     1       2.323   2.648  18.641  0.00  0.00    +0.000 OA
ENDBRANCH  16  17
ENDBRANCH   1  16
BRANCH   1  22
ATOM     22  C   UNL     1       5.583   5.612  19.209  0.00  0.00    +0.000 C 
BRANCH  22  23
ATOM     23  C   UNL     1       5.728   5.711  17.722  0.00  0.00    +0.000 A 
ATOM     24  N   UNL     1       6.039   4.779  16.849  0.00  0.00    +0.000 NA
ATOM     25  C   UNL     1       6.038   5.474  15.657  0.00  0.00    +0.000 A 
ATOM     26  N   UNL     1       5.744   6.778  15.790  0.00  0.00    +0.000 NA
ATOM     27  O   UNL     1       5.534   6.937  17.159  0.00  0.00    +0.000 OA
BRANCH  25  28
ATOM     28  C   UNL     1       6.353   4.833  14.382  0.00  0.00    +0.000 A 
ATOM     29  C   UNL     1       7.531   5.168  13.693  0.00  0.00    +0.000 A 
ATOM     30  C   UNL     1       7.831   4.571  12.464  0.00  0.00    +0.000 A 
ATOM     31  C   UNL     1       6.953   3.639  11.923  0.00  0.00    +0.000 A 
ATOM     32  F   UNL     1       7.238   3.073  10.743  0.00  0.00    +0.000 F 
ATOM     33  C   UNL     1       5.785   3.288  12.587  0.00  0.00    +0.000 A 
ATOM     34  C   UNL     1       5.485   3.883  13.816  0.00  0.00    +0.000 A 
ENDBRANCH  25  28
ENDBRANCH  22  23
ENDBRANCH   1  22
TORSDOF 9
ENDMDL
