MODEL 1
REMARK VINA RESULT:      -7.1      0.000      0.000
REMARK  Name = 
REMARK  9 active torsions:
REMARK  status: ('A' for Active; 'I' for Inactive)
REMARK    1  A    between atoms: C_1  and  N_2
REMARK    2  A    between atoms: N_2  and  C_3
REMARK    3  A    between atoms: N_2  and  S_4
REMARK    4  A    between atoms: S_4  and  N_7
REMARK    5  A    between atoms: N_7  and  C_8
REMARK    6  A    between atoms: C_12  and  C_13
REMARK    7  A    between atoms: C_13  and  O_14
REMARK    8  A    between atoms: O_14  and  C_15
REMARK    9  A    between atoms: C_15  and  C_16
REMARK                            x       y       z     vdW  Elec       q    Type
REMARK                         _______ _______ _______ _____ _____    ______ ____
ROOT
ATOM      1  C   UNL     1       4.710   5.289  17.598  0.00  0.00    +0.000 A 
ATOM      2  C   UNL     1       4.324   6.512  17.048  0.00  0.00    +0.000 A 
ATOM      3  C   UNL     1       3.361   7.294  17.687  0.00  0.00    +0.000 A 
ATOM      4  C   UNL     1       2.768   6.844  18.867  0.00  0.00    +0.000 A 
ATOM      5  C   UNL     1       3.127   5.603  19.419  0.00  0.00    +0.000 A 
ATOM      6  C   UNL     1       4.104   4.827  18.770  0.00  0.00    +0.000 A 
ENDROOT
BRANCH   1   7
ATOM      7  N   UNL     1       5.698   4.497  16.924  0.00  0.00    +0.000 N 
ATOM      8  H   UNL     1       5.429   4.251  15.971  0.00  0.00    +0.000 HD
BRANCH   7   9
ATOM      9  S   UNL     1       7.239   5.179  16.823  0.00  0.00    +0.000 S 
ATOM     10  O   UNL     1       7.379   5.943  15.607  0.00  0.00    +0.000 OA
ATOM     11  O   UNL     1       8.178   4.150  17.199  0.00  0.00    +0.000 OA
BRANCH   9  13
ATOM     12  C   UNL     1       7.787   5.746  19.348  0.00  0.00    +0.000 C 
ATOM     13  N   UNL     1       7.162   6.294  18.112  0.00  0.00    +0.000 NA
ATOM     14  C   UNL     1       7.703   7.640  17.818  0.00  0.00    +0.000 C 
ENDBRANCH   9  13
ENDBRANCH   7   9
ENDBRANCH   1   7
BRANCH   5  15
ATOM     15  C   UNL     1       2.466   5.123  20.686  0.00  0.00    +0.000 C 
BRANCH  15  16
ATOM     16  O   UNL     1       1.153   4.670  20.369  0.00  0.00    +0.000 OA
BRANCH  16  17
ATOM     17  C   UNL     1       1.070   3.242  20.276  0.00  0.00    +0.000 C 
BRANCH  17  18
ATOM     18  C   UNL     1       1.089   2.745  18.825  0.00  0.00    +0.000 C 
ATOM     19  F   UNL     1       0.093   1.877  18.549  0.00  0.00    +0.000 F 
ATOM     20  F   UNL     1       0.976   3.783  17.962  0.00  0.00    +0.000 F 
ATOM     21  F   UNL     1       2.259   2.123  18.548  0.00  0.00    +0.000 F 
ENDBRANCH  17  18
ENDBRANCH  16  17
ENDBRANCH  15  16
ENDBRANCH   5  15
TORSDOF 7
ENDMDL
MODEL 2
REMARK VINA RESULT:      -7.1      2.160      2.650
REMARK  Name = 
REMARK  9 active torsions:
REMARK  status: ('A' for Active; 'I' for Inactive)
REMARK    1  A    between atoms: C_1  and  N_2
REMARK    2  A    between atoms: N_2  and  C_3
REMARK    3  A    between atoms: N_2  and  S_4
REMARK    4  A    between atoms: S_4  and  N_7
REMARK    5  A    between atoms: N_7  and  C_8
REMARK    6  A    between atoms: C_12  and  C_13
REMARK    7  A    between atoms: C_13  and  O_14
REMARK    8  A    between atoms: O_14  and  C_15
REMARK    9  A    between atoms: C_15  and  C_16
REMARK                            x       y       z     vdW  Elec       q    Type
REMARK                         _______ _______ _______ _____ _____    ______ ____
ROOT
ATOM      1  C   UNL     1       4.487   5.817  18.093  0.00  0.00    +0.000 A 
ATOM      2  C   UNL     1       3.502   6.806  18.083  0.00  0.00    +0.000 A 
ATOM      3  C   UNL     1       2.156   6.452  17.980  0.00  0.00    +0.000 A 
ATOM      4  C   UNL     1       1.795   5.110  17.866  0.00  0.00    +0.000 A 
ATOM      5  C   UNL     1       2.776   4.105  17.849  0.00  0.00    +0.000 A 
ATOM      6  C   UNL     1       4.128   4.473  17.960  0.00  0.00    +0.000 A 
ENDROOT
BRANCH   1   7
ATOM      7  N   UNL     1       5.864   6.201  18.194  0.00  0.00    +0.000 N 
ATOM      8  H   UNL     1       6.452   5.477  18.608  0.00  0.00    +0.000 HD
BRANCH   7   9
ATOM      9  S   UNL     1       6.609   6.647  16.746  0.00  0.00    +0.000 S 
ATOM     10  O   UNL     1       7.578   7.692  16.972  0.00  0.00    +0.000 OA
ATOM     11  O   UNL     1       5.565   6.767  15.757  0.00  0.00    +0.000 OA
BRANCH   9  13
ATOM     12  C   UNL     1       7.781   4.450  17.638  0.00  0.00    +0.000 C 
ATOM     13  N   UNL     1       7.478   5.220  16.400  0.00  0.00    +0.000 NA
ATOM     14  C   UNL     1       6.865   4.337  15.383  0.00  0.00    +0.000 C 
ENDBRANCH   9  13
ENDBRANCH   7   9
ENDBRANCH   1   7
BRANCH   5  15
ATOM     15  C   UNL     1       2.371   2.659  17.710  0.00  0.00    +0.000 C 
BRANCH  15  16
ATOM     16  O   UNL     1       2.556   2.014  18.967  0.00  0.00    +0.000 OA
BRANCH  16  17
ATOM     17  C   UNL     1       1.374   2.037  19.778  0.00  0.00    +0.000 C 
BRANCH  17  18
ATOM     18  C   UNL     1       1.491   3.004  20.962  0.00  0.00    +0.000 C 
ATOM     19  F   UNL     1       1.095   2.460  22.131  0.00  0.00    +0.000 F 
ATOM     20  F   UNL     1       2.772   3.418  21.118  0.00  0.00    +0.000 F 
ATOM     21  F   UNL     1       0.739   4.110  20.753  0.00  0.00    +0.000 F 
ENDBRANCH  17  18
ENDBRANCH  16  17
ENDBRANCH  15  16
ENDBRANCH   5  15
TORSDOF 7
ENDMDL
MODEL 3
REMARK VINA RESULT:      -7.0      3.358      5.609
REMARK  Name = 
REMARK  9 active torsions:
REMARK  status: ('A' for Active; 'I' for Inactive)
REMARK    1  A    between atoms: C_1  and  N_2
REMARK    2  A    between atoms: N_2  and  C_3
REMARK    3  A    between atoms: N_2  and  S_4
REMARK    4  A    between atoms: S_4  and  N_7
REMARK    5  A    between atoms: N_7  and  C_8
REMARK    6  A    between atoms: C_12  and  C_13
REMARK    7  A    between atoms: C_13  and  O_14
REMARK    8  A    between atoms: O_14  and  C_15
REMARK    9  A    between atoms: C_15  and  C_16
REMARK                            x       y       z     vdW  Elec       q    Type
REMARK                         _______ _______ _______ _____ _____    ______ ____
ROOT
ATOM      1  C   UNL     1       3.925   5.323  19.110  0.00  0.00    +0.000 A 
ATOM      2  C   UNL     1       3.077   6.262  18.522  0.00  0.00    +0.000 A 
ATOM      3  C   UNL     1       3.574   7.161  17.578  0.00  0.00    +0.000 A 
ATOM      4  C   UNL     1       4.926   7.134  17.235  0.00  0.00    +0.000 A 
ATOM      5  C   UNL     1       5.798   6.213  17.836  0.00  0.00    +0.000 A 
ATOM      6  C   UNL     1       5.284   5.307  18.781  0.00  0.00    +0.000 A 
ENDROOT
BRANCH   1   7
ATOM      7  N   UNL     1       3.397   4.412  20.082  0.00  0.00    +0.000 N 
ATOM      8  H   UNL     1       2.425   4.606  20.325  0.00  0.00    +0.000 HD
BRANCH   7   9
ATOM      9  S   UNL     1       3.464   2.777  19.667  0.00  0.00    +0.000 S 
ATOM     10  O   UNL     1       4.403   2.076  20.508  0.00  0.00    +0.000 OA
ATOM     11  O   UNL     1       3.524   2.712  18.227  0.00  0.00    +0.000 OA
BRANCH   9  13
ATOM     12  C   UNL     1       1.542   2.799  21.484  0.00  0.00    +0.000 C 
ATOM     13  N   UNL     1       1.900   2.280  20.135  0.00  0.00    +0.000 NA
ATOM     14  C   UNL     1       0.823   2.584  19.166  0.00  0.00    +0.000 C 
ENDBRANCH   9  13
ENDBRANCH   7   9
ENDBRANCH   1   7
BRANCH   5  15
ATOM     15  C   UNL     1       7.260   6.206  17.467  0.00  0.00    +0.000 C 
BRANCH  15  16
ATOM     16  O   UNL     1       7.373   5.944  16.071  0.00  0.00    +0.000 OA
BRANCH  16  17
ATOM     17  C   UNL     1       7.158   4.564  15.748  0.00  0.00    +0.000 C 
BRANCH  17  18
ATOM     18  C   UNL     1       5.885   4.344  14.924  0.00  0.00    +0.000 C 
ATOM     19  F   UNL     1       6.065   3.501  13.886  0.00  0.00    +0.000 F 
ATOM     20  F   UNL     1       4.896   3.834  15.696  0.00  0.00    +0.000 F 
ATOM     21  F   UNL     1       5.432   5.516  14.421  0.00  0.00    +0.000 F 
ENDBRANCH  17  18
ENDBRANCH  16  17
ENDBRANCH  15  16
ENDBRANCH   5  15
TORSDOF 7
ENDMDL
MODEL 4
REMARK VINA RESULT:      -7.0      3.523      5.896
REMARK  Name = 
REMARK  9 active torsions:
REMARK  status: ('A' for Active; 'I' for Inactive)
REMARK    1  A    between atoms: C_1  and  N_2
REMARK    2  A    between atoms: N_2  and  C_3
REMARK    3  A    between atoms: N_2  and  S_4
REMARK    4  A    between atoms: S_4  and  N_7
REMARK    5  A    between atoms: N_7  and  C_8
REMARK    6  A    between atoms: C_12  and  C_13
REMARK    7  A    between atoms: C_13  and  O_14
REMARK    8  A    between atoms: O_14  and  C_15
REMARK    9  A    between atoms: C_15  and  C_16
REMARK                            x       y       z     vdW  Elec       q    Type
REMARK                         _______ _______ _______ _____ _____    ______ ____
ROOT
ATOM      1  C   UNL     1       2.934   5.152  17.803  0.00  0.00    +0.000 A 
ATOM      2  C   UNL     1       2.830   6.531  17.994  0.00  0.00    +0.000 A 
ATOM      3  C   UNL     1       3.802   7.385  17.471  0.00  0.00    +0.000 A 
ATOM      4  C   UNL     1       4.890   6.859  16.774  0.00  0.00    +0.000 A 
ATOM      5  C   UNL     1       5.022   5.472  16.596  0.00  0.00    +0.000 A 
ATOM      6  C   UNL     1       4.033   4.622  17.121  0.00  0.00    +0.000 A 
ENDROOT
BRANCH   1   7
ATOM      7  N   UNL     1       1.928   4.290  18.353  0.00  0.00    +0.000 N 
ATOM      8  H   UNL     1       1.846   3.404  17.854  0.00  0.00    +0.000 HD
BRANCH   7   9
ATOM      9  S   UNL     1       2.109   3.902  19.986  0.00  0.00    +0.000 S 
ATOM     10  O   UNL     1       0.822   3.720  20.612  0.00  0.00    +0.000 OA
ATOM     11  O   UNL     1       3.107   4.796  20.522  0.00  0.00    +0.000 OA
BRANCH   9  13
ATOM     12  C   UNL     1       2.482   1.705  18.560  0.00  0.00    +0.000 C 
ATOM     13  N   UNL     1       2.826   2.360  19.853  0.00  0.00    +0.000 NA
ATOM     14  C   UNL     1       4.290   2.321  20.073  0.00  0.00    +0.000 C 
ENDBRANCH   9  13
ENDBRANCH   7   9
ENDBRANCH   1   7
BRANCH   5  15
ATOM     15  C   UNL     1       6.211   4.918  15.853  0.00  0.00    +0.000 C 
BRANCH  15  16
ATOM     16  O   UNL     1       7.399   5.374  16.494  0.00  0.00    +0.000 OA
BRANCH  16  17
ATOM     17  C   UNL     1       7.662   4.685  17.724  0.00  0.00    +0.000 C 
BRANCH  17  18
ATOM     18  C   UNL     1       7.714   5.631  18.929  0.00  0.00    +0.000 C 
ATOM     19  F   UNL     1       8.672   5.300  19.820  0.00  0.00    +0.000 F 
ATOM     20  F   UNL     1       7.950   6.903  18.530  0.00  0.00    +0.000 F 
ATOM     21  F   UNL     1       6.531   5.633  19.586  0.00  0.00    +0.000 F 
ENDBRANCH  17  18
ENDBRANCH  16  17
ENDBRANCH  15  16
ENDBRANCH   5  15
TORSDOF 7
ENDMDL
MODEL 5
REMARK VINA RESULT:      -6.9      4.300      6.244
REMARK  Name = 
REMARK  9 active torsions:
REMARK  status: ('A' for Active; 'I' for Inactive)
REMARK    1  A    between atoms: C_1  and  N_2
REMARK    2  A    between atoms: N_2  and  C_3
REMARK    3  A    between atoms: N_2  and  S_4
REMARK    4  A    between atoms: S_4  and  N_7
REMARK    5  A    between atoms: N_7  and  C_8
REMARK    6  A    between atoms: C_12  and  C_13
REMARK    7  A    between atoms: C_13  and  O_14
REMARK    8  A    between atoms: O_14  and  C_15
REMARK    9  A    between atoms: C_15  and  C_16
REMARK                            x       y       z     vdW  Elec       q    Type
REMARK                         _______ _______ _______ _____ _____    ______ ____
ROOT
ATOM      1  C   UNL     1       4.478   4.565  17.973  0.00  0.00    +0.000 A 
ATOM      2  C   UNL     1       3.907   5.836  18.047  0.00  0.00    +0.000 A 
ATOM      3  C   UNL     1       4.251   6.814  17.113  0.00  0.00    +0.000 A 
ATOM      4  C   UNL     1       5.182   6.527  16.114  0.00  0.00    +0.000 A 
ATOM      5  C   UNL     1       5.784   5.260  16.041  0.00  0.00    +0.000 A 
ATOM      6  C   UNL     1       5.425   4.281  16.984  0.00  0.00    +0.000 A 
ENDROOT
BRANCH   1   7
ATOM      7  N   UNL     1       4.116   3.576  18.945  0.00  0.00    +0.000 N 
ATOM      8  H   UNL     1       3.681   3.974  19.777  0.00  0.00    +0.000 HD
BRANCH   7   9
ATOM      9  S   UNL     1       3.079   2.359  18.402  0.00  0.00    +0.000 S 
ATOM     10  O   UNL     1       3.772   1.096  18.325  0.00  0.00    +0.000 OA
ATOM     11  O   UNL     1       2.342   2.902  17.287  0.00  0.00    +0.000 OA
BRANCH   9  13
ATOM     12  C   UNL     1       2.633   2.767  20.978  0.00  0.00    +0.000 C 
ATOM     13  N   UNL     1       2.005   2.264  19.724  0.00  0.00    +0.000 NA
ATOM     14  C   UNL     1       0.687   2.908  19.517  0.00  0.00    +0.000 C 
ENDBRANCH   9  13
ENDBRANCH   7   9
ENDBRANCH   1   7
BRANCH   5  15
ATOM     15  C   UNL     1       6.800   4.969  14.965  0.00  0.00    +0.000 C 
BRANCH  15  16
ATOM     16  O   UNL     1       6.490   3.708  14.379  0.00  0.00    +0.000 OA
BRANCH  16  17
ATOM     17  C   UNL     1       5.325   3.757  13.546  0.00  0.00    +0.000 C 
BRANCH  17  18
ATOM     18  C   UNL     1       5.622   3.364  12.095  0.00  0.00    +0.000 C 
ATOM     19  F   UNL     1       6.759   3.915  11.620  0.00  0.00    +0.000 F 
ATOM     20  F   UNL     1       5.740   2.020  11.976  0.00  0.00    +0.000 F 
ATOM     21  F   UNL     1       4.613   3.749  11.278  0.00  0.00    +0.000 F 
ENDBRANCH  17  18
ENDBRANCH  16  17
ENDBRANCH  15  16
ENDBRANCH   5  15
TORSDOF 7
ENDMDL
MODEL 6
REMARK VINA RESULT:      -6.8      2.153      2.885
REMARK  Name = 
REMARK  9 active torsions:
REMARK  status: ('A' for Active; 'I' for Inactive)
REMARK    1  A    between atoms: C_1  and  N_2
REMARK    2  A    between atoms: N_2  and  C_3
REMARK    3  A    between atoms: N_2  and  S_4
REMARK    4  A    between atoms: S_4  and  N_7
REMARK    5  A    between atoms: N_7  and  C_8
REMARK    6  A    between atoms: C_12  and  C_13
REMARK    7  A    between atoms: C_13  and  O_14
REMARK    8  A    between atoms: O_14  and  C_15
REMARK    9  A    between atoms: C_15  and  C_16
REMARK                            x       y       z     vdW  Elec       q    Type
REMARK                         _______ _______ _______ _____ _____    ______ ____
ROOT
ATOM      1  C   UNL     1       4.770   5.326  18.302  0.00  0.00    +0.000 A 
ATOM      2  C   UNL     1       3.924   6.435  18.238  0.00  0.00    +0.000 A 
ATOM      3  C   UNL     1       2.549   6.258  18.079  0.00  0.00    +0.000 A 
ATOM      4  C   UNL     1       2.020   4.973  17.963  0.00  0.00    +0.000 A 
ATOM      5  C   UNL     1       2.860   3.848  17.999  0.00  0.00    +0.000 A 
ATOM      6  C   UNL     1       4.244   4.038  18.167  0.00  0.00    +0.000 A 
ENDROOT
BRANCH   1   7
ATOM      7  N   UNL     1       6.180   5.528  18.460  0.00  0.00    +0.000 N 
ATOM      8  H   UNL     1       6.605   4.879  19.123  0.00  0.00    +0.000 HD
BRANCH   7   9
ATOM      9  S   UNL     1       7.097   5.432  17.046  0.00  0.00    +0.000 S 
ATOM     10  O   UNL     1       8.016   4.321  17.109  0.00  0.00    +0.000 OA
ATOM     11  O   UNL     1       7.531   6.772  16.735  0.00  0.00    +0.000 OA
BRANCH   9  13
ATOM     12  C   UNL     1       5.486   6.183  15.087  0.00  0.00    +0.000 C 
ATOM     13  N   UNL     1       5.881   5.017  15.924  0.00  0.00    +0.000 NA
ATOM     14  C   UNL     1       6.184   3.849  15.065  0.00  0.00    +0.000 C 
ENDBRANCH   9  13
ENDBRANCH   7   9
ENDBRANCH   1   7
BRANCH   5  15
ATOM     15  C   UNL     1       2.276   2.465  17.857  0.00  0.00    +0.000 C 
BRANCH  15  16
ATOM     16  O   UNL     1       2.246   1.852  19.143  0.00  0.00    +0.000 OA
BRANCH  16  17
ATOM     17  C   UNL     1       1.168   2.331  19.958  0.00  0.00    +0.000 C 
BRANCH  17  18
ATOM     18  C   UNL     1       1.653   2.927  21.284  0.00  0.00    +0.000 C 
ATOM     19  F   UNL     1       0.973   2.463  22.353  0.00  0.00    +0.000 F 
ATOM     20  F   UNL     1       2.964   2.649  21.484  0.00  0.00    +0.000 F 
ATOM     21  F   UNL     1       1.528   4.275  21.277  0.00  0.00    +0.000 F 
ENDBRANCH  17  18
ENDBRANCH  16  17
ENDBRANCH  15  16
ENDBRANCH   5  15
TORSDOF 7
ENDMDL
MODEL 7
REMARK VINA RESULT:      -6.8      3.365      5.687
REMARK  Name = 
REMARK  9 active torsions:
REMARK  status: ('A' for Active; 'I' for Inactive)
REMARK    1  A    between atoms: C_1  and  N_2
REMARK    2  A    between atoms: N_2  and  C_3
REMARK    3  A    between atoms: N_2  and  S_4
REMARK    4  A    between atoms: S_4  and  N_7
REMARK    5  A    between atoms: N_7  and  C_8
REMARK    6  A    between atoms: C_12  and  C_13
REMARK    7  A    between atoms: C_13  and  O_14
REMARK    8  A    between atoms: O_14  and  C_15
REMARK    9  A    between atoms: C_15  and  C_16
REMARK                            x       y       z     vdW  Elec       q    Type
REMARK                         _______ _______ _______ _____ _____    ______ ____
ROOT
ATOM      1  C   UNL     1       3.250   5.306  19.837  0.00  0.00    +0.000 A 
ATOM      2  C   UNL     1       2.486   6.106  18.987  0.00  0.00    +0.000 A 
ATOM      3  C   UNL     1       3.077   6.713  17.877  0.00  0.00    +0.000 A 
ATOM      4  C   UNL     1       4.438   6.535  17.629  0.00  0.00    +0.000 A 
ATOM      5  C   UNL     1       5.226   5.754  18.490  0.00  0.00    +0.000 A 
ATOM      6  C   UNL     1       4.618   5.142  19.600  0.00  0.00    +0.000 A 
ENDROOT
BRANCH   1   7
ATOM      7  N   UNL     1       2.625   4.696  20.974  0.00  0.00    +0.000 N 
ATOM      8  H   UNL     1       1.707   5.088  21.184  0.00  0.00    +0.000 HD
BRANCH   7   9
ATOM      9  S   UNL     1       2.419   3.023  20.888  0.00  0.00    +0.000 S 
ATOM     10  O   UNL     1       1.169   2.632  21.491  0.00  0.00    +0.000 OA
ATOM     11  O   UNL     1       3.677   2.425  21.266  0.00  0.00    +0.000 OA
BRANCH   9  13
ATOM     12  C   UNL     1       3.209   1.822  18.667  0.00  0.00    +0.000 C 
ATOM     13  N   UNL     1       2.248   2.826  19.202  0.00  0.00    +0.000 NA
ATOM     14  C   UNL     1       0.876   2.522  18.736  0.00  0.00    +0.000 C 
ENDBRANCH   9  13
ENDBRANCH   7   9
ENDBRANCH   1   7
BRANCH   5  15
ATOM     15  C   UNL     1       6.699   5.583  18.217  0.00  0.00    +0.000 C 
BRANCH  15  16
ATOM     16  O   UNL     1       6.879   4.419  17.415  0.00  0.00    +0.000 OA
BRANCH  16  17
ATOM     17  C   UNL     1       7.105   4.729  16.034  0.00  0.00    +0.000 C 
BRANCH  17  18
ATOM     18  C   UNL     1       5.930   4.320  15.139  0.00  0.00    +0.000 C 
ATOM     19  F   UNL     1       6.298   3.524  14.113  0.00  0.00    +0.000 F 
ATOM     20  F   UNL     1       4.992   3.654  15.854  0.00  0.00    +0.000 F 
ATOM     21  F   UNL     1       5.328   5.411  14.611  0.00  0.00    +0.000 F 
ENDBRANCH  17  18
ENDBRANCH  16  17
ENDBRANCH  15  16
ENDBRANCH   5  15
TORSDOF 7
ENDMDL
MODEL 8
REMARK VINA RESULT:      -6.8      3.358      5.683
REMARK  Name = 
REMARK  9 active torsions:
REMARK  status: ('A' for Active; 'I' for Inactive)
REMARK    1  A    between atoms: C_1  and  N_2
REMARK    2  A    between atoms: N_2  and  C_3
REMARK    3  A    between atoms: N_2  and  S_4
REMARK    4  A    between atoms: S_4  and  N_7
REMARK    5  A    between atoms: N_7  and  C_8
REMARK    6  A    between atoms: C_12  and  C_13
REMARK    7  A    between atoms: C_13  and  O_14
REMARK    8  A    between atoms: O_14  and  C_15
REMARK    9  A    between atoms: C_15  and  C_16
REMARK                            x       y       z     vdW  Elec       q    Type
REMARK                         _______ _______ _______ _____ _____    ______ ____
ROOT
ATOM      1  C   UNL     1       3.408   5.766  19.599  0.00  0.00    +0.000 A 
ATOM      2  C   UNL     1       2.593   6.569  18.800  0.00  0.00    +0.000 A 
ATOM      3  C   UNL     1       3.080   7.080  17.596  0.00  0.00    +0.000 A 
ATOM      4  C   UNL     1       4.388   6.804  17.199  0.00  0.00    +0.000 A 
ATOM      5  C   UNL     1       5.228   6.019  18.004  0.00  0.00    +0.000 A 
ATOM      6  C   UNL     1       4.726   5.504  19.212  0.00  0.00    +0.000 A 
ENDROOT
BRANCH   1   7
ATOM      7  N   UNL     1       2.892   5.255  20.835  0.00  0.00    +0.000 N 
ATOM      8  H   UNL     1       2.282   5.915  21.316  0.00  0.00    +0.000 HD
BRANCH   7   9
ATOM      9  S   UNL     1       2.034   3.805  20.727  0.00  0.00    +0.000 S 
ATOM     10  O   UNL     1       0.702   4.038  20.224  0.00  0.00    +0.000 OA
ATOM     11  O   UNL     1       2.279   3.081  21.951  0.00  0.00    +0.000 OA
BRANCH   9  13
ATOM     12  C   UNL     1       3.955   2.119  20.045  0.00  0.00    +0.000 C 
ATOM     13  N   UNL     1       2.912   3.025  19.490  0.00  0.00    +0.000 NA
ATOM     14  C   UNL     1       2.091   2.308  18.487  0.00  0.00    +0.000 C 
ENDBRANCH   9  13
ENDBRANCH   7   9
ENDBRANCH   1   7
BRANCH   5  15
ATOM     15  C   UNL     1       6.645   5.742  17.569  0.00  0.00    +0.000 C 
BRANCH  15  16
ATOM     16  O   UNL     1       6.762   6.046  16.182  0.00  0.00    +0.000 OA
BRANCH  16  17
ATOM     17  C   UNL     1       7.256   4.941  15.414  0.00  0.00    +0.000 C 
BRANCH  17  18
ATOM     18  C   UNL     1       6.131   4.076  14.835  0.00  0.00    +0.000 C 
ATOM     19  F   UNL     1       4.997   4.770  14.601  0.00  0.00    +0.000 F 
ATOM     20  F   UNL     1       6.513   3.514  13.663  0.00  0.00    +0.000 F 
ATOM     21  F   UNL     1       5.821   3.065  15.680  0.00  0.00    +0.000 F 
ENDBRANCH  17  18
ENDBRANCH  16  17
ENDBRANCH  15  16
ENDBRANCH   5  15
TORSDOF 7
ENDMDL
MODEL 9
REMARK VINA RESULT:      -6.7      3.333      5.589
REMARK  Name = 
REMARK  9 active torsions:
REMARK  status: ('A' for Active; 'I' for Inactive)
REMARK    1  A    between atoms: C_1  and  N_2
REMARK    2  A    between atoms: N_2  and  C_3
REMARK    3  A    between atoms: N_2  and  S_4
REMARK    4  A    between atoms: S_4  and  N_7
REMARK    5  A    between atoms: N_7  and  C_8
REMARK    6  A    between atoms: C_12  and  C_13
REMARK    7  A    between atoms: C_13  and  O_14
REMARK    8  A    between atoms: O_14  and  C_15
REMARK    9  A    between atoms: C_15  and  C_16
REMARK                            x       y       z     vdW  Elec       q    Type
REMARK                         _______ _______ _______ _____ _____    ______ ____
ROOT
ATOM      1  C   UNL     1       4.000   5.422  19.357  0.00  0.00    +0.000 A 
ATOM      2  C   UNL     1       3.215   6.304  18.613  0.00  0.00    +0.000 A 
ATOM      3  C   UNL     1       3.770   6.997  17.536  0.00  0.00    +0.000 A 
ATOM      4  C   UNL     1       5.116   6.823  17.214  0.00  0.00    +0.000 A 
ATOM      5  C   UNL     1       5.925   5.959  17.969  0.00  0.00    +0.000 A 
ATOM      6  C   UNL     1       5.354   5.261  19.047  0.00  0.00    +0.000 A 
ENDROOT
BRANCH   1   7
ATOM      7  N   UNL     1       3.414   4.724  20.463  0.00  0.00    +0.000 N 
ATOM      8  H   UNL     1       2.473   5.049  20.687  0.00  0.00    +0.000 HD
BRANCH   7   9
ATOM      9  S   UNL     1       3.311   3.047  20.300  0.00  0.00    +0.000 S 
ATOM     10  O   UNL     1       2.418   2.493  21.288  0.00  0.00    +0.000 OA
ATOM     11  O   UNL     1       4.658   2.560  20.120  0.00  0.00    +0.000 OA
BRANCH   9  13
ATOM     12  C   UNL     1       3.254   2.038  17.855  0.00  0.00    +0.000 C 
ATOM     13  N   UNL     1       2.523   2.937  18.791  0.00  0.00    +0.000 NA
ATOM     14  C   UNL     1       1.092   2.563  18.850  0.00  0.00    +0.000 C 
ENDBRANCH   9  13
ENDBRANCH   7   9
ENDBRANCH   1   7
BRANCH   5  15
ATOM     15  C   UNL     1       7.382   5.793  17.618  0.00  0.00    +0.000 C 
BRANCH  15  16
ATOM     16  O   UNL     1       7.524   4.626  16.812  0.00  0.00    +0.000 OA
BRANCH  16  17
ATOM     17  C   UNL     1       7.304   4.887  15.420  0.00  0.00    +0.000 C 
BRANCH  17  18
ATOM     18  C   UNL     1       6.128   4.085  14.850  0.00  0.00    +0.000 C 
ATOM     19  F   UNL     1       5.067   4.855  14.531  0.00  0.00    +0.000 F 
ATOM     20  F   UNL     1       6.500   3.419  13.731  0.00  0.00    +0.000 F 
ATOM     21  F   UNL     1       5.704   3.158  15.742  0.00  0.00    +0.000 F 
ENDBRANCH  17  18
ENDBRANCH  16  17
ENDBRANCH  15  16
ENDBRANCH   5  15
TORSDOF 7
ENDMDL
