MODEL 1
REMARK VINA RESULT:      -8.8      0.000      0.000
REMARK  Name = 
REMARK  3 active torsions:
REMARK  status: ('A' for Active; 'I' for Inactive)
REMARK    1  A    between atoms: C_2  and  C_5
REMARK    2  A    between atoms: C_7  and  C_8
REMARK    3  A    between atoms: C_23  and  C_24
REMARK                            x       y       z     vdW  Elec       q    Type
REMARK                         _______ _______ _______ _____ _____    ______ ____
ROOT
ATOM      1  C   UNL     1       1.283   9.251  18.995  0.00  0.00    +0.000 A 
ATOM      2  N   UNL     1       1.066  10.044  20.017  0.00  0.00    +0.000 NA
ATOM      3  C   UNL     1       0.097  10.892  19.543  0.00  0.00    +0.000 A 
ATOM      4  N   UNL     1      -0.436  11.818  20.368  0.00  0.00    +0.000 N 
ATOM      5  C   UNL     1       0.035  11.987  21.758  0.00  0.00    +0.000 C 
ATOM      6  C   UNL     1      -1.019  11.532  22.804  0.00  0.00    +0.000 C 
ATOM      7  C   UNL     1      -2.354  12.044  22.407  0.00  0.00    +0.000 A 
ATOM      8  N   UNL     1      -3.473  12.160  23.169  0.00  0.00    +0.000 N 
ATOM      9  N   UNL     1      -4.526  12.637  22.474  0.00  0.00    +0.000 NA
ATOM     10  C   UNL     1      -4.048  12.811  21.235  0.00  0.00    +0.000 A 
ATOM     11  C   UNL     1      -2.692  12.465  21.140  0.00  0.00    +0.000 A 
ATOM     12  C   UNL     1      -1.713  12.469  20.015  0.00  0.00    +0.000 C 
ATOM     13  N   UNL     1      -0.232  10.672  18.263  0.00  0.00    +0.000 NA
ATOM     14  O   UNL     1       0.549   9.585  17.897  0.00  0.00    +0.000 OA
ATOM     15  H   UNL     1      -3.605  11.935  24.151  0.00  0.00    +0.000 HD
ENDROOT
BRANCH   1  18
ATOM     16  C   UNL     1       2.461   5.731  19.643  0.00  0.00    +0.000 A 
ATOM     17  C   UNL     1       1.802   6.964  19.775  0.00  0.00    +0.000 A 
ATOM     18  C   UNL     1       2.086   8.037  18.915  0.00  0.00    +0.000 A 
ATOM     19  C   UNL     1       3.081   7.874  17.941  0.00  0.00    +0.000 A 
ATOM     20  C   UNL     1       3.755   6.653  17.786  0.00  0.00    +0.000 A 
ATOM     21  C   UNL     1       3.437   5.589  18.644  0.00  0.00    +0.000 A 
BRANCH  16  23
ATOM     22  F   UNL     1       2.462   4.707  21.820  0.00  0.00    +0.000 F 
ATOM     23  C   UNL     1       2.091   4.556  20.519  0.00  0.00    +0.000 C 
ATOM     24  F   UNL     1       2.658   3.393  20.099  0.00  0.00    +0.000 F 
ATOM     25  F   UNL     1       0.749   4.334  20.537  0.00  0.00    +0.000 F 
ENDBRANCH  16  23
BRANCH  20  26
ATOM     26  C   UNL     1       4.771   6.469  16.681  0.00  0.00    +0.000 C 
ATOM     27  F   UNL     1       6.055   6.672  17.086  0.00  0.00    +0.000 F 
ATOM     28  F   UNL     1       4.737   5.217  16.148  0.00  0.00    +0.000 F 
ATOM     29  F   UNL     1       4.564   7.328  15.646  0.00  0.00    +0.000 F 
ENDBRANCH  20  26
ENDBRANCH   1  18
TORSDOF 3
ENDMDL
MODEL 2
REMARK VINA RESULT:      -8.8      1.731      3.928
REMARK  Name = 
REMARK  3 active torsions:
REMARK  status: ('A' for Active; 'I' for Inactive)
REMARK    1  A    between atoms: C_2  and  C_5
REMARK    2  A    between atoms: C_7  and  C_8
REMARK    3  A    between atoms: C_23  and  C_24
REMARK                            x       y       z     vdW  Elec       q    Type
REMARK                         _______ _______ _______ _____ _____    ______ ____
ROOT
ATOM      1  C   UNL     1       2.126   7.559  18.944  0.00  0.00    +0.000 A 
ATOM      2  N   UNL     1       1.982   8.045  20.154  0.00  0.00    +0.000 NA
ATOM      3  C   UNL     1       1.555   9.327  19.916  0.00  0.00    +0.000 A 
ATOM      4  N   UNL     1       1.228  10.120  20.958  0.00  0.00    +0.000 N 
ATOM      5  C   UNL     1       1.371   9.669  22.357  0.00  0.00    +0.000 C 
ATOM      6  C   UNL     1       0.001   9.451  23.056  0.00  0.00    +0.000 C 
ATOM      7  C   UNL     1      -0.898  10.586  22.733  0.00  0.00    +0.000 A 
ATOM      8  N   UNL     1      -2.040  10.964  23.366  0.00  0.00    +0.000 N 
ATOM      9  N   UNL     1      -2.628  12.028  22.783  0.00  0.00    +0.000 NA
ATOM     10  C   UNL     1      -1.831  12.313  21.744  0.00  0.00    +0.000 A 
ATOM     11  C   UNL     1      -0.730  11.449  21.673  0.00  0.00    +0.000 A 
ATOM     12  C   UNL     1       0.422  11.337  20.731  0.00  0.00    +0.000 C 
ATOM     13  N   UNL     1       1.493   9.642  18.616  0.00  0.00    +0.000 NA
ATOM     14  O   UNL     1       1.868   8.473  17.968  0.00  0.00    +0.000 OA
ATOM     15  H   UNL     1      -2.485  10.555  24.183  0.00  0.00    +0.000 HD
ENDROOT
BRANCH   1  18
ATOM     16  C   UNL     1       3.875   4.629  17.346  0.00  0.00    +0.000 A 
ATOM     17  C   UNL     1       3.494   5.940  17.673  0.00  0.00    +0.000 A 
ATOM     18  C   UNL     1       2.402   6.192  18.519  0.00  0.00    +0.000 A 
ATOM     19  C   UNL     1       1.660   5.105  19.003  0.00  0.00    +0.000 A 
ATOM     20  C   UNL     1       2.018   3.784  18.693  0.00  0.00    +0.000 A 
ATOM     21  C   UNL     1       3.127   3.558  17.863  0.00  0.00    +0.000 A 
BRANCH  16  23
ATOM     22  F   UNL     1       5.235   3.062  16.129  0.00  0.00    +0.000 F 
ATOM     23  C   UNL     1       5.100   4.364  16.501  0.00  0.00    +0.000 C 
ATOM     24  F   UNL     1       6.255   4.696  17.139  0.00  0.00    +0.000 F 
ATOM     25  F   UNL     1       5.089   5.083  15.346  0.00  0.00    +0.000 F 
ENDBRANCH  16  23
BRANCH  20  26
ATOM     26  C   UNL     1       1.255   2.620  19.284  0.00  0.00    +0.000 C 
ATOM     27  F   UNL     1       0.739   2.881  20.517  0.00  0.00    +0.000 F 
ATOM     28  F   UNL     1       0.205   2.239  18.509  0.00  0.00    +0.000 F 
ATOM     29  F   UNL     1       2.038   1.516  19.433  0.00  0.00    +0.000 F 
ENDBRANCH  20  26
ENDBRANCH   1  18
TORSDOF 3
ENDMDL
MODEL 3
REMARK VINA RESULT:      -8.8      1.722      3.926
REMARK  Name = 
REMARK  3 active torsions:
REMARK  status: ('A' for Active; 'I' for Inactive)
REMARK    1  A    between atoms: C_2  and  C_5
REMARK    2  A    between atoms: C_7  and  C_8
REMARK    3  A    between atoms: C_23  and  C_24
REMARK                            x       y       z     vdW  Elec       q    Type
REMARK                         _______ _______ _______ _____ _____    ______ ____
ROOT
ATOM      1  C   UNL     1       2.082   7.561  18.866  0.00  0.00    +0.000 A 
ATOM      2  N   UNL     1       1.965   8.074  20.067  0.00  0.00    +0.000 NA
ATOM      3  C   UNL     1       1.500   9.339  19.812  0.00  0.00    +0.000 A 
ATOM      4  N   UNL     1       1.187  10.151  20.845  0.00  0.00    +0.000 N 
ATOM      5  C   UNL     1       1.384   9.739  22.249  0.00  0.00    +0.000 C 
ATOM      6  C   UNL     1       0.042   9.507  22.996  0.00  0.00    +0.000 C 
ATOM      7  C   UNL     1      -0.893  10.612  22.674  0.00  0.00    +0.000 A 
ATOM      8  N   UNL     1      -2.024  10.979  23.334  0.00  0.00    +0.000 N 
ATOM      9  N   UNL     1      -2.655  12.015  22.744  0.00  0.00    +0.000 NA
ATOM     10  C   UNL     1      -1.898  12.292  21.674  0.00  0.00    +0.000 A 
ATOM     11  C   UNL     1      -0.779  11.452  21.588  0.00  0.00    +0.000 A 
ATOM     12  C   UNL     1       0.345  11.343  20.613  0.00  0.00    +0.000 C 
ATOM     13  N   UNL     1       1.389   9.620  18.507  0.00  0.00    +0.000 NA
ATOM     14  O   UNL     1       1.772   8.444  17.876  0.00  0.00    +0.000 OA
ATOM     15  H   UNL     1      -2.432  10.581  24.174  0.00  0.00    +0.000 HD
ENDROOT
BRANCH   1  18
ATOM     16  C   UNL     1       3.878   4.625  17.333  0.00  0.00    +0.000 A 
ATOM     17  C   UNL     1       3.480   5.937  17.634  0.00  0.00    +0.000 A 
ATOM     18  C   UNL     1       2.377   6.190  18.466  0.00  0.00    +0.000 A 
ATOM     19  C   UNL     1       1.643   5.103  18.961  0.00  0.00    +0.000 A 
ATOM     20  C   UNL     1       2.018   3.781  18.676  0.00  0.00    +0.000 A 
ATOM     21  C   UNL     1       3.138   3.555  17.860  0.00  0.00    +0.000 A 
BRANCH  16  23
ATOM     22  F   UNL     1       5.156   5.070  15.344  0.00  0.00    +0.000 F 
ATOM     23  C   UNL     1       5.115   4.360  16.504  0.00  0.00    +0.000 C 
ATOM     24  F   UNL     1       5.235   3.052  16.151  0.00  0.00    +0.000 F 
ATOM     25  F   UNL     1       6.256   4.675  17.175  0.00  0.00    +0.000 F 
ENDBRANCH  16  23
BRANCH  20  26
ATOM     26  C   UNL     1       1.263   2.619  19.279  0.00  0.00    +0.000 C 
ATOM     27  F   UNL     1       0.153   2.268  18.572  0.00  0.00    +0.000 F 
ATOM     28  F   UNL     1       2.024   1.494  19.369  0.00  0.00    +0.000 F 
ATOM     29  F   UNL     1       0.832   2.887  20.542  0.00  0.00    +0.000 F 
ENDBRANCH  20  26
ENDBRANCH   1  18
TORSDOF 3
ENDMDL
MODEL 4
REMARK VINA RESULT:      -8.8      1.734      3.900
REMARK  Name = 
REMARK  3 active torsions:
REMARK  status: ('A' for Active; 'I' for Inactive)
REMARK    1  A    between atoms: C_2  and  C_5
REMARK    2  A    between atoms: C_7  and  C_8
REMARK    3  A    between atoms: C_23  and  C_24
REMARK                            x       y       z     vdW  Elec       q    Type
REMARK                         _______ _______ _______ _____ _____    ______ ____
ROOT
ATOM      1  C   UNL     1       2.099   7.549  18.909  0.00  0.00    +0.000 A 
ATOM      2  N   UNL     1       1.973   8.050  20.115  0.00  0.00    +0.000 NA
ATOM      3  C   UNL     1       1.527   9.324  19.869  0.00  0.00    +0.000 A 
ATOM      4  N   UNL     1       1.211  10.126  20.908  0.00  0.00    +0.000 N 
ATOM      5  C   UNL     1       1.386   9.695  22.309  0.00  0.00    +0.000 C 
ATOM      6  C   UNL     1       0.032   9.471  23.037  0.00  0.00    +0.000 C 
ATOM      7  C   UNL     1      -0.886  10.591  22.717  0.00  0.00    +0.000 A 
ATOM      8  N   UNL     1      -2.020  10.964  23.367  0.00  0.00    +0.000 N 
ATOM      9  N   UNL     1      -2.631  12.014  22.782  0.00  0.00    +0.000 NA
ATOM     10  C   UNL     1      -1.857  12.295  21.725  0.00  0.00    +0.000 A 
ATOM     11  C   UNL     1      -0.748  11.442  21.643  0.00  0.00    +0.000 A 
ATOM     12  C   UNL     1       0.387  11.331  20.681  0.00  0.00    +0.000 C 
ATOM     13  N   UNL     1       1.436   9.621  18.567  0.00  0.00    +0.000 NA
ATOM     14  O   UNL     1       1.812   8.449  17.926  0.00  0.00    +0.000 OA
ATOM     15  H   UNL     1      -2.444  10.561  24.198  0.00  0.00    +0.000 HD
ENDROOT
BRANCH   1  18
ATOM     16  C   UNL     1       3.868   4.614  17.345  0.00  0.00    +0.000 A 
ATOM     17  C   UNL     1       3.481   5.926  17.659  0.00  0.00    +0.000 A 
ATOM     18  C   UNL     1       2.383   6.181  18.496  0.00  0.00    +0.000 A 
ATOM     19  C   UNL     1       1.641   5.095  18.983  0.00  0.00    +0.000 A 
ATOM     20  C   UNL     1       2.005   3.772  18.685  0.00  0.00    +0.000 A 
ATOM     21  C   UNL     1       3.121   3.545  17.864  0.00  0.00    +0.000 A 
BRANCH  16  23
ATOM     22  F   UNL     1       6.264   4.681  17.132  0.00  0.00    +0.000 F 
ATOM     23  C   UNL     1       5.101   4.347  16.510  0.00  0.00    +0.000 C 
ATOM     24  F   UNL     1       5.092   5.031  15.334  0.00  0.00    +0.000 F 
ATOM     25  F   UNL     1       5.218   3.032  16.179  0.00  0.00    +0.000 F 
ENDBRANCH  16  23
BRANCH  20  26
ATOM     26  C   UNL     1       1.243   2.611  19.280  0.00  0.00    +0.000 C 
ATOM     27  F   UNL     1       1.997   1.487  19.430  0.00  0.00    +0.000 F 
ATOM     28  F   UNL     1       0.740   2.894  20.512  0.00  0.00    +0.000 F 
ATOM     29  F   UNL     1       0.180   2.247  18.511  0.00  0.00    +0.000 F 
ENDBRANCH  20  26
ENDBRANCH   1  18
TORSDOF 3
ENDMDL
MODEL 5
REMARK VINA RESULT:      -8.7      2.555      3.577
REMARK  Name = 
REMARK  3 active torsions:
REMARK  status: ('A' for Active; 'I' for Inactive)
REMARK    1  A    between atoms: C_2  and  C_5
REMARK    2  A    between atoms: C_7  and  C_8
REMARK    3  A    between atoms: C_23  and  C_24
REMARK                            x       y       z     vdW  Elec       q    Type
REMARK                         _______ _______ _______ _____ _____    ______ ____
ROOT
ATOM      1  C   UNL     1       1.678   7.802  20.167  0.00  0.00    +0.000 A 
ATOM      2  N   UNL     1       1.519   8.880  19.437  0.00  0.00    +0.000 NA
ATOM      3  C   UNL     1       1.044   9.793  20.344  0.00  0.00    +0.000 A 
ATOM      4  N   UNL     1       0.833  11.067  19.953  0.00  0.00    +0.000 N 
ATOM      5  C   UNL     1       1.043  11.500  18.557  0.00  0.00    +0.000 C 
ATOM      6  C   UNL     1       2.267  12.443  18.403  0.00  0.00    +0.000 C 
ATOM      7  C   UNL     1       2.250  13.448  19.494  0.00  0.00    +0.000 A 
ATOM      8  N   UNL     1       2.922  14.627  19.565  0.00  0.00    +0.000 N 
ATOM      9  N   UNL     1       2.698  15.282  20.723  0.00  0.00    +0.000 NA
ATOM     10  C   UNL     1       1.869  14.476  21.399  0.00  0.00    +0.000 A 
ATOM     11  C   UNL     1       1.549  13.321  20.673  0.00  0.00    +0.000 A 
ATOM     12  C   UNL     1       0.694  12.134  20.966  0.00  0.00    +0.000 C 
ATOM     13  N   UNL     1       0.860   9.287  21.571  0.00  0.00    +0.000 NA
ATOM     14  O   UNL     1       1.280   7.969  21.459  0.00  0.00    +0.000 OA
ATOM     15  H   UNL     1       3.547  15.050  18.885  0.00  0.00    +0.000 HD
ENDROOT
BRANCH   1  18
ATOM     16  C   UNL     1       2.445   4.113  20.169  0.00  0.00    +0.000 A 
ATOM     17  C   UNL     1       1.968   5.377  20.549  0.00  0.00    +0.000 A 
ATOM     18  C   UNL     1       2.305   6.531  19.824  0.00  0.00    +0.000 A 
ATOM     19  C   UNL     1       3.172   6.409  18.729  0.00  0.00    +0.000 A 
ATOM     20  C   UNL     1       3.664   5.158  18.326  0.00  0.00    +0.000 A 
ATOM     21  C   UNL     1       3.294   4.017  19.055  0.00  0.00    +0.000 A 
BRANCH  16  23
ATOM     22  F   UNL     1       0.827   3.003  21.562  0.00  0.00    +0.000 F 
ATOM     23  C   UNL     1       2.012   2.866  20.906  0.00  0.00    +0.000 C 
ATOM     24  F   UNL     1       2.917   2.472  21.842  0.00  0.00    +0.000 F 
ATOM     25  F   UNL     1       1.853   1.806  20.067  0.00  0.00    +0.000 F 
ENDBRANCH  16  23
BRANCH  20  26
ATOM     26  C   UNL     1       4.536   5.032  17.098  0.00  0.00    +0.000 C 
ATOM     27  F   UNL     1       4.520   6.139  16.306  0.00  0.00    +0.000 F 
ATOM     28  F   UNL     1       5.842   4.809  17.407  0.00  0.00    +0.000 F 
ATOM     29  F   UNL     1       4.153   3.997  16.301  0.00  0.00    +0.000 F 
ENDBRANCH  20  26
ENDBRANCH   1  18
TORSDOF 3
ENDMDL
MODEL 6
REMARK VINA RESULT:      -8.7      2.513      3.511
REMARK  Name = 
REMARK  3 active torsions:
REMARK  status: ('A' for Active; 'I' for Inactive)
REMARK    1  A    between atoms: C_2  and  C_5
REMARK    2  A    between atoms: C_7  and  C_8
REMARK    3  A    between atoms: C_23  and  C_24
REMARK                            x       y       z     vdW  Elec       q    Type
REMARK                         _______ _______ _______ _____ _____    ______ ____
ROOT
ATOM      1  C   UNL     1       1.627   7.829  20.230  0.00  0.00    +0.000 A 
ATOM      2  N   UNL     1       1.433   8.909  19.511  0.00  0.00    +0.000 NA
ATOM      3  C   UNL     1       0.973   9.810  20.437  0.00  0.00    +0.000 A 
ATOM      4  N   UNL     1       0.733  11.084  20.058  0.00  0.00    +0.000 N 
ATOM      5  C   UNL     1       0.897  11.526  18.659  0.00  0.00    +0.000 C 
ATOM      6  C   UNL     1       2.103  12.487  18.475  0.00  0.00    +0.000 C 
ATOM      7  C   UNL     1       2.104  13.486  19.571  0.00  0.00    +0.000 A 
ATOM      8  N   UNL     1       2.762  14.674  19.629  0.00  0.00    +0.000 N 
ATOM      9  N   UNL     1       2.564  15.320  20.796  0.00  0.00    +0.000 NA
ATOM     10  C   UNL     1       1.766  14.499  21.492  0.00  0.00    +0.000 A 
ATOM     11  C   UNL     1       1.440  13.343  20.769  0.00  0.00    +0.000 A 
ATOM     12  C   UNL     1       0.610  12.143  21.081  0.00  0.00    +0.000 C 
ATOM     13  N   UNL     1       0.831   9.297  21.665  0.00  0.00    +0.000 NA
ATOM     14  O   UNL     1       1.265   7.985  21.534  0.00  0.00    +0.000 OA
ATOM     15  H   UNL     1       3.362  15.108  18.933  0.00  0.00    +0.000 HD
ENDROOT
BRANCH   1  18
ATOM     16  C   UNL     1       2.405   4.143  20.150  0.00  0.00    +0.000 A 
ATOM     17  C   UNL     1       1.921   5.397  20.557  0.00  0.00    +0.000 A 
ATOM     18  C   UNL     1       2.261   6.569  19.862  0.00  0.00    +0.000 A 
ATOM     19  C   UNL     1       3.138   6.475  18.772  0.00  0.00    +0.000 A 
ATOM     20  C   UNL     1       3.637   5.235  18.344  0.00  0.00    +0.000 A 
ATOM     21  C   UNL     1       3.264   4.076  19.042  0.00  0.00    +0.000 A 
BRANCH  16  23
ATOM     22  F   UNL     1       2.876   2.414  21.755  0.00  0.00    +0.000 F 
ATOM     23  C   UNL     1       1.968   2.877  20.853  0.00  0.00    +0.000 C 
ATOM     24  F   UNL     1       1.739   1.853  19.988  0.00  0.00    +0.000 F 
ATOM     25  F   UNL     1       0.810   3.051  21.545  0.00  0.00    +0.000 F 
ENDBRANCH  16  23
BRANCH  20  26
ATOM     26  C   UNL     1       4.520   5.141  17.121  0.00  0.00    +0.000 C 
ATOM     27  F   UNL     1       4.209   4.095  16.307  0.00  0.00    +0.000 F 
ATOM     28  F   UNL     1       4.454   6.256  16.344  0.00  0.00    +0.000 F 
ATOM     29  F   UNL     1       5.833   4.984  17.446  0.00  0.00    +0.000 F 
ENDBRANCH  20  26
ENDBRANCH   1  18
TORSDOF 3
ENDMDL
MODEL 7
REMARK VINA RESULT:      -8.5      1.940      4.294
REMARK  Name = 
REMARK  3 active torsions:
REMARK  status: ('A' for Active; 'I' for Inactive)
REMARK    1  A    between atoms: C_2  and  C_5
REMARK    2  A    between atoms: C_7  and  C_8
REMARK    3  A    between atoms: C_23  and  C_24
REMARK                            x       y       z     vdW  Elec       q    Type
REMARK                         _______ _______ _______ _____ _____    ______ ____
ROOT
ATOM      1  C   UNL     1       1.159   8.497  20.722  0.00  0.00    +0.000 A 
ATOM      2  N   UNL     1       0.242   9.286  20.216  0.00  0.00    +0.000 NA
ATOM      3  C   UNL     1       0.246  10.349  21.082  0.00  0.00    +0.000 A 
ATOM      4  N   UNL     1      -0.542  11.415  20.826  0.00  0.00    +0.000 N 
ATOM      5  C   UNL     1      -1.456  11.449  19.667  0.00  0.00    +0.000 C 
ATOM      6  C   UNL     1      -1.005  12.463  18.581  0.00  0.00    +0.000 C 
ATOM      7  C   UNL     1      -0.594  13.729  19.236  0.00  0.00    +0.000 A 
ATOM      8  N   UNL     1      -0.441  14.958  18.675  0.00  0.00    +0.000 N 
ATOM      9  N   UNL     1      -0.022  15.883  19.561  0.00  0.00    +0.000 NA
ATOM     10  C   UNL     1       0.103  15.204  20.708  0.00  0.00    +0.000 A 
ATOM     11  C   UNL     1      -0.251  13.855  20.563  0.00  0.00    +0.000 A 
ATOM     12  C   UNL     1      -0.284  12.700  21.507  0.00  0.00    +0.000 C 
ATOM     13  N   UNL     1       1.087  10.201  22.114  0.00  0.00    +0.000 NA
ATOM     14  O   UNL     1       1.696   8.976  21.879  0.00  0.00    +0.000 OA
ATOM     15  H   UNL     1      -0.593  15.245  17.712  0.00  0.00    +0.000 HD
ENDROOT
BRANCH   1  18
ATOM     16  C   UNL     1       3.289   6.233  18.592  0.00  0.00    +0.000 A 
ATOM     17  C   UNL     1       2.603   7.361  19.068  0.00  0.00    +0.000 A 
ATOM     18  C   UNL     1       1.742   7.278  20.174  0.00  0.00    +0.000 A 
ATOM     19  C   UNL     1       1.539   6.028  20.776  0.00  0.00    +0.000 A 
ATOM     20  C   UNL     1       2.211   4.883  20.322  0.00  0.00    +0.000 A 
ATOM     21  C   UNL     1       3.083   4.998  19.228  0.00  0.00    +0.000 A 
BRANCH  16  23
ATOM     22  F   UNL     1       4.040   7.407  16.632  0.00  0.00    +0.000 F 
ATOM     23  C   UNL     1       4.276   6.347  17.452  0.00  0.00    +0.000 C 
ATOM     24  F   UNL     1       4.280   5.246  16.654  0.00  0.00    +0.000 F 
ATOM     25  F   UNL     1       5.553   6.495  17.896  0.00  0.00    +0.000 F 
ENDBRANCH  16  23
BRANCH  20  26
ATOM     26  C   UNL     1       2.041   3.558  21.029  0.00  0.00    +0.000 C 
ATOM     27  F   UNL     1       2.825   2.567  20.520  0.00  0.00    +0.000 F 
ATOM     28  F   UNL     1       2.341   3.633  22.354  0.00  0.00    +0.000 F 
ATOM     29  F   UNL     1       0.762   3.097  20.956  0.00  0.00    +0.000 F 
ENDBRANCH  20  26
ENDBRANCH   1  18
TORSDOF 3
ENDMDL
MODEL 8
REMARK VINA RESULT:      -8.5      2.000      2.851
REMARK  Name = 
REMARK  3 active torsions:
REMARK  status: ('A' for Active; 'I' for Inactive)
REMARK    1  A    between atoms: C_2  and  C_5
REMARK    2  A    between atoms: C_7  and  C_8
REMARK    3  A    between atoms: C_23  and  C_24
REMARK                            x       y       z     vdW  Elec       q    Type
REMARK                         _______ _______ _______ _____ _____    ______ ____
ROOT
ATOM      1  C   UNL     1       1.213   8.355  20.748  0.00  0.00    +0.000 A 
ATOM      2  N   UNL     1       0.298   9.119  20.200  0.00  0.00    +0.000 NA
ATOM      3  C   UNL     1       0.216  10.170  21.077  0.00  0.00    +0.000 A 
ATOM      4  N   UNL     1      -0.594  11.211  20.789  0.00  0.00    +0.000 N 
ATOM      5  C   UNL     1      -1.443  11.229  19.581  0.00  0.00    +0.000 C 
ATOM      6  C   UNL     1      -0.968  12.273  18.533  0.00  0.00    +0.000 C 
ATOM      7  C   UNL     1      -0.639  13.543  19.225  0.00  0.00    +0.000 A 
ATOM      8  N   UNL     1      -0.499  14.784  18.688  0.00  0.00    +0.000 N 
ATOM      9  N   UNL     1      -0.163  15.712  19.607  0.00  0.00    +0.000 NA
ATOM     10  C   UNL     1      -0.078  15.021  20.751  0.00  0.00    +0.000 A 
ATOM     11  C   UNL     1      -0.376  13.663  20.571  0.00  0.00    +0.000 A 
ATOM     12  C   UNL     1      -0.421  12.496  21.499  0.00  0.00    +0.000 C 
ATOM     13  N   UNL     1       1.002  10.038  22.153  0.00  0.00    +0.000 NA
ATOM     14  O   UNL     1       1.667   8.838  21.939  0.00  0.00    +0.000 OA
ATOM     15  H   UNL     1      -0.607  15.079  17.722  0.00  0.00    +0.000 HD
ENDROOT
BRANCH   1  18
ATOM     16  C   UNL     1       1.991   4.724  20.113  0.00  0.00    +0.000 A 
ATOM     17  C   UNL     1       1.482   5.899  20.688  0.00  0.00    +0.000 A 
ATOM     18  C   UNL     1       1.869   7.165  20.220  0.00  0.00    +0.000 A 
ATOM     19  C   UNL     1       2.817   7.242  19.190  0.00  0.00    +0.000 A 
ATOM     20  C   UNL     1       3.343   6.083  18.597  0.00  0.00    +0.000 A 
ATOM     21  C   UNL     1       2.922   4.829  19.068  0.00  0.00    +0.000 A 
BRANCH  16  23
ATOM     22  F   UNL     1       1.250   3.296  21.902  0.00  0.00    +0.000 F 
ATOM     23  C   UNL     1       1.507   3.365  20.568  0.00  0.00    +0.000 C 
ATOM     24  F   UNL     1       2.405   2.377  20.305  0.00  0.00    +0.000 F 
ATOM     25  F   UNL     1       0.353   3.000  19.946  0.00  0.00    +0.000 F 
ENDBRANCH  16  23
BRANCH  20  26
ATOM     26  C   UNL     1       4.305   6.181  17.436  0.00  0.00    +0.000 C 
ATOM     27  F   UNL     1       4.262   5.104  16.604  0.00  0.00    +0.000 F 
ATOM     28  F   UNL     1       4.071   7.270  16.655  0.00  0.00    +0.000 F 
ATOM     29  F   UNL     1       5.599   6.282  17.848  0.00  0.00    +0.000 F 
ENDBRANCH  20  26
ENDBRANCH   1  18
TORSDOF 3
ENDMDL
MODEL 9
REMARK VINA RESULT:      -8.5      1.695      3.831
REMARK  Name = 
REMARK  3 active torsions:
REMARK  status: ('A' for Active; 'I' for Inactive)
REMARK    1  A    between atoms: C_2  and  C_5
REMARK    2  A    between atoms: C_7  and  C_8
REMARK    3  A    between atoms: C_23  and  C_24
REMARK                            x       y       z     vdW  Elec       q    Type
REMARK                         _______ _______ _______ _____ _____    ______ ____
ROOT
ATOM      1  C   UNL     1       2.303   7.903  18.361  0.00  0.00    +0.000 A 
ATOM      2  N   UNL     1       1.956   8.549  19.448  0.00  0.00    +0.000 NA
ATOM      3  C   UNL     1       1.645   9.798  18.973  0.00  0.00    +0.000 A 
ATOM      4  N   UNL     1       1.165  10.730  19.823  0.00  0.00    +0.000 N 
ATOM      5  C   UNL     1       1.016  10.465  21.268  0.00  0.00    +0.000 C 
ATOM      6  C   UNL     1      -0.471  10.374  21.708  0.00  0.00    +0.000 C 
ATOM      7  C   UNL     1      -1.236  11.477  21.075  0.00  0.00    +0.000 A 
ATOM      8  N   UNL     1      -2.457  11.963  21.420  0.00  0.00    +0.000 N 
ATOM      9  N   UNL     1      -2.870  12.954  20.604  0.00  0.00    +0.000 NA
ATOM     10  C   UNL     1      -1.877  13.080  19.715  0.00  0.00    +0.000 A 
ATOM     11  C   UNL     1      -0.826  12.188  19.969  0.00  0.00    +0.000 A 
ATOM     12  C   UNL     1       0.477  11.925  19.292  0.00  0.00    +0.000 C 
ATOM     13  N   UNL     1       1.847   9.939  17.656  0.00  0.00    +0.000 NA
ATOM     14  O   UNL     1       2.281   8.686  17.246  0.00  0.00    +0.000 OA
ATOM     15  H   UNL     1      -3.069  11.677  22.179  0.00  0.00    +0.000 HD
ENDROOT
BRANCH   1  18
ATOM     16  C   UNL     1       4.127   4.753  17.386  0.00  0.00    +0.000 A 
ATOM     17  C   UNL     1       3.745   6.101  17.476  0.00  0.00    +0.000 A 
ATOM     18  C   UNL     1       2.588   6.486  18.173  0.00  0.00    +0.000 A 
ATOM     19  C   UNL     1       1.784   5.490  18.745  0.00  0.00    +0.000 A 
ATOM     20  C   UNL     1       2.141   4.135  18.672  0.00  0.00    +0.000 A 
ATOM     21  C   UNL     1       3.315   3.778  17.988  0.00  0.00    +0.000 A 
BRANCH  16  23
ATOM     22  F   UNL     1       5.351   3.151  16.075  0.00  0.00    +0.000 F 
ATOM     23  C   UNL     1       5.417   4.355  16.705  0.00  0.00    +0.000 C 
ATOM     24  F   UNL     1       6.460   4.270  17.573  0.00  0.00    +0.000 F 
ATOM     25  F   UNL     1       5.790   5.254  15.755  0.00  0.00    +0.000 F 
ENDBRANCH  16  23
BRANCH  20  26
ATOM     26  C   UNL     1       1.306   3.079  19.360  0.00  0.00    +0.000 C 
ATOM     27  F   UNL     1       0.428   2.455  18.527  0.00  0.00    +0.000 F 
ATOM     28  F   UNL     1       2.065   2.095  19.914  0.00  0.00    +0.000 F 
ATOM     29  F   UNL     1       0.557   3.597  20.372  0.00  0.00    +0.000 F 
ENDBRANCH  20  26
ENDBRANCH   1  18
TORSDOF 3
ENDMDL
