MODEL 1
REMARK VINA RESULT:      -7.5      0.000      0.000
REMARK  Name = 
REMARK  11 active torsions:
REMARK  status: ('A' for Active; 'I' for Inactive)
REMARK    1  A    between atoms: C_1  and  C_2
REMARK    2  A    between atoms: C_2  and  N_3
REMARK    3  A    between atoms: N_3  and  C_4
REMARK    4  A    between atoms: N_3  and  C_6
REMARK    5  A    between atoms: C_4  and  C_5
REMARK    6  A    between atoms: C_6  and  C_7
REMARK    7  A    between atoms: C_7  and  O_8
REMARK    8  A    between atoms: O_8  and  C_9
REMARK    9  A    between atoms: C_15  and  C_16
REMARK   10  A    between atoms: C_15  and  C_17
REMARK   11  A    between atoms: C_22  and  C_23
REMARK                            x       y       z     vdW  Elec       q    Type
REMARK                         _______ _______ _______ _____ _____    ______ ____
ROOT
ATOM      1  C   UNL     1       2.357   7.872  18.659  0.00  0.00    +0.000 A 
ATOM      2  C   UNL     1       2.163   8.853  17.689  0.00  0.00    +0.000 A 
ATOM      3  C   UNL     1       1.440  10.004  17.991  0.00  0.00    +0.000 A 
ATOM      4  C   UNL     1       0.887  10.183  19.262  0.00  0.00    +0.000 A 
ATOM      5  C   UNL     1       1.041   9.191  20.263  0.00  0.00    +0.000 A 
ATOM      6  C   UNL     1       1.782   8.033  19.926  0.00  0.00    +0.000 A 
ATOM      7  C   UNL     1       0.423   9.341  21.673  0.00  0.00    +0.000 C 
ATOM      8  C   UNL     1      -0.588   8.198  21.903  0.00  0.00    +0.000 C 
ATOM      9  C   UNL     1       1.537   9.286  22.740  0.00  0.00    +0.000 C 
ATOM     10  C   UNL     1      -0.305  10.665  21.790  0.00  0.00    +0.000 A 
ATOM     11  N   UNL     1      -0.962  11.128  22.906  0.00  0.00    +0.000 N 
ATOM     12  C   UNL     1      -1.528  12.358  22.640  0.00  0.00    +0.000 A 
ATOM     13  C   UNL     1      -2.294  13.203  23.456  0.00  0.00    +0.000 A 
ATOM     14  C   UNL     1      -2.754  14.416  22.907  0.00  0.00    +0.000 A 
ATOM     15  C   UNL     1      -2.448  14.759  21.587  0.00  0.00    +0.000 A 
ATOM     16 BR   UNL     1      -3.051  16.378  20.790  0.00  0.00    +0.000 Br
ATOM     17  C   UNL     1      -1.676  13.905  20.790  0.00  0.00    +0.000 A 
ATOM     18  C   UNL     1      -1.214  12.689  21.322  0.00  0.00    +0.000 A 
ATOM     19  C   UNL     1      -0.442  11.615  20.803  0.00  0.00    +0.000 A 
ATOM     20  C   UNL     1       0.137  11.450  19.490  0.00  0.00    +0.000 C 
ATOM     21  O   UNL     1       0.028  12.290  18.604  0.00  0.00    +0.000 OA
ATOM     22  H   UNL     1      -1.034  10.645  23.791  0.00  0.00    +0.000 HD
ENDROOT
BRANCH  14  23
ATOM     23  C   UNL     1      -3.542  15.274  23.745  0.00  0.00    +0.000 C 
ATOM     24  N   UNL     1      -4.206  15.944  24.420  0.00  0.00    +0.000 NA
ENDBRANCH  14  23
BRANCH   1  25
ATOM     25  O   UNL     1       3.063   6.711  18.466  0.00  0.00    +0.000 OA
BRANCH  25  26
ATOM     26  C   UNL     1       2.629   5.613  19.280  0.00  0.00    +0.000 C 
BRANCH  26  27
ATOM     27  C   UNL     1       1.978   4.529  18.410  0.00  0.00    +0.000 C 
BRANCH  27  28
ATOM     28  N   UNL     1       1.177   3.534  19.162  0.00  0.00    +0.000 NA
BRANCH  28  30
ATOM     29  C   UNL     1       2.724   2.114  17.752  0.00  0.00    +0.000 C 
ATOM     30  C   UNL     1       1.666   2.179  18.849  0.00  0.00    +0.000 C 
ENDBRANCH  28  30
BRANCH  28  31
ATOM     31  C   UNL     1       1.072   3.810  20.603  0.00  0.00    +0.000 C 
ATOM     32  C   UNL     1       1.680   2.764  21.535  0.00  0.00    +0.000 C 
ENDBRANCH  28  31
ENDBRANCH  27  28
ENDBRANCH  26  27
ENDBRANCH  25  26
ENDBRANCH   1  25
TORSDOF 7
ENDMDL
MODEL 2
REMARK VINA RESULT:      -7.4      3.323      9.192
REMARK  Name = 
REMARK  11 active torsions:
REMARK  status: ('A' for Active; 'I' for Inactive)
REMARK    1  A    between atoms: C_1  and  C_2
REMARK    2  A    between atoms: C_2  and  N_3
REMARK    3  A    between atoms: N_3  and  C_4
REMARK    4  A    between atoms: N_3  and  C_6
REMARK    5  A    between atoms: C_4  and  C_5
REMARK    6  A    between atoms: C_6  and  C_7
REMARK    7  A    between atoms: C_7  and  O_8
REMARK    8  A    between atoms: O_8  and  C_9
REMARK    9  A    between atoms: C_15  and  C_16
REMARK   10  A    between atoms: C_15  and  C_17
REMARK   11  A    between atoms: C_22  and  C_23
REMARK                            x       y       z     vdW  Elec       q    Type
REMARK                         _______ _______ _______ _____ _____    ______ ____
ROOT
ATOM      1  C   UNL     1      -0.138  12.523  20.054  0.00  0.00    +0.000 A 
ATOM      2  C   UNL     1       0.430  12.515  18.782  0.00  0.00    +0.000 A 
ATOM      3  C   UNL     1       1.068  11.372  18.307  0.00  0.00    +0.000 A 
ATOM      4  C   UNL     1       1.159  10.226  19.103  0.00  0.00    +0.000 A 
ATOM      5  C   UNL     1       0.617  10.212  20.413  0.00  0.00    +0.000 A 
ATOM      6  C   UNL     1      -0.025  11.388  20.867  0.00  0.00    +0.000 A 
ATOM      7  C   UNL     1       0.721   8.972  21.333  0.00  0.00    +0.000 C 
ATOM      8  C   UNL     1       1.527   9.350  22.594  0.00  0.00    +0.000 C 
ATOM      9  C   UNL     1      -0.693   8.497  21.731  0.00  0.00    +0.000 C 
ATOM     10  C   UNL     1       1.436   7.845  20.618  0.00  0.00    +0.000 A 
ATOM     11  N   UNL     1       1.694   6.597  21.135  0.00  0.00    +0.000 N 
ATOM     12  C   UNL     1       2.383   5.839  20.211  0.00  0.00    +0.000 A 
ATOM     13  C   UNL     1       2.868   4.525  20.291  0.00  0.00    +0.000 A 
ATOM     14  C   UNL     1       3.554   4.003  19.176  0.00  0.00    +0.000 A 
ATOM     15  C   UNL     1       3.739   4.780  18.029  0.00  0.00    +0.000 A 
ATOM     16 BR   UNL     1       4.666   4.132  16.500  0.00  0.00    +0.000 Br
ATOM     17  C   UNL     1       3.242   6.088  17.967  0.00  0.00    +0.000 A 
ATOM     18  C   UNL     1       2.559   6.624  19.072  0.00  0.00    +0.000 A 
ATOM     19  C   UNL     1       1.955   7.881  19.343  0.00  0.00    +0.000 A 
ATOM     20  C   UNL     1       1.854   9.052  18.503  0.00  0.00    +0.000 C 
ATOM     21  O   UNL     1       2.306   9.096  17.365  0.00  0.00    +0.000 OA
ATOM     22  H   UNL     1       1.431   6.275  22.057  0.00  0.00    +0.000 HD
ENDROOT
BRANCH  14  23
ATOM     23  C   UNL     1       4.052   2.661  19.266  0.00  0.00    +0.000 C 
ATOM     24  N   UNL     1       4.469   1.580  19.307  0.00  0.00    +0.000 NA
ENDBRANCH  14  23
BRANCH   1  25
ATOM     25  O   UNL     1      -0.798  13.592  20.607  0.00  0.00    +0.000 OA
BRANCH  25  26
ATOM     26  C   UNL     1      -1.598  13.264  21.752  0.00  0.00    +0.000 C 
BRANCH  26  27
ATOM     27  C   UNL     1      -3.090  13.344  21.401  0.00  0.00    +0.000 C 
BRANCH  27  28
ATOM     28  N   UNL     1      -3.963  12.471  22.220  0.00  0.00    +0.000 NA
BRANCH  28  30
ATOM     29  C   UNL     1      -4.386  12.474  24.714  0.00  0.00    +0.000 C 
ATOM     30  C   UNL     1      -3.386  12.335  23.571  0.00  0.00    +0.000 C 
ENDBRANCH  28  30
BRANCH  28  31
ATOM     31  C   UNL     1      -5.382  12.864  22.218  0.00  0.00    +0.000 C 
ATOM     32  C   UNL     1      -5.835  13.744  21.057  0.00  0.00    +0.000 C 
ENDBRANCH  28  31
ENDBRANCH  27  28
ENDBRANCH  26  27
ENDBRANCH  25  26
ENDBRANCH   1  25
TORSDOF 7
ENDMDL
MODEL 3
REMARK VINA RESULT:      -7.3      3.899      9.592
REMARK  Name = 
REMARK  11 active torsions:
REMARK  status: ('A' for Active; 'I' for Inactive)
REMARK    1  A    between atoms: C_1  and  C_2
REMARK    2  A    between atoms: C_2  and  N_3
REMARK    3  A    between atoms: N_3  and  C_4
REMARK    4  A    between atoms: N_3  and  C_6
REMARK    5  A    between atoms: C_4  and  C_5
REMARK    6  A    between atoms: C_6  and  C_7
REMARK    7  A    between atoms: C_7  and  O_8
REMARK    8  A    between atoms: O_8  and  C_9
REMARK    9  A    between atoms: C_15  and  C_16
REMARK   10  A    between atoms: C_15  and  C_17
REMARK   11  A    between atoms: C_22  and  C_23
REMARK                            x       y       z     vdW  Elec       q    Type
REMARK                         _______ _______ _______ _____ _____    ______ ____
ROOT
ATOM      1  C   UNL     1      -1.371  11.620  22.334  0.00  0.00    +0.000 A 
ATOM      2  C   UNL     1      -1.132  10.533  23.172  0.00  0.00    +0.000 A 
ATOM      3  C   UNL     1      -0.323   9.484  22.744  0.00  0.00    +0.000 A 
ATOM      4  C   UNL     1       0.244   9.499  21.467  0.00  0.00    +0.000 A 
ATOM      5  C   UNL     1      -0.004  10.576  20.579  0.00  0.00    +0.000 A 
ATOM      6  C   UNL     1      -0.829  11.627  21.043  0.00  0.00    +0.000 A 
ATOM      7  C   UNL     1       0.584  10.616  19.148  0.00  0.00    +0.000 C 
ATOM      8  C   UNL     1      -0.575  10.631  18.129  0.00  0.00    +0.000 C 
ATOM      9  C   UNL     1       1.456  11.879  18.978  0.00  0.00    +0.000 C 
ATOM     10  C   UNL     1       1.438   9.391  18.896  0.00  0.00    +0.000 A 
ATOM     11  N   UNL     1       2.119   9.107  17.736  0.00  0.00    +0.000 N 
ATOM     12  C   UNL     1       2.770   7.896  17.857  0.00  0.00    +0.000 A 
ATOM     13  C   UNL     1       3.570   7.197  16.942  0.00  0.00    +0.000 A 
ATOM     14  C   UNL     1       4.107   5.958  17.343  0.00  0.00    +0.000 A 
ATOM     15  C   UNL     1       3.845   5.450  18.618  0.00  0.00    +0.000 A 
ATOM     16 BR   UNL     1       4.533   3.778  19.210  0.00  0.00    +0.000 Br
ATOM     17  C   UNL     1       3.048   6.166  19.521  0.00  0.00    +0.000 A 
ATOM     18  C   UNL     1       2.503   7.402  19.134  0.00  0.00    +0.000 A 
ATOM     19  C   UNL     1       1.667   8.355  19.775  0.00  0.00    +0.000 A 
ATOM     20  C   UNL     1       1.100   8.334  21.104  0.00  0.00    +0.000 C 
ATOM     21  O   UNL     1       1.299   7.422  21.898  0.00  0.00    +0.000 OA
ATOM     22  H   UNL     1       2.140   9.687  16.908  0.00  0.00    +0.000 HD
ENDROOT
BRANCH  14  23
ATOM     23  C   UNL     1       4.919   5.244  16.400  0.00  0.00    +0.000 C 
ATOM     24  N   UNL     1       5.590   4.698  15.628  0.00  0.00    +0.000 NA
ENDBRANCH  14  23
BRANCH   1  25
ATOM     25  O   UNL     1      -2.141  12.707  22.667  0.00  0.00    +0.000 OA
BRANCH  25  26
ATOM     26  C   UNL     1      -3.384  12.378  23.303  0.00  0.00    +0.000 C 
BRANCH  26  27
ATOM     27  C   UNL     1      -4.527  13.205  22.700  0.00  0.00    +0.000 C 
BRANCH  27  28
ATOM     28  N   UNL     1      -5.764  12.437  22.424  0.00  0.00    +0.000 NA
BRANCH  28  30
ATOM     29  C   UNL     1      -6.811  14.211  23.892  0.00  0.00    +0.000 C 
ATOM     30  C   UNL     1      -6.772  12.751  23.454  0.00  0.00    +0.000 C 
ENDBRANCH  28  30
BRANCH  28  31
ATOM     31  C   UNL     1      -6.263  12.572  21.046  0.00  0.00    +0.000 C 
ATOM     32  C   UNL     1      -6.830  11.307  20.407  0.00  0.00    +0.000 C 
ENDBRANCH  28  31
ENDBRANCH  27  28
ENDBRANCH  26  27
ENDBRANCH  25  26
ENDBRANCH   1  25
TORSDOF 7
ENDMDL
MODEL 4
REMARK VINA RESULT:      -7.3      3.616      8.825
REMARK  Name = 
REMARK  11 active torsions:
REMARK  status: ('A' for Active; 'I' for Inactive)
REMARK    1  A    between atoms: C_1  and  C_2
REMARK    2  A    between atoms: C_2  and  N_3
REMARK    3  A    between atoms: N_3  and  C_4
REMARK    4  A    between atoms: N_3  and  C_6
REMARK    5  A    between atoms: C_4  and  C_5
REMARK    6  A    between atoms: C_6  and  C_7
REMARK    7  A    between atoms: C_7  and  O_8
REMARK    8  A    between atoms: O_8  and  C_9
REMARK    9  A    between atoms: C_15  and  C_16
REMARK   10  A    between atoms: C_15  and  C_17
REMARK   11  A    between atoms: C_22  and  C_23
REMARK                            x       y       z     vdW  Elec       q    Type
REMARK                         _______ _______ _______ _____ _____    ______ ____
ROOT
ATOM      1  C   UNL     1      -0.346  12.457  20.034  0.00  0.00    +0.000 A 
ATOM      2  C   UNL     1       0.237  12.462  18.769  0.00  0.00    +0.000 A 
ATOM      3  C   UNL     1       0.925  11.341  18.311  0.00  0.00    +0.000 A 
ATOM      4  C   UNL     1       1.052  10.207  19.118  0.00  0.00    +0.000 A 
ATOM      5  C   UNL     1       0.496  10.181  20.421  0.00  0.00    +0.000 A 
ATOM      6  C   UNL     1      -0.197  11.334  20.858  0.00  0.00    +0.000 A 
ATOM      7  C   UNL     1       0.639   8.954  21.354  0.00  0.00    +0.000 C 
ATOM      8  C   UNL     1       1.415   9.374  22.620  0.00  0.00    +0.000 C 
ATOM      9  C   UNL     1      -0.759   8.427  21.740  0.00  0.00    +0.000 C 
ATOM     10  C   UNL     1       1.406   7.850  20.656  0.00  0.00    +0.000 A 
ATOM     11  N   UNL     1       1.708   6.618  21.187  0.00  0.00    +0.000 N 
ATOM     12  C   UNL     1       2.438   5.881  20.277  0.00  0.00    +0.000 A 
ATOM     13  C   UNL     1       2.974   4.588  20.373  0.00  0.00    +0.000 A 
ATOM     14  C   UNL     1       3.692   4.085  19.271  0.00  0.00    +0.000 A 
ATOM     15  C   UNL     1       3.860   4.859  18.119  0.00  0.00    +0.000 A 
ATOM     16 BR   UNL     1       4.829   4.236  16.606  0.00  0.00    +0.000 Br
ATOM     17  C   UNL     1       3.312   6.146  18.040  0.00  0.00    +0.000 A 
ATOM     18  C   UNL     1       2.595   6.663  19.133  0.00  0.00    +0.000 A 
ATOM     19  C   UNL     1       1.938   7.897  19.387  0.00  0.00    +0.000 A 
ATOM     20  C   UNL     1       1.800   9.057  18.536  0.00  0.00    +0.000 C 
ATOM     21  O   UNL     1       2.264   9.109  17.402  0.00  0.00    +0.000 OA
ATOM     22  H   UNL     1       1.448   6.294  22.108  0.00  0.00    +0.000 HD
ENDROOT
BRANCH  14  23
ATOM     23  C   UNL     1       4.242   2.765  19.378  0.00  0.00    +0.000 C 
ATOM     24  N   UNL     1       4.701   1.706  19.495  0.00  0.00    +0.000 NA
ENDBRANCH  14  23
BRANCH   1  25
ATOM     25  O   UNL     1      -1.054  13.504  20.571  0.00  0.00    +0.000 OA
BRANCH  25  26
ATOM     26  C   UNL     1      -2.427  13.201  20.861  0.00  0.00    +0.000 C 
BRANCH  26  27
ATOM     27  C   UNL     1      -3.257  13.205  19.570  0.00  0.00    +0.000 C 
BRANCH  27  28
ATOM     28  N   UNL     1      -3.908  11.912  19.253  0.00  0.00    +0.000 NA
BRANCH  28  30
ATOM     29  C   UNL     1      -6.205  11.578  18.248  0.00  0.00    +0.000 C 
ATOM     30  C   UNL     1      -5.365  12.043  19.433  0.00  0.00    +0.000 C 
ENDBRANCH  28  30
BRANCH  28  31
ATOM     31  C   UNL     1      -3.520  11.344  17.951  0.00  0.00    +0.000 C 
ATOM     32  C   UNL     1      -2.598  10.129  17.994  0.00  0.00    +0.000 C 
ENDBRANCH  28  31
ENDBRANCH  27  28
ENDBRANCH  26  27
ENDBRANCH  25  26
ENDBRANCH   1  25
TORSDOF 7
ENDMDL
MODEL 5
REMARK VINA RESULT:      -7.2      0.810      1.111
REMARK  Name = 
REMARK  11 active torsions:
REMARK  status: ('A' for Active; 'I' for Inactive)
REMARK    1  A    between atoms: C_1  and  C_2
REMARK    2  A    between atoms: C_2  and  N_3
REMARK    3  A    between atoms: N_3  and  C_4
REMARK    4  A    between atoms: N_3  and  C_6
REMARK    5  A    between atoms: C_4  and  C_5
REMARK    6  A    between atoms: C_6  and  C_7
REMARK    7  A    between atoms: C_7  and  O_8
REMARK    8  A    between atoms: O_8  and  C_9
REMARK    9  A    between atoms: C_15  and  C_16
REMARK   10  A    between atoms: C_15  and  C_17
REMARK   11  A    between atoms: C_22  and  C_23
REMARK                            x       y       z     vdW  Elec       q    Type
REMARK                         _______ _______ _______ _____ _____    ______ ____
ROOT
ATOM      1  C   UNL     1       2.375   7.941  18.633  0.00  0.00    +0.000 A 
ATOM      2  C   UNL     1       2.140   8.914  17.664  0.00  0.00    +0.000 A 
ATOM      3  C   UNL     1       1.376  10.037  17.970  0.00  0.00    +0.000 A 
ATOM      4  C   UNL     1       0.823  10.195  19.244  0.00  0.00    +0.000 A 
ATOM      5  C   UNL     1       1.019   9.209  20.244  0.00  0.00    +0.000 A 
ATOM      6  C   UNL     1       1.800   8.080  19.903  0.00  0.00    +0.000 A 
ATOM      7  C   UNL     1       0.401   9.335  21.657  0.00  0.00    +0.000 C 
ATOM      8  C   UNL     1      -0.565   8.155  21.891  0.00  0.00    +0.000 C 
ATOM      9  C   UNL     1       1.522   9.321  22.719  0.00  0.00    +0.000 C 
ATOM     10  C   UNL     1      -0.375  10.630  21.778  0.00  0.00    +0.000 A 
ATOM     11  N   UNL     1      -1.044  11.069  22.897  0.00  0.00    +0.000 N 
ATOM     12  C   UNL     1      -1.656  12.277  22.635  0.00  0.00    +0.000 A 
ATOM     13  C   UNL     1      -2.450  13.092  23.455  0.00  0.00    +0.000 A 
ATOM     14  C   UNL     1      -2.957  14.288  22.909  0.00  0.00    +0.000 A 
ATOM     15  C   UNL     1      -2.671  14.642  21.587  0.00  0.00    +0.000 A 
ATOM     16 BR   UNL     1      -3.337  16.237  20.794  0.00  0.00    +0.000 Br
ATOM     17  C   UNL     1      -1.871  13.818  20.786  0.00  0.00    +0.000 A 
ATOM     18  C   UNL     1      -1.360  12.620  21.316  0.00  0.00    +0.000 A 
ATOM     19  C   UNL     1      -0.552  11.576  20.792  0.00  0.00    +0.000 A 
ATOM     20  C   UNL     1       0.027  11.433  19.476  0.00  0.00    +0.000 C 
ATOM     21  O   UNL     1      -0.118  12.269  18.591  0.00  0.00    +0.000 OA
ATOM     22  H   UNL     1      -1.093  10.582  23.782  0.00  0.00    +0.000 HD
ENDROOT
BRANCH  14  23
ATOM     23  C   UNL     1      -3.773  15.114  23.751  0.00  0.00    +0.000 C 
ATOM     24  N   UNL     1      -4.416  15.769  24.460  0.00  0.00    +0.000 NA
ENDBRANCH  14  23
BRANCH   1  25
ATOM     25  O   UNL     1       3.124   6.807  18.436  0.00  0.00    +0.000 OA
BRANCH  25  26
ATOM     26  C   UNL     1       2.565   5.621  19.020  0.00  0.00    +0.000 C 
BRANCH  26  27
ATOM     27  C   UNL     1       2.186   4.616  17.925  0.00  0.00    +0.000 C 
BRANCH  27  28
ATOM     28  N   UNL     1       2.952   3.348  17.960  0.00  0.00    +0.000 NA
BRANCH  28  30
ATOM     29  C   UNL     1       4.313   2.422  19.881  0.00  0.00    +0.000 C 
ATOM     30  C   UNL     1       4.129   3.515  18.833  0.00  0.00    +0.000 C 
ENDBRANCH  28  30
BRANCH  28  31
ATOM     31  C   UNL     1       2.142   2.162  18.277  0.00  0.00    +0.000 C 
ATOM     32  C   UNL     1       0.741   2.428  18.822  0.00  0.00    +0.000 C 
ENDBRANCH  28  31
ENDBRANCH  27  28
ENDBRANCH  26  27
ENDBRANCH  25  26
ENDBRANCH   1  25
TORSDOF 7
ENDMDL
MODEL 6
REMARK VINA RESULT:      -7.1      0.423      1.253
REMARK  Name = 
REMARK  11 active torsions:
REMARK  status: ('A' for Active; 'I' for Inactive)
REMARK    1  A    between atoms: C_1  and  C_2
REMARK    2  A    between atoms: C_2  and  N_3
REMARK    3  A    between atoms: N_3  and  C_4
REMARK    4  A    between atoms: N_3  and  C_6
REMARK    5  A    between atoms: C_4  and  C_5
REMARK    6  A    between atoms: C_6  and  C_7
REMARK    7  A    between atoms: C_7  and  O_8
REMARK    8  A    between atoms: O_8  and  C_9
REMARK    9  A    between atoms: C_15  and  C_16
REMARK   10  A    between atoms: C_15  and  C_17
REMARK   11  A    between atoms: C_22  and  C_23
REMARK                            x       y       z     vdW  Elec       q    Type
REMARK                         _______ _______ _______ _____ _____    ______ ____
ROOT
ATOM      1  C   UNL     1       2.354   7.876  18.640  0.00  0.00    +0.000 A 
ATOM      2  C   UNL     1       2.142   8.857  17.674  0.00  0.00    +0.000 A 
ATOM      3  C   UNL     1       1.397   9.992  17.980  0.00  0.00    +0.000 A 
ATOM      4  C   UNL     1       0.842  10.155  19.253  0.00  0.00    +0.000 A 
ATOM      5  C   UNL     1       1.014   9.162  20.249  0.00  0.00    +0.000 A 
ATOM      6  C   UNL     1       1.776   8.020  19.907  0.00  0.00    +0.000 A 
ATOM      7  C   UNL     1       0.393   9.294  21.660  0.00  0.00    +0.000 C 
ATOM      8  C   UNL     1      -0.596   8.130  21.884  0.00  0.00    +0.000 C 
ATOM      9  C   UNL     1       1.507   9.255  22.727  0.00  0.00    +0.000 C 
ATOM     10  C   UNL     1      -0.360  10.603  21.782  0.00  0.00    +0.000 A 
ATOM     11  N   UNL     1      -1.026  11.049  22.900  0.00  0.00    +0.000 N 
ATOM     12  C   UNL     1      -1.615  12.269  22.640  0.00  0.00    +0.000 A 
ATOM     13  C   UNL     1      -2.398  13.096  23.460  0.00  0.00    +0.000 A 
ATOM     14  C   UNL     1      -2.880  14.302  22.916  0.00  0.00    +0.000 A 
ATOM     15  C   UNL     1      -2.581  14.657  21.597  0.00  0.00    +0.000 A 
ATOM     16 BR   UNL     1      -3.214  16.267  20.807  0.00  0.00    +0.000 Br
ATOM     17  C   UNL     1      -1.793  13.821  20.796  0.00  0.00    +0.000 A 
ATOM     18  C   UNL     1      -1.307  12.612  21.324  0.00  0.00    +0.000 A 
ATOM     19  C   UNL     1      -0.515  11.555  20.800  0.00  0.00    +0.000 A 
ATOM     20  C   UNL     1       0.067  11.407  19.486  0.00  0.00    +0.000 C 
ATOM     21  O   UNL     1      -0.058  12.249  18.603  0.00  0.00    +0.000 OA
ATOM     22  H   UNL     1      -1.089  10.560  23.783  0.00  0.00    +0.000 HD
ENDROOT
BRANCH  14  23
ATOM     23  C   UNL     1      -3.685  15.140  23.757  0.00  0.00    +0.000 C 
ATOM     24  N   UNL     1      -4.334  15.793  24.463  0.00  0.00    +0.000 NA
ENDBRANCH  14  23
BRANCH   1  25
ATOM     25  O   UNL     1       3.083   6.729  18.441  0.00  0.00    +0.000 OA
BRANCH  25  26
ATOM     26  C   UNL     1       2.859   5.709  19.425  0.00  0.00    +0.000 C 
BRANCH  26  27
ATOM     27  C   UNL     1       1.903   4.642  18.878  0.00  0.00    +0.000 C 
BRANCH  27  28
ATOM     28  N   UNL     1       2.288   3.247  19.198  0.00  0.00    +0.000 NA
BRANCH  28  30
ATOM     29  C   UNL     1       1.491   2.897  21.573  0.00  0.00    +0.000 C 
ATOM     30  C   UNL     1       1.270   2.652  20.084  0.00  0.00    +0.000 C 
ENDBRANCH  28  30
BRANCH  28  31
ATOM     31  C   UNL     1       2.604   2.423  18.021  0.00  0.00    +0.000 C 
ATOM     32  C   UNL     1       3.705   1.381  18.203  0.00  0.00    +0.000 C 
ENDBRANCH  28  31
ENDBRANCH  27  28
ENDBRANCH  26  27
ENDBRANCH  25  26
ENDBRANCH   1  25
TORSDOF 7
ENDMDL
MODEL 7
REMARK VINA RESULT:      -7.1      3.542      9.323
REMARK  Name = 
REMARK  11 active torsions:
REMARK  status: ('A' for Active; 'I' for Inactive)
REMARK    1  A    between atoms: C_1  and  C_2
REMARK    2  A    between atoms: C_2  and  N_3
REMARK    3  A    between atoms: N_3  and  C_4
REMARK    4  A    between atoms: N_3  and  C_6
REMARK    5  A    between atoms: C_4  and  C_5
REMARK    6  A    between atoms: C_6  and  C_7
REMARK    7  A    between atoms: C_7  and  O_8
REMARK    8  A    between atoms: O_8  and  C_9
REMARK    9  A    between atoms: C_15  and  C_16
REMARK   10  A    between atoms: C_15  and  C_17
REMARK   11  A    between atoms: C_22  and  C_23
REMARK                            x       y       z     vdW  Elec       q    Type
REMARK                         _______ _______ _______ _____ _____    ______ ____
ROOT
ATOM      1  C   UNL     1      -2.105  13.460  22.246  0.00  0.00    +0.000 A 
ATOM      2  C   UNL     1      -2.065  12.438  23.191  0.00  0.00    +0.000 A 
ATOM      3  C   UNL     1      -1.361  11.267  22.926  0.00  0.00    +0.000 A 
ATOM      4  C   UNL     1      -0.700  11.095  21.707  0.00  0.00    +0.000 A 
ATOM      5  C   UNL     1      -0.746  12.103  20.712  0.00  0.00    +0.000 A 
ATOM      6  C   UNL     1      -1.468  13.282  21.011  0.00  0.00    +0.000 A 
ATOM      7  C   UNL     1      -0.049  11.939  19.340  0.00  0.00    +0.000 C 
ATOM      8  C   UNL     1      -1.116  11.990  18.226  0.00  0.00    +0.000 C 
ATOM      9  C   UNL     1       0.981  13.071  19.139  0.00  0.00    +0.000 C 
ATOM     10  C   UNL     1       0.665  10.605  19.269  0.00  0.00    +0.000 A 
ATOM     11  N   UNL     1       1.393  10.135  18.201  0.00  0.00    +0.000 N 
ATOM     12  C   UNL     1       1.879   8.875  18.482  0.00  0.00    +0.000 A 
ATOM     13  C   UNL     1       2.654   8.004  17.703  0.00  0.00    +0.000 A 
ATOM     14  C   UNL     1       3.003   6.755  18.253  0.00  0.00    +0.000 A 
ATOM     15  C   UNL     1       2.584   6.404  19.540  0.00  0.00    +0.000 A 
ATOM     16 BR   UNL     1       3.014   4.728  20.330  0.00  0.00    +0.000 Br
ATOM     17  C   UNL     1       1.814   7.291  20.305  0.00  0.00    +0.000 A 
ATOM     18  C   UNL     1       1.456   8.539  19.767  0.00  0.00    +0.000 A 
ATOM     19  C   UNL     1       0.697   9.638  20.250  0.00  0.00    +0.000 A 
ATOM     20  C   UNL     1       0.031   9.809  21.521  0.00  0.00    +0.000 C 
ATOM     21  O   UNL     1       0.055   8.960  22.404  0.00  0.00    +0.000 OA
ATOM     22  H   UNL     1       1.547  10.628  17.331  0.00  0.00    +0.000 HD
ENDROOT
BRANCH  14  23
ATOM     23  C   UNL     1       3.791   5.866  17.450  0.00  0.00    +0.000 C 
ATOM     24  N   UNL     1       4.404   5.123  16.803  0.00  0.00    +0.000 NA
ENDBRANCH  14  23
BRANCH   1  25
ATOM     25  O   UNL     1      -2.758  14.656  22.416  0.00  0.00    +0.000 OA
BRANCH  25  26
ATOM     26  C   UNL     1      -3.859  14.860  21.518  0.00  0.00    +0.000 C 
BRANCH  26  27
ATOM     27  C   UNL     1      -5.190  14.633  22.248  0.00  0.00    +0.000 C 
BRANCH  27  28
ATOM     28  N   UNL     1      -5.554  13.208  22.436  0.00  0.00    +0.000 NA
BRANCH  28  30
ATOM     29  C   UNL     1      -7.536  13.034  23.999  0.00  0.00    +0.000 C 
ATOM     30  C   UNL     1      -6.021  13.005  23.820  0.00  0.00    +0.000 C 
ENDBRANCH  28  30
BRANCH  28  31
ATOM     31  C   UNL     1      -6.474  12.681  21.416  0.00  0.00    +0.000 C 
ATOM     32  C   UNL     1      -5.827  12.017  20.204  0.00  0.00    +0.000 C 
ENDBRANCH  28  31
ENDBRANCH  27  28
ENDBRANCH  26  27
ENDBRANCH  25  26
ENDBRANCH   1  25
TORSDOF 7
ENDMDL
MODEL 8
REMARK VINA RESULT:      -7.1      3.291      9.251
REMARK  Name = 
REMARK  11 active torsions:
REMARK  status: ('A' for Active; 'I' for Inactive)
REMARK    1  A    between atoms: C_1  and  C_2
REMARK    2  A    between atoms: C_2  and  N_3
REMARK    3  A    between atoms: N_3  and  C_4
REMARK    4  A    between atoms: N_3  and  C_6
REMARK    5  A    between atoms: C_4  and  C_5
REMARK    6  A    between atoms: C_6  and  C_7
REMARK    7  A    between atoms: C_7  and  O_8
REMARK    8  A    between atoms: O_8  and  C_9
REMARK    9  A    between atoms: C_15  and  C_16
REMARK   10  A    between atoms: C_15  and  C_17
REMARK   11  A    between atoms: C_22  and  C_23
REMARK                            x       y       z     vdW  Elec       q    Type
REMARK                         _______ _______ _______ _____ _____    ______ ____
ROOT
ATOM      1  C   UNL     1      -0.221  12.513  20.167  0.00  0.00    +0.000 A 
ATOM      2  C   UNL     1       0.331  12.529  18.888  0.00  0.00    +0.000 A 
ATOM      3  C   UNL     1       0.978  11.402  18.390  0.00  0.00    +0.000 A 
ATOM      4  C   UNL     1       1.098  10.248  19.171  0.00  0.00    +0.000 A 
ATOM      5  C   UNL     1       0.574  10.209  20.487  0.00  0.00    +0.000 A 
ATOM      6  C   UNL     1      -0.079  11.370  20.964  0.00  0.00    +0.000 A 
ATOM      7  C   UNL     1       0.710   8.961  21.392  0.00  0.00    +0.000 C 
ATOM      8  C   UNL     1       1.528   9.335  22.646  0.00  0.00    +0.000 C 
ATOM      9  C   UNL     1      -0.691   8.460  21.803  0.00  0.00    +0.000 C 
ATOM     10  C   UNL     1       1.432   7.853  20.653  0.00  0.00    +0.000 A 
ATOM     11  N   UNL     1       1.716   6.603  21.151  0.00  0.00    +0.000 N 
ATOM     12  C   UNL     1       2.404   5.867  20.208  0.00  0.00    +0.000 A 
ATOM     13  C   UNL     1       2.909   4.560  20.265  0.00  0.00    +0.000 A 
ATOM     14  C   UNL     1       3.588   4.062  19.136  0.00  0.00    +0.000 A 
ATOM     15  C   UNL     1       3.745   4.855  17.995  0.00  0.00    +0.000 A 
ATOM     16 BR   UNL     1       4.661   4.240  16.446  0.00  0.00    +0.000 Br
ATOM     17  C   UNL     1       3.228   6.156  17.956  0.00  0.00    +0.000 A 
ATOM     18  C   UNL     1       2.552   6.668  19.077  0.00  0.00    +0.000 A 
ATOM     19  C   UNL     1       1.932   7.912  19.371  0.00  0.00    +0.000 A 
ATOM     20  C   UNL     1       1.802   9.092  18.548  0.00  0.00    +0.000 C 
ATOM     21  O   UNL     1       2.238   9.157  17.404  0.00  0.00    +0.000 OA
ATOM     22  H   UNL     1       1.471   6.266  22.073  0.00  0.00    +0.000 HD
ENDROOT
BRANCH  14  23
ATOM     23  C   UNL     1       4.107   2.727  19.202  0.00  0.00    +0.000 C 
ATOM     24  N   UNL     1       4.551   1.658  19.279  0.00  0.00    +0.000 NA
ENDBRANCH  14  23
BRANCH   1  25
ATOM     25  O   UNL     1      -0.889  13.565  20.742  0.00  0.00    +0.000 OA
BRANCH  25  26
ATOM     26  C   UNL     1      -1.908  13.179  21.676  0.00  0.00    +0.000 C 
BRANCH  26  27
ATOM     27  C   UNL     1      -2.814  14.373  22.001  0.00  0.00    +0.000 C 
BRANCH  27  28
ATOM     28  N   UNL     1      -4.190  14.008  22.414  0.00  0.00    +0.000 NA
BRANCH  28  30
ATOM     29  C   UNL     1      -5.948  12.761  21.091  0.00  0.00    +0.000 C 
ATOM     30  C   UNL     1      -4.576  12.746  21.757  0.00  0.00    +0.000 C 
ENDBRANCH  28  30
BRANCH  28  31
ATOM     31  C   UNL     1      -4.403  14.009  23.870  0.00  0.00    +0.000 C 
ATOM     32  C   UNL     1      -4.138  12.689  24.590  0.00  0.00    +0.000 C 
ENDBRANCH  28  31
ENDBRANCH  27  28
ENDBRANCH  26  27
ENDBRANCH  25  26
ENDBRANCH   1  25
TORSDOF 7
ENDMDL
MODEL 9
REMARK VINA RESULT:      -7.1      3.367      9.023
REMARK  Name = 
REMARK  11 active torsions:
REMARK  status: ('A' for Active; 'I' for Inactive)
REMARK    1  A    between atoms: C_1  and  C_2
REMARK    2  A    between atoms: C_2  and  N_3
REMARK    3  A    between atoms: N_3  and  C_4
REMARK    4  A    between atoms: N_3  and  C_6
REMARK    5  A    between atoms: C_4  and  C_5
REMARK    6  A    between atoms: C_6  and  C_7
REMARK    7  A    between atoms: C_7  and  O_8
REMARK    8  A    between atoms: O_8  and  C_9
REMARK    9  A    between atoms: C_15  and  C_16
REMARK   10  A    between atoms: C_15  and  C_17
REMARK   11  A    between atoms: C_22  and  C_23
REMARK                            x       y       z     vdW  Elec       q    Type
REMARK                         _______ _______ _______ _____ _____    ______ ____
ROOT
ATOM      1  C   UNL     1       0.030  12.628  20.421  0.00  0.00    +0.000 A 
ATOM      2  C   UNL     1       0.583  12.674  19.143  0.00  0.00    +0.000 A 
ATOM      3  C   UNL     1       1.170  11.538  18.593  0.00  0.00    +0.000 A 
ATOM      4  C   UNL     1       1.226  10.345  19.318  0.00  0.00    +0.000 A 
ATOM      5  C   UNL     1       0.699  10.272  20.632  0.00  0.00    +0.000 A 
ATOM      6  C   UNL     1       0.108  11.443  21.163  0.00  0.00    +0.000 A 
ATOM      7  C   UNL     1       0.765   8.978  21.476  0.00  0.00    +0.000 C 
ATOM      8  C   UNL     1       1.600   9.248  22.746  0.00  0.00    +0.000 C 
ATOM      9  C   UNL     1      -0.662   8.534  21.865  0.00  0.00    +0.000 C 
ATOM     10  C   UNL     1       1.427   7.868  20.686  0.00  0.00    +0.000 A 
ATOM     11  N   UNL     1       1.643   6.583  21.125  0.00  0.00    +0.000 N 
ATOM     12  C   UNL     1       2.291   5.855  20.148  0.00  0.00    +0.000 A 
ATOM     13  C   UNL     1       2.725   4.521  20.143  0.00  0.00    +0.000 A 
ATOM     14  C   UNL     1       3.377   4.041  18.991  0.00  0.00    +0.000 A 
ATOM     15  C   UNL     1       3.580   4.877  17.889  0.00  0.00    +0.000 A 
ATOM     16 BR   UNL     1       4.463   4.287  16.311  0.00  0.00    +0.000 Br
ATOM     17  C   UNL     1       3.133   6.205  17.911  0.00  0.00    +0.000 A 
ATOM     18  C   UNL     1       2.484   6.699  19.055  0.00  0.00    +0.000 A 
ATOM     19  C   UNL     1       1.932   7.960  19.408  0.00  0.00    +0.000 A 
ATOM     20  C   UNL     1       1.868   9.183  18.641  0.00  0.00    +0.000 C 
ATOM     21  O   UNL     1       2.309   9.277  17.501  0.00  0.00    +0.000 OA
ATOM     22  H   UNL     1       1.378   6.217  22.030  0.00  0.00    +0.000 HD
ENDROOT
BRANCH  14  23
ATOM     23  C   UNL     1       3.824   2.678  18.994  0.00  0.00    +0.000 C 
ATOM     24  N   UNL     1       4.210   1.585  19.020  0.00  0.00    +0.000 NA
ENDBRANCH  14  23
BRANCH   1  25
ATOM     25  O   UNL     1      -0.581  13.687  21.045  0.00  0.00    +0.000 OA
BRANCH  25  26
ATOM     26  C   UNL     1      -1.502  14.411  20.215  0.00  0.00    +0.000 C 
BRANCH  26  27
ATOM     27  C   UNL     1      -2.933  14.258  20.747  0.00  0.00    +0.000 C 
BRANCH  27  28
ATOM     28  N   UNL     1      -3.444  12.867  20.749  0.00  0.00    +0.000 NA
BRANCH  28  30
ATOM     29  C   UNL     1      -5.850  12.520  21.448  0.00  0.00    +0.000 C 
ATOM     30  C   UNL     1      -4.393  12.699  21.865  0.00  0.00    +0.000 C 
ENDBRANCH  28  30
BRANCH  28  31
ATOM     31  C   UNL     1      -3.968  12.415  19.450  0.00  0.00    +0.000 C 
ATOM     32  C   UNL     1      -3.036  11.544  18.613  0.00  0.00    +0.000 C 
ENDBRANCH  28  31
ENDBRANCH  27  28
ENDBRANCH  26  27
ENDBRANCH  25  26
ENDBRANCH   1  25
TORSDOF 7
ENDMDL
