MODEL 1
REMARK VINA RESULT:      -7.1      0.000      0.000
REMARK  Name = 
REMARK  4 active torsions:
REMARK  status: ('A' for Active; 'I' for Inactive)
REMARK    1  A    between atoms: N_2  and  C_4
REMARK    2  A    between atoms: C_7  and  N_8
REMARK    3  A    between atoms: N_8  and  S_9
REMARK    4  A    between atoms: S_9  and  N_12
REMARK                            x       y       z     vdW  Elec       q    Type
REMARK                         _______ _______ _______ _____ _____    ______ ____
ROOT
ATOM      1  N   UNL     1       4.307   5.708  19.123  0.00  0.00    +0.000 N 
ATOM      2  H   UNL     1       4.556   6.584  19.588  0.00  0.00    +0.000 HD
ENDROOT
BRANCH   1   6
ATOM      3  C   UNL     1       6.221   5.103  15.412  0.00  0.00    +0.000 A 
ATOM      4  C   UNL     1       5.397   6.224  15.585  0.00  0.00    +0.000 A 
ATOM      5  C   UNL     1       4.750   6.429  16.812  0.00  0.00    +0.000 A 
ATOM      6  C   UNL     1       4.942   5.524  17.858  0.00  0.00    +0.000 A 
ATOM      7  C   UNL     1       5.753   4.402  17.673  0.00  0.00    +0.000 A 
ATOM      8  C   UNL     1       6.398   4.185  16.454  0.00  0.00    +0.000 A 
BRANCH   3  10
ATOM      9  O   UNL     1       6.476   4.025  13.373  0.00  0.00    +0.000 OA
ATOM     10  N   UNL     1       6.922   4.892  14.138  0.00  0.00    +0.000 N 
ATOM     11  O   UNL     1       7.912   5.600  13.900  0.00  0.00    +0.000 OA
ENDBRANCH   3  10
ENDBRANCH   1   6
BRANCH   1  12
ATOM     12  S   UNL     1       2.623   5.612  19.159  0.00  0.00    +0.000 S 
ATOM     13  O   UNL     1       2.172   6.849  19.753  0.00  0.00    +0.000 OA
ATOM     14  O   UNL     1       2.111   5.157  17.893  0.00  0.00    +0.000 OA
BRANCH  12  15
ATOM     15  N   UNL     1       2.435   4.390  20.312  0.00  0.00    +0.000 NA
ATOM     16  C   UNL     1       3.388   3.242  20.244  0.00  0.00    +0.000 C 
ATOM     17  C   UNL     1       3.011   2.258  19.133  0.00  0.00    +0.000 C 
ATOM     18  O   UNL     1       1.680   1.759  19.332  0.00  0.00    +0.000 OA
ATOM     19  C   UNL     1       0.724   2.831  19.352  0.00  0.00    +0.000 C 
ATOM     20  C   UNL     1       1.044   3.851  20.454  0.00  0.00    +0.000 C 
ENDBRANCH  12  15
ENDBRANCH   1  12
TORSDOF 4
ENDMDL
MODEL 2
REMARK VINA RESULT:      -7.0      0.086      1.322
REMARK  Name = 
REMARK  4 active torsions:
REMARK  status: ('A' for Active; 'I' for Inactive)
REMARK    1  A    between atoms: N_2  and  C_4
REMARK    2  A    between atoms: C_7  and  N_8
REMARK    3  A    between atoms: N_8  and  S_9
REMARK    4  A    between atoms: S_9  and  N_12
REMARK                            x       y       z     vdW  Elec       q    Type
REMARK                         _______ _______ _______ _____ _____    ______ ____
ROOT
ATOM      1  N   UNL     1       4.303   5.674  19.171  0.00  0.00    +0.000 N 
ATOM      2  H   UNL     1       4.555   6.553  19.627  0.00  0.00    +0.000 HD
ENDROOT
BRANCH   1   6
ATOM      3  C   UNL     1       6.249   5.093  15.472  0.00  0.00    +0.000 A 
ATOM      4  C   UNL     1       6.358   4.110  16.467  0.00  0.00    +0.000 A 
ATOM      5  C   UNL     1       5.721   4.299  17.701  0.00  0.00    +0.000 A 
ATOM      6  C   UNL     1       4.972   5.455  17.928  0.00  0.00    +0.000 A 
ATOM      7  C   UNL     1       4.881   6.435  16.937  0.00  0.00    +0.000 A 
ATOM      8  C   UNL     1       5.514   6.261  15.706  0.00  0.00    +0.000 A 
BRANCH   3  10
ATOM      9  O   UNL     1       7.870   5.603  13.892  0.00  0.00    +0.000 OA
ATOM     10  N   UNL     1       6.892   4.893  14.166  0.00  0.00    +0.000 N 
ATOM     11  O   UNL     1       6.424   4.021  13.419  0.00  0.00    +0.000 OA
ENDBRANCH   3  10
ENDBRANCH   1   6
BRANCH   1  12
ATOM     12  S   UNL     1       2.618   5.609  19.157  0.00  0.00    +0.000 S 
ATOM     13  O   UNL     1       2.173   6.854  19.736  0.00  0.00    +0.000 OA
ATOM     14  O   UNL     1       2.134   5.160  17.878  0.00  0.00    +0.000 OA
BRANCH  12  15
ATOM     15  N   UNL     1       2.374   4.392  20.307  0.00  0.00    +0.000 NA
ATOM     16  C   UNL     1       3.336   3.250  20.298  0.00  0.00    +0.000 C 
ATOM     17  C   UNL     1       3.025   2.257  19.175  0.00  0.00    +0.000 C 
ATOM     18  O   UNL     1       1.689   1.751  19.305  0.00  0.00    +0.000 OA
ATOM     19  C   UNL     1       0.726   2.818  19.265  0.00  0.00    +0.000 C 
ATOM     20  C   UNL     1       0.981   3.847  20.376  0.00  0.00    +0.000 C 
ENDBRANCH  12  15
ENDBRANCH   1  12
TORSDOF 4
ENDMDL
MODEL 3
REMARK VINA RESULT:      -7.0      1.762      2.467
REMARK  Name = 
REMARK  4 active torsions:
REMARK  status: ('A' for Active; 'I' for Inactive)
REMARK    1  A    between atoms: N_2  and  C_4
REMARK    2  A    between atoms: C_7  and  N_8
REMARK    3  A    between atoms: N_8  and  S_9
REMARK    4  A    between atoms: S_9  and  N_12
REMARK                            x       y       z     vdW  Elec       q    Type
REMARK                         _______ _______ _______ _____ _____    ______ ____
ROOT
ATOM      1  N   UNL     1       4.953   4.514  18.979  0.00  0.00    +0.000 N 
ATOM      2  H   UNL     1       4.239   5.221  19.163  0.00  0.00    +0.000 HD
ENDROOT
BRANCH   1   6
ATOM      3  C   UNL     1       6.704   4.878  15.158  0.00  0.00    +0.000 A 
ATOM      4  C   UNL     1       7.520   4.594  16.263  0.00  0.00    +0.000 A 
ATOM      5  C   UNL     1       6.948   4.480  17.537  0.00  0.00    +0.000 A 
ATOM      6  C   UNL     1       5.569   4.634  17.697  0.00  0.00    +0.000 A 
ATOM      7  C   UNL     1       4.766   4.931  16.594  0.00  0.00    +0.000 A 
ATOM      8  C   UNL     1       5.325   5.052  15.320  0.00  0.00    +0.000 A 
BRANCH   3  10
ATOM      9  O   UNL     1       8.257   5.737  13.663  0.00  0.00    +0.000 OA
ATOM     10  N   UNL     1       7.291   4.976  13.814  0.00  0.00    +0.000 N 
ATOM     11  O   UNL     1       6.791   4.286  12.914  0.00  0.00    +0.000 OA
ENDBRANCH   3  10
ENDBRANCH   1   6
BRANCH   1  12
ATOM     12  S   UNL     1       4.260   3.025  19.362  0.00  0.00    +0.000 S 
ATOM     13  O   UNL     1       4.028   2.364  18.099  0.00  0.00    +0.000 OA
ATOM     14  O   UNL     1       4.988   2.380  20.424  0.00  0.00    +0.000 OA
BRANCH  12  15
ATOM     15  N   UNL     1       2.764   3.552  19.948  0.00  0.00    +0.000 NA
ATOM     16  C   UNL     1       1.713   2.512  20.155  0.00  0.00    +0.000 C 
ATOM     17  C   UNL     1       1.055   2.103  18.835  0.00  0.00    +0.000 C 
ATOM     18  O   UNL     1       0.474   3.242  18.185  0.00  0.00    +0.000 OA
ATOM     19  C   UNL     1       1.466   4.248  17.921  0.00  0.00    +0.000 C 
ATOM     20  C   UNL     1       2.159   4.708  19.211  0.00  0.00    +0.000 C 
ENDBRANCH  12  15
ENDBRANCH   1  12
TORSDOF 4
ENDMDL
MODEL 4
REMARK VINA RESULT:      -6.9      1.666      2.083
REMARK  Name = 
REMARK  4 active torsions:
REMARK  status: ('A' for Active; 'I' for Inactive)
REMARK    1  A    between atoms: N_2  and  C_4
REMARK    2  A    between atoms: C_7  and  N_8
REMARK    3  A    between atoms: N_8  and  S_9
REMARK    4  A    between atoms: S_9  and  N_12
REMARK                            x       y       z     vdW  Elec       q    Type
REMARK                         _______ _______ _______ _____ _____    ______ ____
ROOT
ATOM      1  N   UNL     1       4.874   3.605  17.661  0.00  0.00    +0.000 N 
ATOM      2  H   UNL     1       5.430   3.519  18.514  0.00  0.00    +0.000 HD
ENDROOT
BRANCH   1   6
ATOM      3  C   UNL     1       7.041   4.809  14.247  0.00  0.00    +0.000 A 
ATOM      4  C   UNL     1       7.572   5.058  15.520  0.00  0.00    +0.000 A 
ATOM      5  C   UNL     1       6.855   4.669  16.660  0.00  0.00    +0.000 A 
ATOM      6  C   UNL     1       5.625   4.023  16.521  0.00  0.00    +0.000 A 
ATOM      7  C   UNL     1       5.097   3.792  15.249  0.00  0.00    +0.000 A 
ATOM      8  C   UNL     1       5.799   4.179  14.107  0.00  0.00    +0.000 A 
BRANCH   3  10
ATOM      9  O   UNL     1       8.732   5.990  13.185  0.00  0.00    +0.000 OA
ATOM     10  N   UNL     1       7.796   5.191  13.045  0.00  0.00    +0.000 N 
ATOM     11  O   UNL     1       7.457   4.685  11.966  0.00  0.00    +0.000 OA
ENDBRANCH   3  10
ENDBRANCH   1   6
BRANCH   1  12
ATOM     12  S   UNL     1       3.517   4.522  18.066  0.00  0.00    +0.000 S 
ATOM     13  O   UNL     1       3.907   5.900  17.883  0.00  0.00    +0.000 OA
ATOM     14  O   UNL     1       2.335   3.987  17.443  0.00  0.00    +0.000 OA
BRANCH  12  15
ATOM     15  N   UNL     1       3.460   4.221  19.729  0.00  0.00    +0.000 NA
ATOM     16  C   UNL     1       3.360   2.793  20.156  0.00  0.00    +0.000 C 
ATOM     17  C   UNL     1       1.934   2.256  20.005  0.00  0.00    +0.000 C 
ATOM     18  O   UNL     1       1.014   3.046  20.771  0.00  0.00    +0.000 OA
ATOM     19  C   UNL     1       1.041   4.421  20.354  0.00  0.00    +0.000 C 
ATOM     20  C   UNL     1       2.448   5.021  20.490  0.00  0.00    +0.000 C 
ENDBRANCH  12  15
ENDBRANCH   1  12
TORSDOF 4
ENDMDL
MODEL 5
REMARK VINA RESULT:      -6.9      1.575      1.754
REMARK  Name = 
REMARK  4 active torsions:
REMARK  status: ('A' for Active; 'I' for Inactive)
REMARK    1  A    between atoms: N_2  and  C_4
REMARK    2  A    between atoms: C_7  and  N_8
REMARK    3  A    between atoms: N_8  and  S_9
REMARK    4  A    between atoms: S_9  and  N_12
REMARK                            x       y       z     vdW  Elec       q    Type
REMARK                         _______ _______ _______ _____ _____    ______ ____
ROOT
ATOM      1  N   UNL     1       4.921   3.709  17.895  0.00  0.00    +0.000 N 
ATOM      2  H   UNL     1       5.549   3.560  18.687  0.00  0.00    +0.000 HD
ENDROOT
BRANCH   1   6
ATOM      3  C   UNL     1       6.961   4.745  14.349  0.00  0.00    +0.000 A 
ATOM      4  C   UNL     1       5.686   4.169  14.264  0.00  0.00    +0.000 A 
ATOM      5  C   UNL     1       5.004   3.814  15.436  0.00  0.00    +0.000 A 
ATOM      6  C   UNL     1       5.592   4.049  16.681  0.00  0.00    +0.000 A 
ATOM      7  C   UNL     1       6.869   4.610  16.756  0.00  0.00    +0.000 A 
ATOM      8  C   UNL     1       7.559   4.963  15.596  0.00  0.00    +0.000 A 
BRANCH   3  10
ATOM      9  O   UNL     1       7.308   4.634  12.058  0.00  0.00    +0.000 OA
ATOM     10  N   UNL     1       7.673   5.143  13.127  0.00  0.00    +0.000 N 
ATOM     11  O   UNL     1       8.591   5.969  13.236  0.00  0.00    +0.000 OA
ENDBRANCH   3  10
ENDBRANCH   1   6
BRANCH   1  12
ATOM     12  S   UNL     1       3.720   4.764  18.430  0.00  0.00    +0.000 S 
ATOM     13  O   UNL     1       4.357   6.055  18.550  0.00  0.00    +0.000 OA
ATOM     14  O   UNL     1       2.511   4.591  17.667  0.00  0.00    +0.000 OA
BRANCH  12  15
ATOM     15  N   UNL     1       3.488   4.159  19.992  0.00  0.00    +0.000 NA
ATOM     16  C   UNL     1       3.382   2.676  20.134  0.00  0.00    +0.000 C 
ATOM     17  C   UNL     1       1.996   2.167  19.727  0.00  0.00    +0.000 C 
ATOM     18  O   UNL     1       0.976   2.794  20.517  0.00  0.00    +0.000 OA
ATOM     19  C   UNL     1       1.011   4.223  20.366  0.00  0.00    +0.000 C 
ATOM     20  C   UNL     1       2.378   4.797  20.768  0.00  0.00    +0.000 C 
ENDBRANCH  12  15
ENDBRANCH   1  12
TORSDOF 4
ENDMDL
MODEL 6
REMARK VINA RESULT:      -6.9      1.482      2.370
REMARK  Name = 
REMARK  4 active torsions:
REMARK  status: ('A' for Active; 'I' for Inactive)
REMARK    1  A    between atoms: N_2  and  C_4
REMARK    2  A    between atoms: C_7  and  N_8
REMARK    3  A    between atoms: N_8  and  S_9
REMARK    4  A    between atoms: S_9  and  N_12
REMARK                            x       y       z     vdW  Elec       q    Type
REMARK                         _______ _______ _______ _____ _____    ______ ____
ROOT
ATOM      1  N   UNL     1       4.838   5.560  18.973  0.00  0.00    +0.000 N 
ATOM      2  H   UNL     1       4.213   6.366  19.027  0.00  0.00    +0.000 HD
ENDROOT
BRANCH   1   6
ATOM      3  C   UNL     1       6.589   5.093  15.162  0.00  0.00    +0.000 A 
ATOM      4  C   UNL     1       7.196   4.493  16.275  0.00  0.00    +0.000 A 
ATOM      5  C   UNL     1       6.626   4.650  17.546  0.00  0.00    +0.000 A 
ATOM      6  C   UNL     1       5.451   5.389  17.694  0.00  0.00    +0.000 A 
ATOM      7  C   UNL     1       4.861   5.995  16.583  0.00  0.00    +0.000 A 
ATOM      8  C   UNL     1       5.422   5.850  15.313  0.00  0.00    +0.000 A 
BRANCH   3  10
ATOM      9  O   UNL     1       8.135   5.622  13.515  0.00  0.00    +0.000 OA
ATOM     10  N   UNL     1       7.166   4.914  13.823  0.00  0.00    +0.000 N 
ATOM     11  O   UNL     1       6.655   4.060  13.084  0.00  0.00    +0.000 OA
ENDBRANCH   3  10
ENDBRANCH   1   6
BRANCH   1  12
ATOM     12  S   UNL     1       3.980   4.248  19.595  0.00  0.00    +0.000 S 
ATOM     13  O   UNL     1       4.967   3.229  19.870  0.00  0.00    +0.000 OA
ATOM     14  O   UNL     1       3.046   4.680  20.602  0.00  0.00    +0.000 OA
BRANCH  12  15
ATOM     15  N   UNL     1       3.133   3.781  18.207  0.00  0.00    +0.000 NA
ATOM     16  C   UNL     1       1.734   4.283  18.068  0.00  0.00    +0.000 C 
ATOM     17  C   UNL     1       0.758   3.485  18.937  0.00  0.00    +0.000 C 
ATOM     18  O   UNL     1       0.800   2.092  18.594  0.00  0.00    +0.000 OA
ATOM     19  C   UNL     1       2.123   1.557  18.765  0.00  0.00    +0.000 C 
ATOM     20  C   UNL     1       3.150   2.313  17.910  0.00  0.00    +0.000 C 
ENDBRANCH  12  15
ENDBRANCH   1  12
TORSDOF 4
ENDMDL
MODEL 7
REMARK VINA RESULT:      -6.8      2.525      2.974
REMARK  Name = 
REMARK  4 active torsions:
REMARK  status: ('A' for Active; 'I' for Inactive)
REMARK    1  A    between atoms: N_2  and  C_4
REMARK    2  A    between atoms: C_7  and  N_8
REMARK    3  A    between atoms: N_8  and  S_9
REMARK    4  A    between atoms: S_9  and  N_12
REMARK                            x       y       z     vdW  Elec       q    Type
REMARK                         _______ _______ _______ _____ _____    ______ ____
ROOT
ATOM      1  N   UNL     1       3.578   3.707  17.413  0.00  0.00    +0.000 N 
ATOM      2  H   UNL     1       3.854   2.771  17.715  0.00  0.00    +0.000 HD
ENDROOT
BRANCH   1   6
ATOM      3  C   UNL     1       6.693   6.534  17.750  0.00  0.00    +0.000 A 
ATOM      4  C   UNL     1       5.733   6.686  16.739  0.00  0.00    +0.000 A 
ATOM      5  C   UNL     1       4.700   5.748  16.614  0.00  0.00    +0.000 A 
ATOM      6  C   UNL     1       4.623   4.676  17.505  0.00  0.00    +0.000 A 
ATOM      7  C   UNL     1       5.592   4.523  18.500  0.00  0.00    +0.000 A 
ATOM      8  C   UNL     1       6.628   5.449  18.631  0.00  0.00    +0.000 A 
BRANCH   3  10
ATOM      9  O   UNL     1       7.796   8.469  17.100  0.00  0.00    +0.000 OA
ATOM     10  N   UNL     1       7.766   7.526  17.903  0.00  0.00    +0.000 N 
ATOM     11  O   UNL     1       8.571   7.366  18.831  0.00  0.00    +0.000 OA
ENDBRANCH   3  10
ENDBRANCH   1   6
BRANCH   1  12
ATOM     12  S   UNL     1       2.134   4.058  18.209  0.00  0.00    +0.000 S 
ATOM     13  O   UNL     1       2.457   5.079  19.178  0.00  0.00    +0.000 OA
ATOM     14  O   UNL     1       1.060   4.232  17.266  0.00  0.00    +0.000 OA
BRANCH  12  15
ATOM     15  N   UNL     1       1.913   2.606  19.047  0.00  0.00    +0.000 NA
ATOM     16  C   UNL     1       0.962   2.625  20.198  0.00  0.00    +0.000 C 
ATOM     17  C   UNL     1       1.594   3.253  21.443  0.00  0.00    +0.000 C 
ATOM     18  O   UNL     1       2.780   2.540  21.821  0.00  0.00    +0.000 OA
ATOM     19  C   UNL     1       3.745   2.543  20.756  0.00  0.00    +0.000 C 
ATOM     20  C   UNL     1       3.172   1.917  19.476  0.00  0.00    +0.000 C 
ENDBRANCH  12  15
ENDBRANCH   1  12
TORSDOF 4
ENDMDL
MODEL 8
REMARK VINA RESULT:      -6.8      1.700      2.292
REMARK  Name = 
REMARK  4 active torsions:
REMARK  status: ('A' for Active; 'I' for Inactive)
REMARK    1  A    between atoms: N_2  and  C_4
REMARK    2  A    between atoms: C_7  and  N_8
REMARK    3  A    between atoms: N_8  and  S_9
REMARK    4  A    between atoms: S_9  and  N_12
REMARK                            x       y       z     vdW  Elec       q    Type
REMARK                         _______ _______ _______ _____ _____    ______ ____
ROOT
ATOM      1  N   UNL     1       5.001   5.041  18.757  0.00  0.00    +0.000 N 
ATOM      2  H   UNL     1       4.386   5.842  18.910  0.00  0.00    +0.000 HD
ENDROOT
BRANCH   1   6
ATOM      3  C   UNL     1       6.762   5.022  14.923  0.00  0.00    +0.000 A 
ATOM      4  C   UNL     1       7.446   4.434  15.996  0.00  0.00    +0.000 A 
ATOM      5  C   UNL     1       6.873   4.442  17.274  0.00  0.00    +0.000 A 
ATOM      6  C   UNL     1       5.619   5.023  17.470  0.00  0.00    +0.000 A 
ATOM      7  C   UNL     1       4.950   5.620  16.399  0.00  0.00    +0.000 A 
ATOM      8  C   UNL     1       5.513   5.622  15.122  0.00  0.00    +0.000 A 
BRANCH   3  10
ATOM      9  O   UNL     1       8.282   5.770  13.338  0.00  0.00    +0.000 OA
ATOM     10  N   UNL     1       7.344   4.996  13.574  0.00  0.00    +0.000 N 
ATOM     11  O   UNL     1       6.868   4.197  12.755  0.00  0.00    +0.000 OA
ENDBRANCH   3  10
ENDBRANCH   1   6
BRANCH   1  12
ATOM     12  S   UNL     1       4.123   3.673  19.206  0.00  0.00    +0.000 S 
ATOM     13  O   UNL     1       3.737   3.031  17.971  0.00  0.00    +0.000 OA
ATOM     14  O   UNL     1       4.804   2.948  20.248  0.00  0.00    +0.000 OA
BRANCH  12  15
ATOM     15  N   UNL     1       2.749   4.419  19.849  0.00  0.00    +0.000 NA
ATOM     16  C   UNL     1       2.513   4.257  21.315  0.00  0.00    +0.000 C 
ATOM     17  C   UNL     1       1.926   2.882  21.645  0.00  0.00    +0.000 C 
ATOM     18  O   UNL     1       0.693   2.678  20.941  0.00  0.00    +0.000 OA
ATOM     19  C   UNL     1       0.887   2.774  19.520  0.00  0.00    +0.000 C 
ATOM     20  C   UNL     1       1.469   4.138  19.123  0.00  0.00    +0.000 C 
ENDBRANCH  12  15
ENDBRANCH   1  12
TORSDOF 4
ENDMDL
MODEL 9
REMARK VINA RESULT:      -6.8      1.818      2.797
REMARK  Name = 
REMARK  4 active torsions:
REMARK  status: ('A' for Active; 'I' for Inactive)
REMARK    1  A    between atoms: N_2  and  C_4
REMARK    2  A    between atoms: C_7  and  N_8
REMARK    3  A    between atoms: N_8  and  S_9
REMARK    4  A    between atoms: S_9  and  N_12
REMARK                            x       y       z     vdW  Elec       q    Type
REMARK                         _______ _______ _______ _____ _____    ______ ____
ROOT
ATOM      1  N   UNL     1       4.255   3.892  19.382  0.00  0.00    +0.000 N 
ATOM      2  H   UNL     1       3.314   4.290  19.391  0.00  0.00    +0.000 HD
ENDROOT
BRANCH   1   6
ATOM      3  C   UNL     1       6.315   4.596  15.768  0.00  0.00    +0.000 A 
ATOM      4  C   UNL     1       7.021   4.633  16.979  0.00  0.00    +0.000 A 
ATOM      5  C   UNL     1       6.343   4.408  18.185  0.00  0.00    +0.000 A 
ATOM      6  C   UNL     1       4.974   4.135  18.173  0.00  0.00    +0.000 A 
ATOM      7  C   UNL     1       4.276   4.114  16.963  0.00  0.00    +0.000 A 
ATOM      8  C   UNL     1       4.939   4.341  15.756  0.00  0.00    +0.000 A 
BRANCH   3  10
ATOM      9  O   UNL     1       7.957   5.618  14.486  0.00  0.00    +0.000 OA
ATOM     10  N   UNL     1       7.022   4.806  14.497  0.00  0.00    +0.000 N 
ATOM     11  O   UNL     1       6.646   4.152  13.513  0.00  0.00    +0.000 OA
ENDBRANCH   3  10
ENDBRANCH   1   6
BRANCH   1  12
ATOM     12  S   UNL     1       4.099   2.286  19.873  0.00  0.00    +0.000 S 
ATOM     13  O   UNL     1       3.995   1.513  18.658  0.00  0.00    +0.000 OA
ATOM     14  O   UNL     1       5.069   1.965  20.887  0.00  0.00    +0.000 OA
BRANCH  12  15
ATOM     15  N   UNL     1       2.560   2.354  20.572  0.00  0.00    +0.000 NA
ATOM     16  C   UNL     1       1.395   2.423  19.640  0.00  0.00    +0.000 C 
ATOM     17  C   UNL     1       1.205   3.833  19.075  0.00  0.00    +0.000 C 
ATOM     18  O   UNL     1       1.021   4.780  20.137  0.00  0.00    +0.000 OA
ATOM     19  C   UNL     1       2.147   4.782  21.030  0.00  0.00    +0.000 C 
ATOM     20  C   UNL     1       2.385   3.392  21.637  0.00  0.00    +0.000 C 
ENDBRANCH  12  15
ENDBRANCH   1  12
TORSDOF 4
ENDMDL
