MODEL 1
REMARK VINA RESULT:      -6.6      0.000      0.000
REMARK  Name = 
REMARK  9 active torsions:
REMARK  status: ('A' for Active; 'I' for Inactive)
REMARK    1  A    between atoms: C_1  and  C_2
REMARK    2  A    between atoms: N_5  and  C_6
REMARK    3  A    between atoms: C_6  and  C_7
REMARK    4  A    between atoms: C_7  and  C_8
REMARK    5  A    between atoms: C_8  and  C_9
REMARK    6  A    between atoms: C_9  and  C_10
REMARK    7  A    between atoms: C_10  and  C_11
REMARK    8  A    between atoms: C_11  and  O_12
REMARK    9  A    between atoms: O_12  and  C_13
REMARK                            x       y       z     vdW  Elec       q    Type
REMARK                         _______ _______ _______ _____ _____    ______ ____
ROOT
ATOM      1  C   UNL     1       1.403   3.952  18.647  0.00  0.00    +0.000 C 
ENDROOT
BRANCH   1   2
ATOM      2  C   UNL     1       2.476   2.877  18.459  0.00  0.00    +0.000 C 
BRANCH   2   3
ATOM      3  C   UNL     1       3.278   3.177  17.202  0.00  0.00    +0.000 C 
BRANCH   3   4
ATOM      4  C   UNL     1       4.595   3.890  17.519  0.00  0.00    +0.000 C 
BRANCH   4   9
ATOM      5  C   UNL     1       8.050   7.116  18.376  0.00  0.00    +0.000 C 
ATOM      6  C   UNL     1       7.237   6.474  17.259  0.00  0.00    +0.000 C 
ATOM      7  C   UNL     1       5.739   6.775  17.402  0.00  0.00    +0.000 C 
ATOM      8  C   UNL     1       4.902   6.009  16.368  0.00  0.00    +0.000 C 
ATOM      9  N   UNL     1       5.166   4.557  16.336  0.00  0.00    +0.000 NA
ATOM     10  C   UNL     1       6.610   4.324  16.152  0.00  0.00    +0.000 C 
ATOM     11  C   UNL     1       7.480   4.964  17.226  0.00  0.00    +0.000 C 
ENDBRANCH   4   9
ENDBRANCH   3   4
ENDBRANCH   2   3
ENDBRANCH   1   2
BRANCH   1  12
ATOM     12  C   UNL     1       1.026   4.168  20.108  0.00  0.00    +0.000 C 
BRANCH  12  13
ATOM     13  C   UNL     1       1.874   5.252  20.755  0.00  0.00    +0.000 C 
BRANCH  13  14
ATOM     14  O   UNL     1       2.504   6.011  19.730  0.00  0.00    +0.000 OA
BRANCH  14  15
ATOM     15  C   UNL     1       2.046   7.292  19.580  0.00  0.00    +0.000 A 
ATOM     16  C   UNL     1       1.420   8.062  20.564  0.00  0.00    +0.000 A 
ATOM     17  C   UNL     1       1.016   9.370  20.280  0.00  0.00    +0.000 A 
ATOM     18  C   UNL     1       1.239   9.902  19.012  0.00  0.00    +0.000 A 
ATOM     19 CL   UNL     1       0.756  11.517  18.669  0.00  0.00    +0.000 Cl
ATOM     20  C   UNL     1       1.853   9.137  18.024  0.00  0.00    +0.000 A 
ATOM     21  C   UNL     1       2.254   7.832  18.309  0.00  0.00    +0.000 A 
ENDBRANCH  14  15
ENDBRANCH  13  14
ENDBRANCH  12  13
ENDBRANCH   1  12
TORSDOF 8
ENDMDL
MODEL 2
REMARK VINA RESULT:      -6.6      3.967      7.361
REMARK  Name = 
REMARK  9 active torsions:
REMARK  status: ('A' for Active; 'I' for Inactive)
REMARK    1  A    between atoms: C_1  and  C_2
REMARK    2  A    between atoms: N_5  and  C_6
REMARK    3  A    between atoms: C_6  and  C_7
REMARK    4  A    between atoms: C_7  and  C_8
REMARK    5  A    between atoms: C_8  and  C_9
REMARK    6  A    between atoms: C_9  and  C_10
REMARK    7  A    between atoms: C_10  and  C_11
REMARK    8  A    between atoms: C_11  and  O_12
REMARK    9  A    between atoms: O_12  and  C_13
REMARK                            x       y       z     vdW  Elec       q    Type
REMARK                         _______ _______ _______ _____ _____    ______ ____
ROOT
ATOM      1  C   UNL     1       5.564   7.163  17.055  0.00  0.00    +0.000 C 
ENDROOT
BRANCH   1   2
ATOM      2  C   UNL     1       4.424   6.595  17.904  0.00  0.00    +0.000 C 
BRANCH   2   3
ATOM      3  C   UNL     1       3.963   5.271  17.312  0.00  0.00    +0.000 C 
BRANCH   3   4
ATOM      4  C   UNL     1       2.566   4.880  17.801  0.00  0.00    +0.000 C 
BRANCH   4   9
ATOM      5  C   UNL     1       1.781   2.681  21.999  0.00  0.00    +0.000 C 
ATOM      6  C   UNL     1       1.914   2.430  20.502  0.00  0.00    +0.000 C 
ATOM      7  C   UNL     1       3.311   2.803  19.986  0.00  0.00    +0.000 C 
ATOM      8  C   UNL     1       3.402   2.694  18.458  0.00  0.00    +0.000 C 
ATOM      9  N   UNL     1       2.342   3.426  17.737  0.00  0.00    +0.000 NA
ATOM     10  C   UNL     1       1.022   2.998  18.239  0.00  0.00    +0.000 C 
ATOM     11  C   UNL     1       0.837   3.200  19.737  0.00  0.00    +0.000 C 
ENDBRANCH   4   9
ENDBRANCH   3   4
ENDBRANCH   2   3
ENDBRANCH   1   2
BRANCH   1  12
ATOM     12  C   UNL     1       6.931   6.618  17.452  0.00  0.00    +0.000 C 
BRANCH  12  13
ATOM     13  C   UNL     1       7.305   5.387  16.639  0.00  0.00    +0.000 C 
BRANCH  13  14
ATOM     14  O   UNL     1       7.660   5.800  15.325  0.00  0.00    +0.000 OA
BRANCH  14  15
ATOM     15  C   UNL     1       7.142   5.043  14.310  0.00  0.00    +0.000 A 
ATOM     16  C   UNL     1       7.627   4.981  13.001  0.00  0.00    +0.000 A 
ATOM     17  C   UNL     1       7.010   4.147  12.062  0.00  0.00    +0.000 A 
ATOM     18  C   UNL     1       5.910   3.380  12.438  0.00  0.00    +0.000 A 
ATOM     19 CL   UNL     1       5.162   2.343  11.288  0.00  0.00    +0.000 Cl
ATOM     20  C   UNL     1       5.416   3.445  13.738  0.00  0.00    +0.000 A 
ATOM     21  C   UNL     1       6.032   4.278  14.671  0.00  0.00    +0.000 A 
ENDBRANCH  14  15
ENDBRANCH  13  14
ENDBRANCH  12  13
ENDBRANCH   1  12
TORSDOF 8
ENDMDL
MODEL 3
REMARK VINA RESULT:      -6.3      4.053      7.056
REMARK  Name = 
REMARK  9 active torsions:
REMARK  status: ('A' for Active; 'I' for Inactive)
REMARK    1  A    between atoms: C_1  and  C_2
REMARK    2  A    between atoms: N_5  and  C_6
REMARK    3  A    between atoms: C_6  and  C_7
REMARK    4  A    between atoms: C_7  and  C_8
REMARK    5  A    between atoms: C_8  and  C_9
REMARK    6  A    between atoms: C_9  and  C_10
REMARK    7  A    between atoms: C_10  and  C_11
REMARK    8  A    between atoms: C_11  and  O_12
REMARK    9  A    between atoms: O_12  and  C_13
REMARK                            x       y       z     vdW  Elec       q    Type
REMARK                         _______ _______ _______ _____ _____    ______ ____
ROOT
ATOM      1  C   UNL     1       7.660   6.074  18.585  0.00  0.00    +0.000 C 
ENDROOT
BRANCH   1   2
ATOM      2  C   UNL     1       7.215   4.863  17.760  0.00  0.00    +0.000 C 
BRANCH   2   3
ATOM      3  C   UNL     1       5.816   5.107  17.217  0.00  0.00    +0.000 C 
BRANCH   3   4
ATOM      4  C   UNL     1       4.750   5.010  18.311  0.00  0.00    +0.000 C 
BRANCH   4   9
ATOM      5  C   UNL     1       1.244   3.129  21.002  0.00  0.00    +0.000 C 
ATOM      6  C   UNL     1       1.512   3.849  19.687  0.00  0.00    +0.000 C 
ATOM      7  C   UNL     1       2.410   3.018  18.759  0.00  0.00    +0.000 C 
ATOM      8  C   UNL     1       2.805   3.800  17.499  0.00  0.00    +0.000 C 
ATOM      9  N   UNL     1       3.385   5.129  17.771  0.00  0.00    +0.000 NA
ATOM     10  C   UNL     1       2.465   5.901  18.627  0.00  0.00    +0.000 C 
ATOM     11  C   UNL     1       2.136   5.220  19.950  0.00  0.00    +0.000 C 
ENDBRANCH   4   9
ENDBRANCH   3   4
ENDBRANCH   2   3
ENDBRANCH   1   2
BRANCH   1  12
ATOM     12  C   UNL     1       7.572   7.385  17.813  0.00  0.00    +0.000 C 
BRANCH  12  13
ATOM     13  C   UNL     1       8.508   8.440  18.383  0.00  0.00    +0.000 C 
BRANCH  13  14
ATOM     14  O   UNL     1       8.168   9.702  17.821  0.00  0.00    +0.000 OA
BRANCH  14  15
ATOM     15  C   UNL     1       8.826  10.779  18.350  0.00  0.00    +0.000 A 
ATOM     16  C   UNL     1       8.887  12.060  17.795  0.00  0.00    +0.000 A 
ATOM     17  C   UNL     1       9.583  13.078  18.453  0.00  0.00    +0.000 A 
ATOM     18  C   UNL     1      10.217  12.810  19.664  0.00  0.00    +0.000 A 
ATOM     19 CL   UNL     1      11.060  14.067  20.481  0.00  0.00    +0.000 Cl
ATOM     20  C   UNL     1      10.169  11.533  20.218  0.00  0.00    +0.000 A 
ATOM     21  C   UNL     1       9.475  10.519  19.559  0.00  0.00    +0.000 A 
ENDBRANCH  14  15
ENDBRANCH  13  14
ENDBRANCH  12  13
ENDBRANCH   1  12
TORSDOF 8
ENDMDL
MODEL 4
REMARK VINA RESULT:      -6.3      4.263      7.227
REMARK  Name = 
REMARK  9 active torsions:
REMARK  status: ('A' for Active; 'I' for Inactive)
REMARK    1  A    between atoms: C_1  and  C_2
REMARK    2  A    between atoms: N_5  and  C_6
REMARK    3  A    between atoms: C_6  and  C_7
REMARK    4  A    between atoms: C_7  and  C_8
REMARK    5  A    between atoms: C_8  and  C_9
REMARK    6  A    between atoms: C_9  and  C_10
REMARK    7  A    between atoms: C_10  and  C_11
REMARK    8  A    between atoms: C_11  and  O_12
REMARK    9  A    between atoms: O_12  and  C_13
REMARK                            x       y       z     vdW  Elec       q    Type
REMARK                         _______ _______ _______ _____ _____    ______ ____
ROOT
ATOM      1  C   UNL     1       7.787   6.815  18.060  0.00  0.00    +0.000 C 
ENDROOT
BRANCH   1   2
ATOM      2  C   UNL     1       7.129   5.613  17.378  0.00  0.00    +0.000 C 
BRANCH   2   3
ATOM      3  C   UNL     1       6.459   4.739  18.428  0.00  0.00    +0.000 C 
BRANCH   3   4
ATOM      4  C   UNL     1       5.127   5.328  18.899  0.00  0.00    +0.000 C 
BRANCH   4   9
ATOM      5  C   UNL     1       1.940   3.077  21.701  0.00  0.00    +0.000 C 
ATOM      6  C   UNL     1       2.253   3.420  20.250  0.00  0.00    +0.000 C 
ATOM      7  C   UNL     1       3.576   2.790  19.791  0.00  0.00    +0.000 C 
ATOM      8  C   UNL     1       3.969   3.254  18.382  0.00  0.00    +0.000 C 
ATOM      9  N   UNL     1       3.976   4.720  18.211  0.00  0.00    +0.000 NA
ATOM     10  C   UNL     1       2.670   5.268  18.623  0.00  0.00    +0.000 C 
ATOM     11  C   UNL     1       2.287   4.937  20.059  0.00  0.00    +0.000 C 
ENDBRANCH   4   9
ENDBRANCH   3   4
ENDBRANCH   2   3
ENDBRANCH   1   2
BRANCH   1  12
ATOM     12  C   UNL     1       7.265   8.151  17.545  0.00  0.00    +0.000 C 
BRANCH  12  13
ATOM     13  C   UNL     1       8.316   9.245  17.645  0.00  0.00    +0.000 C 
BRANCH  13  14
ATOM     14  O   UNL     1       8.787   9.303  18.987  0.00  0.00    +0.000 OA
BRANCH  14  15
ATOM     15  C   UNL     1       9.382  10.480  19.352  0.00  0.00    +0.000 A 
ATOM     16  C   UNL     1       9.528  10.956  20.657  0.00  0.00    +0.000 A 
ATOM     17  C   UNL     1      10.175  12.173  20.892  0.00  0.00    +0.000 A 
ATOM     18  C   UNL     1      10.674  12.909  19.819  0.00  0.00    +0.000 A 
ATOM     19 CL   UNL     1      11.484  14.397  20.110  0.00  0.00    +0.000 Cl
ATOM     20  C   UNL     1      10.523  12.444  18.515  0.00  0.00    +0.000 A 
ATOM     21  C   UNL     1       9.876  11.231  18.284  0.00  0.00    +0.000 A 
ENDBRANCH  14  15
ENDBRANCH  13  14
ENDBRANCH  12  13
ENDBRANCH   1  12
TORSDOF 8
ENDMDL
MODEL 5
REMARK VINA RESULT:      -6.2      4.364      7.422
REMARK  Name = 
REMARK  9 active torsions:
REMARK  status: ('A' for Active; 'I' for Inactive)
REMARK    1  A    between atoms: C_1  and  C_2
REMARK    2  A    between atoms: N_5  and  C_6
REMARK    3  A    between atoms: C_6  and  C_7
REMARK    4  A    between atoms: C_7  and  C_8
REMARK    5  A    between atoms: C_8  and  C_9
REMARK    6  A    between atoms: C_9  and  C_10
REMARK    7  A    between atoms: C_10  and  C_11
REMARK    8  A    between atoms: C_11  and  O_12
REMARK    9  A    between atoms: O_12  and  C_13
REMARK                            x       y       z     vdW  Elec       q    Type
REMARK                         _______ _______ _______ _____ _____    ______ ____
ROOT
ATOM      1  C   UNL     1       6.916   7.084  17.802  0.00  0.00    +0.000 C 
ENDROOT
BRANCH   1   2
ATOM      2  C   UNL     1       7.316   5.882  18.662  0.00  0.00    +0.000 C 
BRANCH   2   3
ATOM      3  C   UNL     1       6.077   5.295  19.320  0.00  0.00    +0.000 C 
BRANCH   3   4
ATOM      4  C   UNL     1       4.905   5.186  18.342  0.00  0.00    +0.000 C 
BRANCH   4   9
ATOM      5  C   UNL     1       0.692   3.870  20.238  0.00  0.00    +0.000 C 
ATOM      6  C   UNL     1       1.878   3.351  19.436  0.00  0.00    +0.000 C 
ATOM      7  C   UNL     1       3.184   3.430  20.239  0.00  0.00    +0.000 C 
ATOM      8  C   UNL     1       4.402   3.049  19.386  0.00  0.00    +0.000 C 
ATOM      9  N   UNL     1       4.500   3.789  18.112  0.00  0.00    +0.000 NA
ATOM     10  C   UNL     1       3.239   3.643  17.362  0.00  0.00    +0.000 C 
ATOM     11  C   UNL     1       2.009   4.123  18.122  0.00  0.00    +0.000 C 
ENDBRANCH   4   9
ENDBRANCH   3   4
ENDBRANCH   2   3
ENDBRANCH   1   2
BRANCH   1  12
ATOM     12  C   UNL     1       8.105   7.945  17.394  0.00  0.00    +0.000 C 
BRANCH  12  13
ATOM     13  C   UNL     1       7.968   9.373  17.900  0.00  0.00    +0.000 C 
BRANCH  13  14
ATOM     14  O   UNL     1       8.781   9.526  19.058  0.00  0.00    +0.000 OA
BRANCH  14  15
ATOM     15  C   UNL     1       9.537  10.666  19.100  0.00  0.00    +0.000 A 
ATOM     16  C   UNL     1      10.030  11.366  17.996  0.00  0.00    +0.000 A 
ATOM     17  C   UNL     1      10.778  12.533  18.182  0.00  0.00    +0.000 A 
ATOM     18  C   UNL     1      11.031  12.993  19.472  0.00  0.00    +0.000 A 
ATOM     19 CL   UNL     1      11.937  14.436  19.700  0.00  0.00    +0.000 Cl
ATOM     20  C   UNL     1      10.550  12.294  20.577  0.00  0.00    +0.000 A 
ATOM     21  C   UNL     1       9.806  11.131  20.388  0.00  0.00    +0.000 A 
ENDBRANCH  14  15
ENDBRANCH  13  14
ENDBRANCH  12  13
ENDBRANCH   1  12
TORSDOF 8
ENDMDL
MODEL 6
REMARK VINA RESULT:      -6.2      0.834      1.392
REMARK  Name = 
REMARK  9 active torsions:
REMARK  status: ('A' for Active; 'I' for Inactive)
REMARK    1  A    between atoms: C_1  and  C_2
REMARK    2  A    between atoms: N_5  and  C_6
REMARK    3  A    between atoms: C_6  and  C_7
REMARK    4  A    between atoms: C_7  and  C_8
REMARK    5  A    between atoms: C_8  and  C_9
REMARK    6  A    between atoms: C_9  and  C_10
REMARK    7  A    between atoms: C_10  and  C_11
REMARK    8  A    between atoms: C_11  and  O_12
REMARK    9  A    between atoms: O_12  and  C_13
REMARK                            x       y       z     vdW  Elec       q    Type
REMARK                         _______ _______ _______ _____ _____    ______ ____
ROOT
ATOM      1  C   UNL     1       3.493   3.522  19.460  0.00  0.00    +0.000 C 
ENDROOT
BRANCH   1   2
ATOM      2  C   UNL     1       3.068   3.171  18.032  0.00  0.00    +0.000 C 
BRANCH   2   3
ATOM      3  C   UNL     1       3.466   4.300  17.094  0.00  0.00    +0.000 C 
BRANCH   3   4
ATOM      4  C   UNL     1       4.605   3.892  16.155  0.00  0.00    +0.000 C 
BRANCH   4   9
ATOM      5  C   UNL     1       7.844   5.761  19.170  0.00  0.00    +0.000 C 
ATOM      6  C   UNL     1       7.233   5.932  17.786  0.00  0.00    +0.000 C 
ATOM      7  C   UNL     1       5.729   6.231  17.862  0.00  0.00    +0.000 C 
ATOM      8  C   UNL     1       5.082   6.255  16.471  0.00  0.00    +0.000 C 
ATOM      9  N   UNL     1       5.358   5.055  15.656  0.00  0.00    +0.000 NA
ATOM     10  C   UNL     1       6.815   4.840  15.578  0.00  0.00    +0.000 C 
ATOM     11  C   UNL     1       7.490   4.687  16.935  0.00  0.00    +0.000 C 
ENDBRANCH   4   9
ENDBRANCH   3   4
ENDBRANCH   2   3
ENDBRANCH   1   2
BRANCH   1  12
ATOM     12  C   UNL     1       2.318   3.612  20.426  0.00  0.00    +0.000 C 
BRANCH  12  13
ATOM     13  C   UNL     1       1.639   4.972  20.363  0.00  0.00    +0.000 C 
BRANCH  13  14
ATOM     14  O   UNL     1       2.637   5.972  20.198  0.00  0.00    +0.000 OA
BRANCH  14  15
ATOM     15  C   UNL     1       2.195   7.171  19.710  0.00  0.00    +0.000 A 
ATOM     16  C   UNL     1       2.350   7.633  18.400  0.00  0.00    +0.000 A 
ATOM     17  C   UNL     1       1.830   8.876  18.028  0.00  0.00    +0.000 A 
ATOM     18  C   UNL     1       1.158   9.654  18.968  0.00  0.00    +0.000 A 
ATOM     19 CL   UNL     1       0.505  11.175  18.506  0.00  0.00    +0.000 Cl
ATOM     20  C   UNL     1       1.008   9.203  20.278  0.00  0.00    +0.000 A 
ATOM     21  C   UNL     1       1.529   7.964  20.646  0.00  0.00    +0.000 A 
ENDBRANCH  14  15
ENDBRANCH  13  14
ENDBRANCH  12  13
ENDBRANCH   1  12
TORSDOF 8
ENDMDL
MODEL 7
REMARK VINA RESULT:      -6.2      2.183      4.576
REMARK  Name = 
REMARK  9 active torsions:
REMARK  status: ('A' for Active; 'I' for Inactive)
REMARK    1  A    between atoms: C_1  and  C_2
REMARK    2  A    between atoms: N_5  and  C_6
REMARK    3  A    between atoms: C_6  and  C_7
REMARK    4  A    between atoms: C_7  and  C_8
REMARK    5  A    between atoms: C_8  and  C_9
REMARK    6  A    between atoms: C_9  and  C_10
REMARK    7  A    between atoms: C_10  and  C_11
REMARK    8  A    between atoms: C_11  and  O_12
REMARK    9  A    between atoms: O_12  and  C_13
REMARK                            x       y       z     vdW  Elec       q    Type
REMARK                         _______ _______ _______ _____ _____    ______ ____
ROOT
ATOM      1  C   UNL     1       3.573   7.637  17.285  0.00  0.00    +0.000 C 
ENDROOT
BRANCH   1   2
ATOM      2  C   UNL     1       4.344   6.457  17.883  0.00  0.00    +0.000 C 
BRANCH   2   3
ATOM      3  C   UNL     1       4.324   5.292  16.906  0.00  0.00    +0.000 C 
BRANCH   3   4
ATOM      4  C   UNL     1       4.122   3.951  17.616  0.00  0.00    +0.000 C 
BRANCH   4   9
ATOM      5  C   UNL     1       1.275   2.947  21.353  0.00  0.00    +0.000 C 
ATOM      6  C   UNL     1       1.365   2.855  19.835  0.00  0.00    +0.000 C 
ATOM      7  C   UNL     1       2.529   1.959  19.388  0.00  0.00    +0.000 C 
ATOM      8  C   UNL     1       2.716   1.984  17.865  0.00  0.00    +0.000 C 
ATOM      9  N   UNL     1       2.821   3.340  17.293  0.00  0.00    +0.000 NA
ATOM     10  C   UNL     1       1.658   4.143  17.715  0.00  0.00    +0.000 C 
ATOM     11  C   UNL     1       1.499   4.252  19.226  0.00  0.00    +0.000 C 
ENDBRANCH   4   9
ENDBRANCH   3   4
ENDBRANCH   2   3
ENDBRANCH   1   2
BRANCH   1  12
ATOM     12  C   UNL     1       2.136   7.725  17.785  0.00  0.00    +0.000 C 
BRANCH  12  13
ATOM     13  C   UNL     1       1.963   8.833  18.812  0.00  0.00    +0.000 C 
BRANCH  13  14
ATOM     14  O   UNL     1       1.639   8.245  20.067  0.00  0.00    +0.000 OA
BRANCH  14  15
ATOM     15  C   UNL     1       0.857   9.009  20.891  0.00  0.00    +0.000 A 
ATOM     16  C   UNL     1       0.738   8.866  22.276  0.00  0.00    +0.000 A 
ATOM     17  C   UNL     1      -0.086   9.731  23.002  0.00  0.00    +0.000 A 
ATOM     18  C   UNL     1      -0.788  10.735  22.340  0.00  0.00    +0.000 A 
ATOM     19 CL   UNL     1      -1.789  11.808  23.236  0.00  0.00    +0.000 Cl
ATOM     20  C   UNL     1      -0.681  10.877  20.959  0.00  0.00    +0.000 A 
ATOM     21  C   UNL     1       0.140  10.012  20.236  0.00  0.00    +0.000 A 
ENDBRANCH  14  15
ENDBRANCH  13  14
ENDBRANCH  12  13
ENDBRANCH   1  12
TORSDOF 8
ENDMDL
MODEL 8
REMARK VINA RESULT:      -6.2      5.371      7.921
REMARK  Name = 
REMARK  9 active torsions:
REMARK  status: ('A' for Active; 'I' for Inactive)
REMARK    1  A    between atoms: C_1  and  C_2
REMARK    2  A    between atoms: N_5  and  C_6
REMARK    3  A    between atoms: C_6  and  C_7
REMARK    4  A    between atoms: C_7  and  C_8
REMARK    5  A    between atoms: C_8  and  C_9
REMARK    6  A    between atoms: C_9  and  C_10
REMARK    7  A    between atoms: C_10  and  C_11
REMARK    8  A    between atoms: C_11  and  O_12
REMARK    9  A    between atoms: O_12  and  C_13
REMARK                            x       y       z     vdW  Elec       q    Type
REMARK                         _______ _______ _______ _____ _____    ______ ____
ROOT
ATOM      1  C   UNL     1       8.384   8.383  18.438  0.00  0.00    +0.000 C 
ENDROOT
BRANCH   1   2
ATOM      2  C   UNL     1       8.726   9.868  18.292  0.00  0.00    +0.000 C 
BRANCH   2   3
ATOM      3  C   UNL     1       9.313  10.383  19.597  0.00  0.00    +0.000 C 
BRANCH   3   4
ATOM      4  C   UNL     1       9.991  11.745  19.423  0.00  0.00    +0.000 C 
BRANCH   4   9
ATOM      5  C   UNL     1      11.939  15.675  17.464  0.00  0.00    +0.000 C 
ATOM      6  C   UNL     1      12.228  14.220  17.812  0.00  0.00    +0.000 C 
ATOM      7  C   UNL     1      11.303  13.260  17.051  0.00  0.00    +0.000 C 
ATOM      8  C   UNL     1      11.488  11.807  17.509  0.00  0.00    +0.000 C 
ATOM      9  N   UNL     1      11.387  11.618  18.969  0.00  0.00    +0.000 NA
ATOM     10  C   UNL     1      12.326  12.529  19.648  0.00  0.00    +0.000 C 
ATOM     11  C   UNL     1      12.104  14.000  19.320  0.00  0.00    +0.000 C 
ENDBRANCH   4   9
ENDBRANCH   3   4
ENDBRANCH   2   3
ENDBRANCH   1   2
BRANCH   1  12
ATOM     12  C   UNL     1       7.585   7.838  17.260  0.00  0.00    +0.000 C 
BRANCH  12  13
ATOM     13  C   UNL     1       6.724   6.650  17.663  0.00  0.00    +0.000 C 
BRANCH  13  14
ATOM     14  O   UNL     1       5.690   6.489  16.699  0.00  0.00    +0.000 OA
BRANCH  14  15
ATOM     15  C   UNL     1       4.595   5.786  17.122  0.00  0.00    +0.000 A 
ATOM     16  C   UNL     1       3.496   6.310  17.808  0.00  0.00    +0.000 A 
ATOM     17  C   UNL     1       2.431   5.479  18.166  0.00  0.00    +0.000 A 
ATOM     18  C   UNL     1       2.470   4.125  17.837  0.00  0.00    +0.000 A 
ATOM     19 CL   UNL     1       1.152   3.107  18.264  0.00  0.00    +0.000 Cl
ATOM     20  C   UNL     1       3.566   3.595  17.162  0.00  0.00    +0.000 A 
ATOM     21  C   UNL     1       4.628   4.426  16.808  0.00  0.00    +0.000 A 
ENDBRANCH  14  15
ENDBRANCH  13  14
ENDBRANCH  12  13
ENDBRANCH   1  12
TORSDOF 8
ENDMDL
MODEL 9
REMARK VINA RESULT:      -6.2      0.900      1.436
REMARK  Name = 
REMARK  9 active torsions:
REMARK  status: ('A' for Active; 'I' for Inactive)
REMARK    1  A    between atoms: C_1  and  C_2
REMARK    2  A    between atoms: N_5  and  C_6
REMARK    3  A    between atoms: C_6  and  C_7
REMARK    4  A    between atoms: C_7  and  C_8
REMARK    5  A    between atoms: C_8  and  C_9
REMARK    6  A    between atoms: C_9  and  C_10
REMARK    7  A    between atoms: C_10  and  C_11
REMARK    8  A    between atoms: C_11  and  O_12
REMARK    9  A    between atoms: O_12  and  C_13
REMARK                            x       y       z     vdW  Elec       q    Type
REMARK                         _______ _______ _______ _____ _____    ______ ____
ROOT
ATOM      1  C   UNL     1       3.307   3.638  19.849  0.00  0.00    +0.000 C 
ENDROOT
BRANCH   1   2
ATOM      2  C   UNL     1       2.857   2.752  18.684  0.00  0.00    +0.000 C 
BRANCH   2   3
ATOM      3  C   UNL     1       2.831   3.574  17.404  0.00  0.00    +0.000 C 
BRANCH   3   4
ATOM      4  C   UNL     1       3.894   4.674  17.406  0.00  0.00    +0.000 C 
BRANCH   4   9
ATOM      5  C   UNL     1       7.533   7.806  17.577  0.00  0.00    +0.000 C 
ATOM      6  C   UNL     1       7.154   6.408  17.105  0.00  0.00    +0.000 C 
ATOM      7  C   UNL     1       6.048   6.448  16.042  0.00  0.00    +0.000 C 
ATOM      8  C   UNL     1       5.560   5.040  15.674  0.00  0.00    +0.000 C 
ATOM      9  N   UNL     1       5.172   4.215  16.834  0.00  0.00    +0.000 NA
ATOM     10  C   UNL     1       6.284   4.173  17.801  0.00  0.00    +0.000 C 
ATOM     11  C   UNL     1       6.726   5.545  18.293  0.00  0.00    +0.000 C 
ENDBRANCH   4   9
ENDBRANCH   3   4
ENDBRANCH   2   3
ENDBRANCH   1   2
BRANCH   1  12
ATOM     12  C   UNL     1       2.193   3.913  20.851  0.00  0.00    +0.000 C 
BRANCH  12  13
ATOM     13  C   UNL     1       1.592   5.298  20.662  0.00  0.00    +0.000 C 
BRANCH  13  14
ATOM     14  O   UNL     1       2.575   6.145  20.079  0.00  0.00    +0.000 OA
BRANCH  14  15
ATOM     15  C   UNL     1       2.127   7.371  19.668  0.00  0.00    +0.000 A 
ATOM     16  C   UNL     1       2.305   7.929  18.400  0.00  0.00    +0.000 A 
ATOM     17  C   UNL     1       1.777   9.190  18.106  0.00  0.00    +0.000 A 
ATOM     18  C   UNL     1       1.072   9.888  19.085  0.00  0.00    +0.000 A 
ATOM     19 CL   UNL     1       0.409  11.431  18.718  0.00  0.00    +0.000 Cl
ATOM     20  C   UNL     1       0.899   9.342  20.353  0.00  0.00    +0.000 A 
ATOM     21  C   UNL     1       1.428   8.085  20.644  0.00  0.00    +0.000 A 
ENDBRANCH  14  15
ENDBRANCH  13  14
ENDBRANCH  12  13
ENDBRANCH   1  12
TORSDOF 8
ENDMDL
