MODEL 1
REMARK VINA RESULT:      -6.6      0.000      0.000
REMARK  Name = 
REMARK  12 active torsions:
REMARK  status: ('A' for Active; 'I' for Inactive)
REMARK    1  A    between atoms: C_1  and  C_2
REMARK    2  A    between atoms: C_2  and  C_3
REMARK    3  A    between atoms: C_3  and  C_4
REMARK    4  A    between atoms: C_4  and  N_5
REMARK    5  A    between atoms: N_5  and  C_6
REMARK    6  A    between atoms: N_5  and  C_10
REMARK    7  A    between atoms: C_6  and  C_7
REMARK    8  A    between atoms: C_7  and  C_8
REMARK    9  A    between atoms: C_8  and  C_9
REMARK   10  A    between atoms: C_10  and  C_11
REMARK   11  A    between atoms: C_11  and  C_12
REMARK   12  A    between atoms: C_12  and  N_13
REMARK                            x       y       z     vdW  Elec       q    Type
REMARK                         _______ _______ _______ _____ _____    ______ ____
ROOT
ATOM      1  C   UNL     1       2.701   3.538  17.084  0.00  0.00    +0.000 C 
ENDROOT
BRANCH   1   2
ATOM      2  N   UNL     1       2.314   3.893  18.435  0.00  0.00    +0.000 N 
ATOM      3  C   UNL     1       1.775   3.060  19.386  0.00  0.00    +0.000 A 
ATOM      4  N   UNL     1       1.625   1.739  19.207  0.00  0.00    +0.000 N 
ATOM      5  N   UNL     1       1.397   3.729  20.445  0.00  0.00    +0.000 NA
ATOM      6  C   UNL     1       1.671   5.049  20.167  0.00  0.00    +0.000 A 
ATOM      7  C   UNL     1       1.417   6.198  20.931  0.00  0.00    +0.000 A 
ATOM      8  C   UNL     1       1.765   7.448  20.405  0.00  0.00    +0.000 A 
ATOM      9  C   UNL     1       2.369   7.557  19.152  0.00  0.00    +0.000 A 
ATOM     10  C   UNL     1       2.639   6.420  18.380  0.00  0.00    +0.000 A 
ATOM     11  C   UNL     1       2.268   5.183  18.919  0.00  0.00    +0.000 A 
ATOM     12  H   UNL     1       2.233   1.220  18.587  0.00  0.00    +0.000 HD
ATOM     13  H   UNL     1       1.378   1.221  20.046  0.00  0.00    +0.000 HD
ENDBRANCH   1   2
BRANCH   1  14
ATOM     14  C   UNL     1       4.199   3.252  17.018  0.00  0.00    +0.000 C 
BRANCH  14  15
ATOM     15  C   UNL     1       5.002   4.469  16.561  0.00  0.00    +0.000 C 
BRANCH  15  16
ATOM     16  N   UNL     1       6.257   4.155  15.841  0.00  0.00    +0.000 NA
BRANCH  16  17
ATOM     17  C   UNL     1       6.170   4.666  14.449  0.00  0.00    +0.000 C 
BRANCH  17  18
ATOM     18  C   UNL     1       6.316   3.656  13.303  0.00  0.00    +0.000 C 
BRANCH  18  20
ATOM     19  C   UNL     1       5.248   2.404  11.417  0.00  0.00    +0.000 C 
ATOM     20  C   UNL     1       5.086   3.553  12.403  0.00  0.00    +0.000 C 
ENDBRANCH  18  20
ENDBRANCH  17  18
ENDBRANCH  16  17
BRANCH  16  21
ATOM     21  C   UNL     1       7.416   4.745  16.551  0.00  0.00    +0.000 C 
BRANCH  21  22
ATOM     22  C   UNL     1       7.283   4.902  18.080  0.00  0.00    +0.000 C 
BRANCH  22  23
ATOM     23  C   UNL     1       7.728   6.265  18.613  0.00  0.00    +0.000 C 
ATOM     24  C   UNL     1       7.548   7.345  17.553  0.00  0.00    +0.000 C 
ENDBRANCH  22  23
ENDBRANCH  21  22
ENDBRANCH  16  21
ENDBRANCH  15  16
ENDBRANCH  14  15
ENDBRANCH   1  14
TORSDOF 10
ENDMDL
MODEL 2
REMARK VINA RESULT:      -6.6      0.941      1.236
REMARK  Name = 
REMARK  12 active torsions:
REMARK  status: ('A' for Active; 'I' for Inactive)
REMARK    1  A    between atoms: C_1  and  C_2
REMARK    2  A    between atoms: C_2  and  C_3
REMARK    3  A    between atoms: C_3  and  C_4
REMARK    4  A    between atoms: C_4  and  N_5
REMARK    5  A    between atoms: N_5  and  C_6
REMARK    6  A    between atoms: N_5  and  C_10
REMARK    7  A    between atoms: C_6  and  C_7
REMARK    8  A    between atoms: C_7  and  C_8
REMARK    9  A    between atoms: C_8  and  C_9
REMARK   10  A    between atoms: C_10  and  C_11
REMARK   11  A    between atoms: C_11  and  C_12
REMARK   12  A    between atoms: C_12  and  N_13
REMARK                            x       y       z     vdW  Elec       q    Type
REMARK                         _______ _______ _______ _____ _____    ______ ____
ROOT
ATOM      1  C   UNL     1       2.436   3.201  17.898  0.00  0.00    +0.000 C 
ENDROOT
BRANCH   1   2
ATOM      2  N   UNL     1       2.315   4.102  19.027  0.00  0.00    +0.000 N 
ATOM      3  C   UNL     1       2.017   3.764  20.325  0.00  0.00    +0.000 A 
ATOM      4  N   UNL     1       1.893   2.495  20.745  0.00  0.00    +0.000 N 
ATOM      5  N   UNL     1       1.832   4.828  21.064  0.00  0.00    +0.000 NA
ATOM      6  C   UNL     1       1.986   5.900  20.214  0.00  0.00    +0.000 A 
ATOM      7  C   UNL     1       1.842   7.272  20.466  0.00  0.00    +0.000 A 
ATOM      8  C   UNL     1       2.020   8.175  19.411  0.00  0.00    +0.000 A 
ATOM      9  C   UNL     1       2.353   7.726  18.131  0.00  0.00    +0.000 A 
ATOM     10  C   UNL     1       2.510   6.361  17.863  0.00  0.00    +0.000 A 
ATOM     11  C   UNL     1       2.311   5.477  18.931  0.00  0.00    +0.000 A 
ATOM     12  H   UNL     1       2.385   1.739  20.287  0.00  0.00    +0.000 HD
ATOM     13  H   UNL     1       1.843   2.384  21.754  0.00  0.00    +0.000 HD
ENDBRANCH   1   2
BRANCH   1  14
ATOM     14  C   UNL     1       3.899   2.834  17.664  0.00  0.00    +0.000 C 
BRANCH  14  15
ATOM     15  C   UNL     1       4.563   3.732  16.620  0.00  0.00    +0.000 C 
BRANCH  15  16
ATOM     16  N   UNL     1       5.986   4.044  16.881  0.00  0.00    +0.000 NA
BRANCH  16  17
ATOM     17  C   UNL     1       6.662   4.373  15.600  0.00  0.00    +0.000 C 
BRANCH  17  18
ATOM     18  C   UNL     1       5.816   4.373  14.320  0.00  0.00    +0.000 C 
BRANCH  18  20
ATOM     19  C   UNL     1       5.643   3.204  12.113  0.00  0.00    +0.000 C 
ATOM     20  C   UNL     1       6.577   3.933  13.070  0.00  0.00    +0.000 C 
ENDBRANCH  18  20
ENDBRANCH  17  18
ENDBRANCH  16  17
BRANCH  16  21
ATOM     21  C   UNL     1       6.097   5.166  17.843  0.00  0.00    +0.000 C 
BRANCH  21  22
ATOM     22  C   UNL     1       7.319   6.092  17.686  0.00  0.00    +0.000 C 
BRANCH  22  23
ATOM     23  C   UNL     1       6.970   7.542  17.342  0.00  0.00    +0.000 C 
ATOM     24  C   UNL     1       8.046   8.492  17.854  0.00  0.00    +0.000 C 
ENDBRANCH  22  23
ENDBRANCH  21  22
ENDBRANCH  16  21
ENDBRANCH  15  16
ENDBRANCH  14  15
ENDBRANCH   1  14
TORSDOF 10
ENDMDL
MODEL 3
REMARK VINA RESULT:      -6.6      1.519      2.231
REMARK  Name = 
REMARK  12 active torsions:
REMARK  status: ('A' for Active; 'I' for Inactive)
REMARK    1  A    between atoms: C_1  and  C_2
REMARK    2  A    between atoms: C_2  and  C_3
REMARK    3  A    between atoms: C_3  and  C_4
REMARK    4  A    between atoms: C_4  and  N_5
REMARK    5  A    between atoms: N_5  and  C_6
REMARK    6  A    between atoms: N_5  and  C_10
REMARK    7  A    between atoms: C_6  and  C_7
REMARK    8  A    between atoms: C_7  and  C_8
REMARK    9  A    between atoms: C_8  and  C_9
REMARK   10  A    between atoms: C_10  and  C_11
REMARK   11  A    between atoms: C_11  and  C_12
REMARK   12  A    between atoms: C_12  and  N_13
REMARK                            x       y       z     vdW  Elec       q    Type
REMARK                         _______ _______ _______ _____ _____    ______ ____
ROOT
ATOM      1  C   UNL     1       5.469   3.506  18.928  0.00  0.00    +0.000 C 
ENDROOT
BRANCH   1   2
ATOM      2  N   UNL     1       4.114   3.077  19.216  0.00  0.00    +0.000 N 
ATOM      3  C   UNL     1       3.545   1.868  18.893  0.00  0.00    +0.000 A 
ATOM      4  N   UNL     1       4.230   0.857  18.336  0.00  0.00    +0.000 N 
ATOM      5  N   UNL     1       2.263   1.860  19.156  0.00  0.00    +0.000 NA
ATOM      6  C   UNL     1       1.978   3.116  19.642  0.00  0.00    +0.000 A 
ATOM      7  C   UNL     1       0.748   3.670  20.028  0.00  0.00    +0.000 A 
ATOM      8  C   UNL     1       0.713   5.000  20.462  0.00  0.00    +0.000 A 
ATOM      9  C   UNL     1       1.880   5.764  20.529  0.00  0.00    +0.000 A 
ATOM     10  C   UNL     1       3.118   5.225  20.157  0.00  0.00    +0.000 A 
ATOM     11  C   UNL     1       3.125   3.897  19.712  0.00  0.00    +0.000 A 
ATOM     12  H   UNL     1       5.225   0.750  18.487  0.00  0.00    +0.000 HD
ATOM     13  H   UNL     1       3.735  -0.029  18.309  0.00  0.00    +0.000 HD
ENDBRANCH   1   2
BRANCH   1  14
ATOM     14  C   UNL     1       5.499   4.358  17.662  0.00  0.00    +0.000 C 
BRANCH  14  15
ATOM     15  C   UNL     1       6.914   4.523  17.108  0.00  0.00    +0.000 C 
BRANCH  15  16
ATOM     16  N   UNL     1       7.066   5.588  16.091  0.00  0.00    +0.000 NA
BRANCH  16  17
ATOM     17  C   UNL     1       6.176   5.300  14.937  0.00  0.00    +0.000 C 
BRANCH  17  18
ATOM     18  C   UNL     1       6.267   3.913  14.289  0.00  0.00    +0.000 C 
BRANCH  18  20
ATOM     19  C   UNL     1       5.522   3.115  12.036  0.00  0.00    +0.000 C 
ATOM     20  C   UNL     1       6.554   3.943  12.788  0.00  0.00    +0.000 C 
ENDBRANCH  18  20
ENDBRANCH  17  18
ENDBRANCH  16  17
BRANCH  16  21
ATOM     21  C   UNL     1       6.755   6.910  16.684  0.00  0.00    +0.000 C 
BRANCH  21  22
ATOM     22  C   UNL     1       7.743   7.444  17.740  0.00  0.00    +0.000 C 
BRANCH  22  23
ATOM     23  C   UNL     1       7.910   8.965  17.733  0.00  0.00    +0.000 C 
ATOM     24  C   UNL     1       8.880   9.407  18.822  0.00  0.00    +0.000 C 
ENDBRANCH  22  23
ENDBRANCH  21  22
ENDBRANCH  16  21
ENDBRANCH  15  16
ENDBRANCH  14  15
ENDBRANCH   1  14
TORSDOF 10
ENDMDL
MODEL 4
REMARK VINA RESULT:      -6.5      1.477      2.892
REMARK  Name = 
REMARK  12 active torsions:
REMARK  status: ('A' for Active; 'I' for Inactive)
REMARK    1  A    between atoms: C_1  and  C_2
REMARK    2  A    between atoms: C_2  and  C_3
REMARK    3  A    between atoms: C_3  and  C_4
REMARK    4  A    between atoms: C_4  and  N_5
REMARK    5  A    between atoms: N_5  and  C_6
REMARK    6  A    between atoms: N_5  and  C_10
REMARK    7  A    between atoms: C_6  and  C_7
REMARK    8  A    between atoms: C_7  and  C_8
REMARK    9  A    between atoms: C_8  and  C_9
REMARK   10  A    between atoms: C_10  and  C_11
REMARK   11  A    between atoms: C_11  and  C_12
REMARK   12  A    between atoms: C_12  and  N_13
REMARK                            x       y       z     vdW  Elec       q    Type
REMARK                         _______ _______ _______ _____ _____    ______ ____
ROOT
ATOM      1  C   UNL     1       4.300   6.137  18.303  0.00  0.00    +0.000 C 
ENDROOT
BRANCH   1   2
ATOM      2  N   UNL     1       3.107   5.545  18.873  0.00  0.00    +0.000 N 
ATOM      3  C   UNL     1       2.321   6.068  19.872  0.00  0.00    +0.000 A 
ATOM      4  N   UNL     1       2.514   7.289  20.396  0.00  0.00    +0.000 N 
ATOM      5  N   UNL     1       1.411   5.212  20.260  0.00  0.00    +0.000 NA
ATOM      6  C   UNL     1       1.626   4.078  19.510  0.00  0.00    +0.000 A 
ATOM      7  C   UNL     1       0.975   2.836  19.555  0.00  0.00    +0.000 A 
ATOM      8  C   UNL     1       1.407   1.816  18.699  0.00  0.00    +0.000 A 
ATOM      9  C   UNL     1       2.456   2.028  17.802  0.00  0.00    +0.000 A 
ATOM     10  C   UNL     1       3.111   3.263  17.737  0.00  0.00    +0.000 A 
ATOM     11  C   UNL     1       2.672   4.263  18.613  0.00  0.00    +0.000 A 
ATOM     12  H   UNL     1       2.942   8.031  19.858  0.00  0.00    +0.000 HD
ATOM     13  H   UNL     1       1.764   7.616  20.999  0.00  0.00    +0.000 HD
ENDBRANCH   1   2
BRANCH   1  14
ATOM     14  C   UNL     1       3.997   6.726  16.927  0.00  0.00    +0.000 C 
BRANCH  14  15
ATOM     15  C   UNL     1       5.138   6.503  15.936  0.00  0.00    +0.000 C 
BRANCH  15  16
ATOM     16  N   UNL     1       5.618   5.105  15.843  0.00  0.00    +0.000 NA
BRANCH  16  17
ATOM     17  C   UNL     1       5.303   4.563  14.497  0.00  0.00    +0.000 C 
BRANCH  17  18
ATOM     18  C   UNL     1       6.344   3.660  13.824  0.00  0.00    +0.000 C 
BRANCH  18  20
ATOM     19  C   UNL     1       4.656   3.456  11.987  0.00  0.00    +0.000 C 
ATOM     20  C   UNL     1       6.142   3.488  12.319  0.00  0.00    +0.000 C 
ENDBRANCH  18  20
ENDBRANCH  17  18
ENDBRANCH  16  17
BRANCH  16  21
ATOM     21  C   UNL     1       7.074   5.045  16.111  0.00  0.00    +0.000 C 
BRANCH  21  22
ATOM     22  C   UNL     1       7.498   4.680  17.548  0.00  0.00    +0.000 C 
BRANCH  22  23
ATOM     23  C   UNL     1       7.949   5.873  18.393  0.00  0.00    +0.000 C 
ATOM     24  C   UNL     1       7.631   5.643  19.866  0.00  0.00    +0.000 C 
ENDBRANCH  22  23
ENDBRANCH  21  22
ENDBRANCH  16  21
ENDBRANCH  15  16
ENDBRANCH  14  15
ENDBRANCH   1  14
TORSDOF 10
ENDMDL
MODEL 5
REMARK VINA RESULT:      -6.4      1.146      3.910
REMARK  Name = 
REMARK  12 active torsions:
REMARK  status: ('A' for Active; 'I' for Inactive)
REMARK    1  A    between atoms: C_1  and  C_2
REMARK    2  A    between atoms: C_2  and  C_3
REMARK    3  A    between atoms: C_3  and  C_4
REMARK    4  A    between atoms: C_4  and  N_5
REMARK    5  A    between atoms: N_5  and  C_6
REMARK    6  A    between atoms: N_5  and  C_10
REMARK    7  A    between atoms: C_6  and  C_7
REMARK    8  A    between atoms: C_7  and  C_8
REMARK    9  A    between atoms: C_8  and  C_9
REMARK   10  A    between atoms: C_10  and  C_11
REMARK   11  A    between atoms: C_11  and  C_12
REMARK   12  A    between atoms: C_12  and  N_13
REMARK                            x       y       z     vdW  Elec       q    Type
REMARK                         _______ _______ _______ _____ _____    ______ ____
ROOT
ATOM      1  C   UNL     1       4.345   3.744  18.756  0.00  0.00    +0.000 C 
ENDROOT
BRANCH   1   2
ATOM      2  N   UNL     1       3.490   4.712  19.414  0.00  0.00    +0.000 N 
ATOM      3  C   UNL     1       2.657   4.486  20.484  0.00  0.00    +0.000 A 
ATOM      4  N   UNL     1       2.604   3.317  21.141  0.00  0.00    +0.000 N 
ATOM      5  N   UNL     1       1.911   5.531  20.735  0.00  0.00    +0.000 NA
ATOM      6  C   UNL     1       2.245   6.463  19.779  0.00  0.00    +0.000 A 
ATOM      7  C   UNL     1       1.714   7.741  19.547  0.00  0.00    +0.000 A 
ATOM      8  C   UNL     1       2.207   8.493  18.474  0.00  0.00    +0.000 A 
ATOM      9  C   UNL     1       3.222   7.994  17.655  0.00  0.00    +0.000 A 
ATOM     10  C   UNL     1       3.771   6.726  17.877  0.00  0.00    +0.000 A 
ATOM     11  C   UNL     1       3.251   5.986  18.946  0.00  0.00    +0.000 A 
ATOM     12  H   UNL     1       3.404   2.699  21.179  0.00  0.00    +0.000 HD
ATOM     13  H   UNL     1       2.079   3.341  22.011  0.00  0.00    +0.000 HD
ENDBRANCH   1   2
BRANCH   1  14
ATOM     14  C   UNL     1       3.985   3.636  17.276  0.00  0.00    +0.000 C 
BRANCH  14  15
ATOM     15  C   UNL     1       5.221   3.493  16.388  0.00  0.00    +0.000 C 
BRANCH  15  16
ATOM     16  N   UNL     1       5.785   4.770  15.894  0.00  0.00    +0.000 NA
BRANCH  16  17
ATOM     17  C   UNL     1       7.223   4.847  16.254  0.00  0.00    +0.000 C 
BRANCH  17  18
ATOM     18  C   UNL     1       7.602   4.711  17.735  0.00  0.00    +0.000 C 
BRANCH  18  20
ATOM     19  C   UNL     1       7.583   7.212  17.637  0.00  0.00    +0.000 C 
ATOM     20  C   UNL     1       7.435   5.997  18.542  0.00  0.00    +0.000 C 
ENDBRANCH  18  20
ENDBRANCH  17  18
ENDBRANCH  16  17
BRANCH  16  21
ATOM     21  C   UNL     1       5.598   4.879  14.428  0.00  0.00    +0.000 C 
BRANCH  21  22
ATOM     22  C   UNL     1       6.118   3.704  13.576  0.00  0.00    +0.000 C 
BRANCH  22  23
ATOM     23  C   UNL     1       5.300   3.434  12.311  0.00  0.00    +0.000 C 
ATOM     24  C   UNL     1       5.830   2.208  11.577  0.00  0.00    +0.000 C 
ENDBRANCH  22  23
ENDBRANCH  21  22
ENDBRANCH  16  21
ENDBRANCH  15  16
ENDBRANCH  14  15
ENDBRANCH   1  14
TORSDOF 10
ENDMDL
MODEL 6
REMARK VINA RESULT:      -6.4      1.883      3.080
REMARK  Name = 
REMARK  12 active torsions:
REMARK  status: ('A' for Active; 'I' for Inactive)
REMARK    1  A    between atoms: C_1  and  C_2
REMARK    2  A    between atoms: C_2  and  C_3
REMARK    3  A    between atoms: C_3  and  C_4
REMARK    4  A    between atoms: C_4  and  N_5
REMARK    5  A    between atoms: N_5  and  C_6
REMARK    6  A    between atoms: N_5  and  C_10
REMARK    7  A    between atoms: C_6  and  C_7
REMARK    8  A    between atoms: C_7  and  C_8
REMARK    9  A    between atoms: C_8  and  C_9
REMARK   10  A    between atoms: C_10  and  C_11
REMARK   11  A    between atoms: C_11  and  C_12
REMARK   12  A    between atoms: C_12  and  N_13
REMARK                            x       y       z     vdW  Elec       q    Type
REMARK                         _______ _______ _______ _____ _____    ______ ____
ROOT
ATOM      1  C   UNL     1       5.447   5.144  19.393  0.00  0.00    +0.000 C 
ENDROOT
BRANCH   1   2
ATOM      2  N   UNL     1       4.006   5.093  19.247  0.00  0.00    +0.000 N 
ATOM      3  C   UNL     1       3.213   5.979  18.558  0.00  0.00    +0.000 A 
ATOM      4  N   UNL     1       3.705   6.988  17.823  0.00  0.00    +0.000 N 
ATOM      5  N   UNL     1       1.943   5.733  18.754  0.00  0.00    +0.000 NA
ATOM      6  C   UNL     1       1.902   4.667  19.624  0.00  0.00    +0.000 A 
ATOM      7  C   UNL     1       0.798   4.029  20.209  0.00  0.00    +0.000 A 
ATOM      8  C   UNL     1       1.023   2.973  21.100  0.00  0.00    +0.000 A 
ATOM      9  C   UNL     1       2.319   2.546  21.394  0.00  0.00    +0.000 A 
ATOM     10  C   UNL     1       3.432   3.164  20.811  0.00  0.00    +0.000 A 
ATOM     11  C   UNL     1       3.183   4.227  19.936  0.00  0.00    +0.000 A 
ATOM     12  H   UNL     1       4.622   6.932  17.400  0.00  0.00    +0.000 HD
ATOM     13  H   UNL     1       3.023   7.457  17.233  0.00  0.00    +0.000 HD
ENDBRANCH   1   2
BRANCH   1  14
ATOM     14  C   UNL     1       6.116   4.205  18.391  0.00  0.00    +0.000 C 
BRANCH  14  15
ATOM     15  C   UNL     1       7.540   4.642  18.049  0.00  0.00    +0.000 C 
BRANCH  15  16
ATOM     16  N   UNL     1       7.711   5.195  16.686  0.00  0.00    +0.000 NA
BRANCH  16  17
ATOM     17  C   UNL     1       6.900   4.404  15.726  0.00  0.00    +0.000 C 
BRANCH  17  18
ATOM     18  C   UNL     1       6.444   5.092  14.433  0.00  0.00    +0.000 C 
BRANCH  18  20
ATOM     19  C   UNL     1       5.713   3.467  12.675  0.00  0.00    +0.000 C 
ATOM     20  C   UNL     1       6.851   4.356  13.157  0.00  0.00    +0.000 C 
ENDBRANCH  18  20
ENDBRANCH  17  18
ENDBRANCH  16  17
BRANCH  16  21
ATOM     21  C   UNL     1       7.320   6.624  16.660  0.00  0.00    +0.000 C 
BRANCH  21  22
ATOM     22  C   UNL     1       7.772   7.486  17.856  0.00  0.00    +0.000 C 
BRANCH  22  23
ATOM     23  C   UNL     1       7.731   8.993  17.596  0.00  0.00    +0.000 C 
ATOM     24  C   UNL     1       8.761   9.718  18.453  0.00  0.00    +0.000 C 
ENDBRANCH  22  23
ENDBRANCH  21  22
ENDBRANCH  16  21
ENDBRANCH  15  16
ENDBRANCH  14  15
ENDBRANCH   1  14
TORSDOF 10
ENDMDL
MODEL 7
REMARK VINA RESULT:      -6.3      1.749      3.409
REMARK  Name = 
REMARK  12 active torsions:
REMARK  status: ('A' for Active; 'I' for Inactive)
REMARK    1  A    between atoms: C_1  and  C_2
REMARK    2  A    between atoms: C_2  and  C_3
REMARK    3  A    between atoms: C_3  and  C_4
REMARK    4  A    between atoms: C_4  and  N_5
REMARK    5  A    between atoms: N_5  and  C_6
REMARK    6  A    between atoms: N_5  and  C_10
REMARK    7  A    between atoms: C_6  and  C_7
REMARK    8  A    between atoms: C_7  and  C_8
REMARK    9  A    between atoms: C_8  and  C_9
REMARK   10  A    between atoms: C_10  and  C_11
REMARK   11  A    between atoms: C_11  and  C_12
REMARK   12  A    between atoms: C_12  and  N_13
REMARK                            x       y       z     vdW  Elec       q    Type
REMARK                         _______ _______ _______ _____ _____    ______ ____
ROOT
ATOM      1  C   UNL     1       2.381   6.816  17.840  0.00  0.00    +0.000 C 
ENDROOT
BRANCH   1   2
ATOM      2  N   UNL     1       2.133   5.826  18.870  0.00  0.00    +0.000 N 
ATOM      3  C   UNL     1       2.003   6.053  20.219  0.00  0.00    +0.000 A 
ATOM      4  N   UNL     1       1.989   7.280  20.761  0.00  0.00    +0.000 N 
ATOM      5  N   UNL     1       1.941   4.929  20.887  0.00  0.00    +0.000 NA
ATOM      6  C   UNL     1       2.064   3.932  19.946  0.00  0.00    +0.000 A 
ATOM      7  C   UNL     1       2.118   2.540  20.116  0.00  0.00    +0.000 A 
ATOM      8  C   UNL     1       2.284   1.729  18.987  0.00  0.00    +0.000 A 
ATOM      9  C   UNL     1       2.377   2.285  17.710  0.00  0.00    +0.000 A 
ATOM     10  C   UNL     1       2.315   3.671  17.521  0.00  0.00    +0.000 A 
ATOM     11  C   UNL     1       2.165   4.463  18.666  0.00  0.00    +0.000 A 
ATOM     12  H   UNL     1       1.670   8.084  20.235  0.00  0.00    +0.000 HD
ATOM     13  H   UNL     1       1.715   7.311  21.739  0.00  0.00    +0.000 HD
ENDBRANCH   1   2
BRANCH   1  14
ATOM     14  C   UNL     1       3.791   7.384  17.976  0.00  0.00    +0.000 C 
BRANCH  14  15
ATOM     15  C   UNL     1       4.740   6.841  16.908  0.00  0.00    +0.000 C 
BRANCH  15  16
ATOM     16  N   UNL     1       6.029   6.326  17.423  0.00  0.00    +0.000 NA
BRANCH  16  17
ATOM     17  C   UNL     1       6.224   4.929  16.958  0.00  0.00    +0.000 C 
BRANCH  17  18
ATOM     18  C   UNL     1       5.130   4.304  16.083  0.00  0.00    +0.000 C 
BRANCH  18  20
ATOM     19  C   UNL     1       6.943   4.631  14.388  0.00  0.00    +0.000 C 
ATOM     20  C   UNL     1       5.499   4.198  14.604  0.00  0.00    +0.000 C 
ENDBRANCH  18  20
ENDBRANCH  17  18
ENDBRANCH  16  17
BRANCH  16  21
ATOM     21  C   UNL     1       7.143   7.194  16.974  0.00  0.00    +0.000 C 
BRANCH  21  22
ATOM     22  C   UNL     1       8.027   7.809  18.078  0.00  0.00    +0.000 C 
BRANCH  22  23
ATOM     23  C   UNL     1       8.233   9.320  17.949  0.00  0.00    +0.000 C 
ATOM     24  C   UNL     1       9.035   9.858  19.128  0.00  0.00    +0.000 C 
ENDBRANCH  22  23
ENDBRANCH  21  22
ENDBRANCH  16  21
ENDBRANCH  15  16
ENDBRANCH  14  15
ENDBRANCH   1  14
TORSDOF 10
ENDMDL
MODEL 8
REMARK VINA RESULT:      -6.3      1.829      4.415
REMARK  Name = 
REMARK  12 active torsions:
REMARK  status: ('A' for Active; 'I' for Inactive)
REMARK    1  A    between atoms: C_1  and  C_2
REMARK    2  A    between atoms: C_2  and  C_3
REMARK    3  A    between atoms: C_3  and  C_4
REMARK    4  A    between atoms: C_4  and  N_5
REMARK    5  A    between atoms: N_5  and  C_6
REMARK    6  A    between atoms: N_5  and  C_10
REMARK    7  A    between atoms: C_6  and  C_7
REMARK    8  A    between atoms: C_7  and  C_8
REMARK    9  A    between atoms: C_8  and  C_9
REMARK   10  A    between atoms: C_10  and  C_11
REMARK   11  A    between atoms: C_11  and  C_12
REMARK   12  A    between atoms: C_12  and  N_13
REMARK                            x       y       z     vdW  Elec       q    Type
REMARK                         _______ _______ _______ _____ _____    ______ ____
ROOT
ATOM      1  C   UNL     1       4.374   6.120  18.730  0.00  0.00    +0.000 C 
ENDROOT
BRANCH   1   2
ATOM      2  N   UNL     1       4.148   4.793  19.267  0.00  0.00    +0.000 N 
ATOM      3  C   UNL     1       4.983   3.706  19.160  0.00  0.00    +0.000 A 
ATOM      4  N   UNL     1       6.204   3.768  18.607  0.00  0.00    +0.000 N 
ATOM      5  N   UNL     1       4.413   2.622  19.621  0.00  0.00    +0.000 NA
ATOM      6  C   UNL     1       3.152   3.006  20.017  0.00  0.00    +0.000 A 
ATOM      7  C   UNL     1       2.100   2.234  20.533  0.00  0.00    +0.000 A 
ATOM      8  C   UNL     1       0.885   2.862  20.832  0.00  0.00    +0.000 A 
ATOM      9  C   UNL     1       0.721   4.235  20.639  0.00  0.00    +0.000 A 
ATOM     10  C   UNL     1       1.762   5.022  20.133  0.00  0.00    +0.000 A 
ATOM     11  C   UNL     1       2.962   4.369  19.827  0.00  0.00    +0.000 A 
ATOM     12  H   UNL     1       6.740   4.625  18.611  0.00  0.00    +0.000 HD
ATOM     13  H   UNL     1       6.777   2.940  18.747  0.00  0.00    +0.000 HD
ENDBRANCH   1   2
BRANCH   1  14
ATOM     14  C   UNL     1       3.859   6.208  17.295  0.00  0.00    +0.000 C 
BRANCH  14  15
ATOM     15  C   UNL     1       4.799   7.002  16.390  0.00  0.00    +0.000 C 
BRANCH  15  16
ATOM     16  N   UNL     1       5.820   6.192  15.687  0.00  0.00    +0.000 NA
BRANCH  16  17
ATOM     17  C   UNL     1       7.058   6.138  16.505  0.00  0.00    +0.000 C 
BRANCH  17  18
ATOM     18  C   UNL     1       7.713   7.466  16.906  0.00  0.00    +0.000 C 
BRANCH  18  20
ATOM     19  C   UNL     1       7.996   6.187  19.039  0.00  0.00    +0.000 C 
ATOM     20  C   UNL     1       8.077   7.560  18.388  0.00  0.00    +0.000 C 
ENDBRANCH  18  20
ENDBRANCH  17  18
ENDBRANCH  16  17
BRANCH  16  21
ATOM     21  C   UNL     1       5.299   4.830  15.422  0.00  0.00    +0.000 C 
BRANCH  21  22
ATOM     22  C   UNL     1       6.280   3.827  14.781  0.00  0.00    +0.000 C 
BRANCH  22  23
ATOM     23  C   UNL     1       6.612   4.122  13.317  0.00  0.00    +0.000 C 
ATOM     24  C   UNL     1       5.690   3.343  12.387  0.00  0.00    +0.000 C 
ENDBRANCH  22  23
ENDBRANCH  21  22
ENDBRANCH  16  21
ENDBRANCH  15  16
ENDBRANCH  14  15
ENDBRANCH   1  14
TORSDOF 10
ENDMDL
MODEL 9
REMARK VINA RESULT:      -6.2      1.845      6.172
REMARK  Name = 
REMARK  12 active torsions:
REMARK  status: ('A' for Active; 'I' for Inactive)
REMARK    1  A    between atoms: C_1  and  C_2
REMARK    2  A    between atoms: C_2  and  C_3
REMARK    3  A    between atoms: C_3  and  C_4
REMARK    4  A    between atoms: C_4  and  N_5
REMARK    5  A    between atoms: N_5  and  C_6
REMARK    6  A    between atoms: N_5  and  C_10
REMARK    7  A    between atoms: C_6  and  C_7
REMARK    8  A    between atoms: C_7  and  C_8
REMARK    9  A    between atoms: C_8  and  C_9
REMARK   10  A    between atoms: C_10  and  C_11
REMARK   11  A    between atoms: C_11  and  C_12
REMARK   12  A    between atoms: C_12  and  N_13
REMARK                            x       y       z     vdW  Elec       q    Type
REMARK                         _______ _______ _______ _____ _____    ______ ____
ROOT
ATOM      1  C   UNL     1       5.125   2.998  16.857  0.00  0.00    +0.000 C 
ENDROOT
BRANCH   1   2
ATOM      2  N   UNL     1       5.628   4.330  16.582  0.00  0.00    +0.000 N 
ATOM      3  C   UNL     1       5.603   4.990  15.377  0.00  0.00    +0.000 A 
ATOM      4  N   UNL     1       4.998   4.501  14.283  0.00  0.00    +0.000 N 
ATOM      5  N   UNL     1       6.276   6.111  15.434  0.00  0.00    +0.000 NA
ATOM      6  C   UNL     1       6.782   6.174  16.712  0.00  0.00    +0.000 A 
ATOM      7  C   UNL     1       7.621   7.134  17.298  0.00  0.00    +0.000 A 
ATOM      8  C   UNL     1       8.030   6.952  18.625  0.00  0.00    +0.000 A 
ATOM      9  C   UNL     1       7.603   5.847  19.363  0.00  0.00    +0.000 A 
ATOM     10  C   UNL     1       6.758   4.884  18.798  0.00  0.00    +0.000 A 
ATOM     11  C   UNL     1       6.375   5.079  17.465  0.00  0.00    +0.000 A 
ATOM     12  H   UNL     1       4.212   3.868  14.355  0.00  0.00    +0.000 HD
ATOM     13  H   UNL     1       4.907   5.162  13.516  0.00  0.00    +0.000 HD
ENDBRANCH   1   2
BRANCH   1  14
ATOM     14  C   UNL     1       3.957   3.062  17.837  0.00  0.00    +0.000 C 
BRANCH  14  15
ATOM     15  C   UNL     1       2.712   3.692  17.214  0.00  0.00    +0.000 C 
BRANCH  15  16
ATOM     16  N   UNL     1       1.756   4.275  18.183  0.00  0.00    +0.000 NA
BRANCH  16  17
ATOM     17  C   UNL     1       1.301   3.220  19.124  0.00  0.00    +0.000 C 
BRANCH  17  18
ATOM     18  C   UNL     1       0.860   3.652  20.529  0.00  0.00    +0.000 C 
BRANCH  18  20
ATOM     19  C   UNL     1       2.959   2.417  21.107  0.00  0.00    +0.000 C 
ATOM     20  C   UNL     1       1.680   3.031  21.659  0.00  0.00    +0.000 C 
ENDBRANCH  18  20
ENDBRANCH  17  18
ENDBRANCH  16  17
BRANCH  16  21
ATOM     21  C   UNL     1       2.388   5.400  18.912  0.00  0.00    +0.000 C 
BRANCH  21  22
ATOM     22  C   UNL     1       2.800   6.624  18.071  0.00  0.00    +0.000 C 
BRANCH  22  23
ATOM     23  C   UNL     1       2.399   7.969  18.680  0.00  0.00    +0.000 C 
ATOM     24  C   UNL     1       1.682   8.836  17.652  0.00  0.00    +0.000 C 
ENDBRANCH  22  23
ENDBRANCH  21  22
ENDBRANCH  16  21
ENDBRANCH  15  16
ENDBRANCH  14  15
ENDBRANCH   1  14
TORSDOF 10
ENDMDL
