MODEL 1
REMARK VINA RESULT:      -7.4      0.000      0.000
REMARK  Name = 
REMARK  11 active torsions:
REMARK  status: ('A' for Active; 'I' for Inactive)
REMARK    1  A    between atoms: C_1  and  O_2
REMARK    2  A    between atoms: O_2  and  C_3
REMARK    3  A    between atoms: C_3  and  C_5
REMARK    4  A    between atoms: C_8  and  C_9
REMARK    5  A    between atoms: C_9  and  O_10
REMARK    6  A    between atoms: C_9  and  C_11
REMARK    7  A    between atoms: C_14  and  C_15
REMARK    8  A    between atoms: C_14  and  C_16
REMARK    9  A    between atoms: C_18  and  N_19
REMARK   10  A    between atoms: C_20  and  C_21
REMARK   11  A    between atoms: C_23  and  N_24
REMARK                            x       y       z     vdW  Elec       q    Type
REMARK                         _______ _______ _______ _____ _____    ______ ____
ROOT
ATOM      1  C   UNL     1       5.933   5.319  16.935  0.00  0.00    +0.000 C 
ATOM      2  F   UNL     1       5.578   6.443  16.295  0.00  0.00    +0.000 F 
ATOM      3  O   UNL     1       5.923   5.763  18.268  0.00  0.00    +0.000 OA
ATOM      4  C   UNL     1       4.563   5.995  18.691  0.00  0.00    +0.000 C 
ATOM      5  C   UNL     1       3.955   4.582  18.997  0.00  0.00    +0.000 C 
ATOM      6  C   UNL     1       3.614   4.019  17.633  0.00  0.00    +0.000 C 
ATOM      7  C   UNL     1       4.924   4.148  16.726  0.00  0.00    +0.000 C 
ATOM      8  F   UNL     1       4.633   3.975  15.415  0.00  0.00    +0.000 F 
ENDROOT
BRANCH   5   9
ATOM      9  N   UNL     1       4.762   3.590  19.718  0.00  0.00    +0.000 N 
ATOM     10  C   UNL     1       4.240   2.581  20.504  0.00  0.00    +0.000 C 
ATOM     11  C   UNL     1       2.790   2.621  20.959  0.00  0.00    +0.000 C 
ATOM     12  O   UNL     1       4.951   1.602  20.760  0.00  0.00    +0.000 OA
ATOM     13  H   UNL     1       5.713   3.406  19.414  0.00  0.00    +0.000 HD
ENDBRANCH   5   9
BRANCH   6  14
ATOM     14  N   UNL     1       2.197   4.385  17.521  0.00  0.00    +0.000 NA
ATOM     15  H   UNL     1       1.645   4.494  18.381  0.00  0.00    +0.000 HD
ATOM     16  H   UNL     1       1.977   5.130  16.871  0.00  0.00    +0.000 HD
ENDBRANCH   6  14
BRANCH   1  17
ATOM     17  C   UNL     1       7.237   4.903  16.216  0.00  0.00    +0.000 C 
ATOM     18  O   UNL     1       8.082   4.114  16.624  0.00  0.00    +0.000 OA
BRANCH  17  20
ATOM     19  C   UNL     1       7.245   4.835  13.813  0.00  0.00    +0.000 C 
ATOM     20  O   UNL     1       7.282   5.581  15.023  0.00  0.00    +0.000 OA
ENDBRANCH  17  20
ENDBRANCH   1  17
BRANCH   4  21
ATOM     21  C   UNL     1       3.595   7.039  17.764  0.00  0.00    +0.000 C 
BRANCH  21  22
ATOM     22  C   UNL     1       2.239   7.889  18.169  0.00  0.00    +0.000 C 
ATOM     23  C   UNL     1       1.634   8.042  19.584  0.00  0.00    +0.000 C 
ATOM     24  O   UNL     1       1.443   9.435  19.818  0.00  0.00    +0.000 OA
ATOM     25  C   UNL     1       1.273   9.946  18.509  0.00  0.00    +0.000 C 
ATOM     26  C   UNL     1      -0.194   9.686  18.113  0.00  0.00    +0.000 C 
ATOM     27  C   UNL     1       1.561  11.433  18.525  0.00  0.00    +0.000 C 
ATOM     28  O   UNL     1       2.236   9.265  17.683  0.00  0.00    +0.000 OA
ENDBRANCH  21  22
BRANCH  21  29
ATOM     29  O   UNL     1       4.476   7.977  17.111  0.00  0.00    +0.000 OA
ATOM     30  H   UNL     1       4.721   7.641  16.231  0.00  0.00    +0.000 HD
ENDBRANCH  21  29
ENDBRANCH   4  21
TORSDOF 7
ENDMDL
MODEL 2
REMARK VINA RESULT:      -7.1      3.440      5.559
REMARK  Name = 
REMARK  11 active torsions:
REMARK  status: ('A' for Active; 'I' for Inactive)
REMARK    1  A    between atoms: C_1  and  O_2
REMARK    2  A    between atoms: O_2  and  C_3
REMARK    3  A    between atoms: C_3  and  C_5
REMARK    4  A    between atoms: C_8  and  C_9
REMARK    5  A    between atoms: C_9  and  O_10
REMARK    6  A    between atoms: C_9  and  C_11
REMARK    7  A    between atoms: C_14  and  C_15
REMARK    8  A    between atoms: C_14  and  C_16
REMARK    9  A    between atoms: C_18  and  N_19
REMARK   10  A    between atoms: C_20  and  C_21
REMARK   11  A    between atoms: C_23  and  N_24
REMARK                            x       y       z     vdW  Elec       q    Type
REMARK                         _______ _______ _______ _____ _____    ______ ____
ROOT
ATOM      1  C   UNL     1       7.104   6.922  17.757  0.00  0.00    +0.000 C 
ATOM      2  F   UNL     1       6.630   6.841  19.009  0.00  0.00    +0.000 F 
ATOM      3  O   UNL     1       7.847   5.732  17.681  0.00  0.00    +0.000 OA
ATOM      4  C   UNL     1       6.950   4.602  17.646  0.00  0.00    +0.000 C 
ATOM      5  C   UNL     1       6.397   4.530  16.180  0.00  0.00    +0.000 C 
ATOM      6  C   UNL     1       5.326   5.598  16.132  0.00  0.00    +0.000 C 
ATOM      7  C   UNL     1       5.980   6.952  16.675  0.00  0.00    +0.000 C 
ATOM      8  F   UNL     1       5.032   7.870  16.974  0.00  0.00    +0.000 F 
ENDROOT
BRANCH   5   9
ATOM      9  N   UNL     1       7.313   4.743  15.053  0.00  0.00    +0.000 N 
ATOM     10  C   UNL     1       6.988   4.517  13.729  0.00  0.00    +0.000 C 
ATOM     11  C   UNL     1       5.759   3.704  13.358  0.00  0.00    +0.000 C 
ATOM     12  O   UNL     1       7.670   5.059  12.851  0.00  0.00    +0.000 OA
ATOM     13  H   UNL     1       8.107   5.365  15.167  0.00  0.00    +0.000 HD
ENDBRANCH   5   9
BRANCH   6  14
ATOM     14  N   UNL     1       4.122   4.806  16.413  0.00  0.00    +0.000 NA
ATOM     15  H   UNL     1       3.268   4.996  15.874  0.00  0.00    +0.000 HD
ATOM     16  H   UNL     1       4.257   3.807  16.509  0.00  0.00    +0.000 HD
ENDBRANCH   6  14
BRANCH   1  17
ATOM     17  C   UNL     1       7.775   8.314  17.725  0.00  0.00    +0.000 C 
ATOM     18  O   UNL     1       7.572   9.211  16.914  0.00  0.00    +0.000 OA
BRANCH  17  20
ATOM     19  C   UNL     1       9.148   9.639  19.187  0.00  0.00    +0.000 C 
ATOM     20  O   UNL     1       8.651   8.371  18.782  0.00  0.00    +0.000 OA
ENDBRANCH  17  20
ENDBRANCH   1  17
BRANCH   4  21
ATOM     21  C   UNL     1       5.799   4.445  18.886  0.00  0.00    +0.000 C 
BRANCH  21  22
ATOM     22  C   UNL     1       4.544   3.386  19.058  0.00  0.00    +0.000 C 
ATOM     23  C   UNL     1       4.412   2.277  20.127  0.00  0.00    +0.000 C 
ATOM     24  O   UNL     1       3.139   2.433  20.749  0.00  0.00    +0.000 OA
ATOM     25  C   UNL     1       2.373   3.051  19.732  0.00  0.00    +0.000 C 
ATOM     26  C   UNL     1       1.907   1.930  18.781  0.00  0.00    +0.000 C 
ATOM     27  C   UNL     1       1.181   3.735  20.367  0.00  0.00    +0.000 C 
ATOM     28  O   UNL     1       3.234   4.026  19.115  0.00  0.00    +0.000 OA
ENDBRANCH  21  22
BRANCH  21  29
ATOM     29  O   UNL     1       6.514   4.427  20.138  0.00  0.00    +0.000 OA
ATOM     30  H   UNL     1       6.699   5.338  20.425  0.00  0.00    +0.000 HD
ENDBRANCH  21  29
ENDBRANCH   4  21
TORSDOF 7
ENDMDL
MODEL 3
REMARK VINA RESULT:      -6.9      3.160      4.970
REMARK  Name = 
REMARK  11 active torsions:
REMARK  status: ('A' for Active; 'I' for Inactive)
REMARK    1  A    between atoms: C_1  and  O_2
REMARK    2  A    between atoms: O_2  and  C_3
REMARK    3  A    between atoms: C_3  and  C_5
REMARK    4  A    between atoms: C_8  and  C_9
REMARK    5  A    between atoms: C_9  and  O_10
REMARK    6  A    between atoms: C_9  and  C_11
REMARK    7  A    between atoms: C_14  and  C_15
REMARK    8  A    between atoms: C_14  and  C_16
REMARK    9  A    between atoms: C_18  and  N_19
REMARK   10  A    between atoms: C_20  and  C_21
REMARK   11  A    between atoms: C_23  and  N_24
REMARK                            x       y       z     vdW  Elec       q    Type
REMARK                         _______ _______ _______ _____ _____    ______ ____
ROOT
ATOM      1  C   UNL     1       6.144   5.005  15.410  0.00  0.00    +0.000 C 
ATOM      2  F   UNL     1       5.349   3.929  15.491  0.00  0.00    +0.000 F 
ATOM      3  O   UNL     1       5.211   6.035  15.618  0.00  0.00    +0.000 OA
ATOM      4  C   UNL     1       4.774   6.023  16.993  0.00  0.00    +0.000 C 
ATOM      5  C   UNL     1       5.927   6.691  17.823  0.00  0.00    +0.000 C 
ATOM      6  C   UNL     1       6.965   5.599  17.965  0.00  0.00    +0.000 C 
ATOM      7  C   UNL     1       7.259   5.029  16.501  0.00  0.00    +0.000 C 
ATOM      8  F   UNL     1       7.921   3.850  16.556  0.00  0.00    +0.000 F 
ENDROOT
BRANCH   5   9
ATOM      9  N   UNL     1       6.588   7.892  17.301  0.00  0.00    +0.000 N 
ATOM     10  C   UNL     1       7.826   8.346  17.714  0.00  0.00    +0.000 C 
ATOM     11  C   UNL     1       8.457   7.821  18.994  0.00  0.00    +0.000 C 
ATOM     12  O   UNL     1       8.447   9.123  16.982  0.00  0.00    +0.000 OA
ATOM     13  H   UNL     1       6.314   8.257  16.393  0.00  0.00    +0.000 HD
ENDBRANCH   5   9
BRANCH   6  14
ATOM     14  N   UNL     1       6.612   5.042  19.277  0.00  0.00    +0.000 NA
ATOM     15  H   UNL     1       5.637   4.770  19.453  0.00  0.00    +0.000 HD
ATOM     16  H   UNL     1       7.241   4.340  19.649  0.00  0.00    +0.000 HD
ENDBRANCH   6  14
BRANCH   1  17
ATOM     17  C   UNL     1       6.865   4.809  14.056  0.00  0.00    +0.000 C 
ATOM     18  O   UNL     1       7.854   5.410  13.655  0.00  0.00    +0.000 OA
BRANCH  17  20
ATOM     19  C   UNL     1       6.650   3.459  12.078  0.00  0.00    +0.000 C 
ATOM     20  O   UNL     1       6.191   3.826  13.373  0.00  0.00    +0.000 OA
ENDBRANCH  17  20
ENDBRANCH   1  17
BRANCH   4  21
ATOM     21  C   UNL     1       4.139   4.580  17.626  0.00  0.00    +0.000 C 
BRANCH  21  22
ATOM     22  C   UNL     1       3.528   4.242  19.122  0.00  0.00    +0.000 C 
ATOM     23  C   UNL     1       2.958   5.258  20.138  0.00  0.00    +0.000 C 
ATOM     24  O   UNL     1       1.671   4.790  20.535  0.00  0.00    +0.000 OA
ATOM     25  C   UNL     1       1.783   3.391  20.353  0.00  0.00    +0.000 C 
ATOM     26  C   UNL     1       2.505   2.834  21.597  0.00  0.00    +0.000 C 
ATOM     27  C   UNL     1       0.393   2.802  20.239  0.00  0.00    +0.000 C 
ATOM     28  O   UNL     1       2.504   3.202  19.120  0.00  0.00    +0.000 OA
ENDBRANCH  21  22
BRANCH  21  29
ATOM     29  O   UNL     1       3.176   4.080  16.676  0.00  0.00    +0.000 OA
ATOM     30  H   UNL     1       3.631   3.790  15.867  0.00  0.00    +0.000 HD
ENDBRANCH  21  29
ENDBRANCH   4  21
TORSDOF 7
ENDMDL
MODEL 4
REMARK VINA RESULT:      -6.8      3.604      5.580
REMARK  Name = 
REMARK  11 active torsions:
REMARK  status: ('A' for Active; 'I' for Inactive)
REMARK    1  A    between atoms: C_1  and  O_2
REMARK    2  A    between atoms: O_2  and  C_3
REMARK    3  A    between atoms: C_3  and  C_5
REMARK    4  A    between atoms: C_8  and  C_9
REMARK    5  A    between atoms: C_9  and  O_10
REMARK    6  A    between atoms: C_9  and  C_11
REMARK    7  A    between atoms: C_14  and  C_15
REMARK    8  A    between atoms: C_14  and  C_16
REMARK    9  A    between atoms: C_18  and  N_19
REMARK   10  A    between atoms: C_20  and  C_21
REMARK   11  A    between atoms: C_23  and  N_24
REMARK                            x       y       z     vdW  Elec       q    Type
REMARK                         _______ _______ _______ _____ _____    ______ ____
ROOT
ATOM      1  C   UNL     1       7.261   6.481  18.050  0.00  0.00    +0.000 C 
ATOM      2  F   UNL     1       6.711   6.186  19.236  0.00  0.00    +0.000 F 
ATOM      3  O   UNL     1       7.787   5.229  17.688  0.00  0.00    +0.000 OA
ATOM      4  C   UNL     1       6.709   4.326  17.362  0.00  0.00    +0.000 C 
ATOM      5  C   UNL     1       6.236   4.716  15.918  0.00  0.00    +0.000 C 
ATOM      6  C   UNL     1       5.373   5.942  16.127  0.00  0.00    +0.000 C 
ATOM      7  C   UNL     1       6.223   6.979  16.997  0.00  0.00    +0.000 C 
ATOM      8  F   UNL     1       5.436   7.955  17.505  0.00  0.00    +0.000 F 
ENDROOT
BRANCH   5   9
ATOM      9  N   UNL     1       7.236   5.024  14.890  0.00  0.00    +0.000 N 
ATOM     10  C   UNL     1       7.097   4.722  13.549  0.00  0.00    +0.000 C 
ATOM     11  C   UNL     1       6.037   3.739  13.080  0.00  0.00    +0.000 C 
ATOM     12  O   UNL     1       7.795   5.331  12.729  0.00  0.00    +0.000 OA
ATOM     13  H   UNL     1       7.922   5.753  15.065  0.00  0.00    +0.000 HD
ENDBRANCH   5   9
BRANCH   6  14
ATOM     14  N   UNL     1       4.035   5.340  16.188  0.00  0.00    +0.000 NA
ATOM     15  H   UNL     1       3.637   5.112  17.108  0.00  0.00    +0.000 HD
ATOM     16  H   UNL     1       3.328   5.761  15.598  0.00  0.00    +0.000 HD
ENDBRANCH   6  14
BRANCH   1  17
ATOM     17  C   UNL     1       8.168   7.691  18.373  0.00  0.00    +0.000 C 
ATOM     18  O   UNL     1       8.916   7.814  19.335  0.00  0.00    +0.000 OA
BRANCH  17  20
ATOM     19  C   UNL     1       8.273   9.981  17.650  0.00  0.00    +0.000 C 
ATOM     20  O   UNL     1       7.985   8.617  17.374  0.00  0.00    +0.000 OA
ENDBRANCH  17  20
ENDBRANCH   1  17
BRANCH   4  21
ATOM     21  C   UNL     1       5.480   4.087  18.511  0.00  0.00    +0.000 C 
BRANCH  21  22
ATOM     22  C   UNL     1       3.948   3.498  18.337  0.00  0.00    +0.000 C 
ATOM     23  C   UNL     1       3.550   2.028  18.068  0.00  0.00    +0.000 C 
ATOM     24  O   UNL     1       2.575   1.665  19.042  0.00  0.00    +0.000 OA
ATOM     25  C   UNL     1       1.974   2.907  19.356  0.00  0.00    +0.000 C 
ATOM     26  C   UNL     1       0.940   3.196  18.249  0.00  0.00    +0.000 C 
ATOM     27  C   UNL     1       1.292   2.793  20.702  0.00  0.00    +0.000 C 
ATOM     28  O   UNL     1       3.046   3.867  19.424  0.00  0.00    +0.000 OA
ENDBRANCH  21  22
BRANCH  21  29
ATOM     29  O   UNL     1       6.062   3.373  19.621  0.00  0.00    +0.000 OA
ATOM     30  H   UNL     1       5.382   3.204  20.297  0.00  0.00    +0.000 HD
ENDBRANCH  21  29
ENDBRANCH   4  21
TORSDOF 7
ENDMDL
MODEL 5
REMARK VINA RESULT:      -6.8      2.455      6.439
REMARK  Name = 
REMARK  11 active torsions:
REMARK  status: ('A' for Active; 'I' for Inactive)
REMARK    1  A    between atoms: C_1  and  O_2
REMARK    2  A    between atoms: O_2  and  C_3
REMARK    3  A    between atoms: C_3  and  C_5
REMARK    4  A    between atoms: C_8  and  C_9
REMARK    5  A    between atoms: C_9  and  O_10
REMARK    6  A    between atoms: C_9  and  C_11
REMARK    7  A    between atoms: C_14  and  C_15
REMARK    8  A    between atoms: C_14  and  C_16
REMARK    9  A    between atoms: C_18  and  N_19
REMARK   10  A    between atoms: C_20  and  C_21
REMARK   11  A    between atoms: C_23  and  N_24
REMARK                            x       y       z     vdW  Elec       q    Type
REMARK                         _______ _______ _______ _____ _____    ______ ____
ROOT
ATOM      1  C   UNL     1       2.111   3.701  19.389  0.00  0.00    +0.000 C 
ATOM      2  F   UNL     1       2.912   2.761  18.869  0.00  0.00    +0.000 F 
ATOM      3  O   UNL     1       2.956   4.253  20.367  0.00  0.00    +0.000 OA
ATOM      4  C   UNL     1       4.010   5.003  19.729  0.00  0.00    +0.000 C 
ATOM      5  C   UNL     1       3.371   6.368  19.292  0.00  0.00    +0.000 C 
ATOM      6  C   UNL     1       2.609   6.035  18.027  0.00  0.00    +0.000 C 
ATOM      7  C   UNL     1       1.673   4.780  18.351  0.00  0.00    +0.000 C 
ATOM      8  F   UNL     1       1.203   4.212  17.217  0.00  0.00    +0.000 F 
ENDROOT
BRANCH   5   9
ATOM      9  N   UNL     1       2.461   7.064  20.209  0.00  0.00    +0.000 N 
ATOM     10  C   UNL     1       1.729   8.188  19.880  0.00  0.00    +0.000 C 
ATOM     11  C   UNL     1       2.064   8.998  18.638  0.00  0.00    +0.000 C 
ATOM     12  O   UNL     1       0.743   8.476  20.568  0.00  0.00    +0.000 OA
ATOM     13  H   UNL     1       2.088   6.568  21.013  0.00  0.00    +0.000 HD
ENDBRANCH   5   9
BRANCH   6  14
ATOM     14  N   UNL     1       3.594   6.395  16.999  0.00  0.00    +0.000 NA
ATOM     15  H   UNL     1       4.001   5.649  16.421  0.00  0.00    +0.000 HD
ATOM     16  H   UNL     1       3.367   7.196  16.423  0.00  0.00    +0.000 HD
ENDBRANCH   6  14
BRANCH   1  17
ATOM     17  C   UNL     1       0.834   2.910  19.758  0.00  0.00    +0.000 C 
ATOM     18  O   UNL     1       0.108   2.287  18.992  0.00  0.00    +0.000 OA
BRANCH  17  20
ATOM     19  C   UNL     1       1.521   2.304  21.980  0.00  0.00    +0.000 C 
ATOM     20  O   UNL     1       0.657   3.028  21.115  0.00  0.00    +0.000 OA
ENDBRANCH  17  20
ENDBRANCH   1  17
BRANCH   4  21
ATOM     21  C   UNL     1       4.967   4.221  18.563  0.00  0.00    +0.000 C 
BRANCH  21  22
ATOM     22  C   UNL     1       5.928   4.840  17.372  0.00  0.00    +0.000 C 
ATOM     23  C   UNL     1       7.461   4.682  17.247  0.00  0.00    +0.000 C 
ATOM     24  O   UNL     1       7.736   4.208  15.931  0.00  0.00    +0.000 OA
ATOM     25  C   UNL     1       6.637   4.703  15.190  0.00  0.00    +0.000 C 
ATOM     26  C   UNL     1       6.948   6.177  14.857  0.00  0.00    +0.000 C 
ATOM     27  C   UNL     1       6.501   3.891  13.919  0.00  0.00    +0.000 C 
ATOM     28  O   UNL     1       5.475   4.520  16.021  0.00  0.00    +0.000 OA
ENDBRANCH  21  22
BRANCH  21  29
ATOM     29  O   UNL     1       5.764   3.235  19.251  0.00  0.00    +0.000 OA
ATOM     30  H   UNL     1       6.513   3.670  19.696  0.00  0.00    +0.000 HD
ENDBRANCH  21  29
ENDBRANCH   4  21
TORSDOF 7
ENDMDL
MODEL 6
REMARK VINA RESULT:      -6.5      3.298      4.991
REMARK  Name = 
REMARK  11 active torsions:
REMARK  status: ('A' for Active; 'I' for Inactive)
REMARK    1  A    between atoms: C_1  and  O_2
REMARK    2  A    between atoms: O_2  and  C_3
REMARK    3  A    between atoms: C_3  and  C_5
REMARK    4  A    between atoms: C_8  and  C_9
REMARK    5  A    between atoms: C_9  and  O_10
REMARK    6  A    between atoms: C_9  and  C_11
REMARK    7  A    between atoms: C_14  and  C_15
REMARK    8  A    between atoms: C_14  and  C_16
REMARK    9  A    between atoms: C_18  and  N_19
REMARK   10  A    between atoms: C_20  and  C_21
REMARK   11  A    between atoms: C_23  and  N_24
REMARK                            x       y       z     vdW  Elec       q    Type
REMARK                         _______ _______ _______ _____ _____    ______ ____
ROOT
ATOM      1  C   UNL     1       6.194   4.993  15.248  0.00  0.00    +0.000 C 
ATOM      2  F   UNL     1       5.388   3.923  15.183  0.00  0.00    +0.000 F 
ATOM      3  O   UNL     1       5.248   6.023  15.390  0.00  0.00    +0.000 OA
ATOM      4  C   UNL     1       4.649   5.954  16.700  0.00  0.00    +0.000 C 
ATOM      5  C   UNL     1       5.697   6.570  17.692  0.00  0.00    +0.000 C 
ATOM      6  C   UNL     1       6.704   5.462  17.908  0.00  0.00    +0.000 C 
ATOM      7  C   UNL     1       7.169   4.955  16.465  0.00  0.00    +0.000 C 
ATOM      8  F   UNL     1       7.812   3.767  16.545  0.00  0.00    +0.000 F 
ENDROOT
BRANCH   5   9
ATOM      9  N   UNL     1       6.423   7.787  17.309  0.00  0.00    +0.000 N 
ATOM     10  C   UNL     1       7.696   8.106  17.741  0.00  0.00    +0.000 C 
ATOM     11  C   UNL     1       8.320   7.381  18.922  0.00  0.00    +0.000 C 
ATOM     12  O   UNL     1       8.351   8.933  17.095  0.00  0.00    +0.000 OA
ATOM     13  H   UNL     1       6.153   8.283  16.464  0.00  0.00    +0.000 HD
ENDBRANCH   5   9
BRANCH   6  14
ATOM     14  N   UNL     1       6.193   4.850  19.141  0.00  0.00    +0.000 NA
ATOM     15  H   UNL     1       6.866   4.494  19.832  0.00  0.00    +0.000 HD
ATOM     16  H   UNL     1       5.444   5.345  19.609  0.00  0.00    +0.000 HD
ENDBRANCH   6  14
BRANCH   1  17
ATOM     17  C   UNL     1       7.071   4.850  13.983  0.00  0.00    +0.000 C 
ATOM     18  O   UNL     1       7.990   5.583  13.638  0.00  0.00    +0.000 OA
BRANCH  17  20
ATOM     19  C   UNL     1       6.796   3.693  11.893  0.00  0.00    +0.000 C 
ATOM     20  O   UNL     1       6.632   3.738  13.305  0.00  0.00    +0.000 OA
ENDBRANCH  17  20
ENDBRANCH   1  17
BRANCH   4  21
ATOM     21  C   UNL     1       3.934   4.491  17.185  0.00  0.00    +0.000 C 
BRANCH  21  22
ATOM     22  C   UNL     1       2.764   4.189  18.311  0.00  0.00    +0.000 C 
ATOM     23  C   UNL     1       1.657   3.113  18.226  0.00  0.00    +0.000 C 
ATOM     24  O   UNL     1       1.701   2.360  19.436  0.00  0.00    +0.000 OA
ATOM     25  C   UNL     1       2.235   3.291  20.359  0.00  0.00    +0.000 C 
ATOM     26  C   UNL     1       1.068   4.189  20.815  0.00  0.00    +0.000 C 
ATOM     27  C   UNL     1       2.812   2.534  21.537  0.00  0.00    +0.000 C 
ATOM     28  O   UNL     1       3.281   3.994  19.662  0.00  0.00    +0.000 OA
ENDBRANCH  21  22
BRANCH  21  29
ATOM     29  O   UNL     1       3.531   3.792  15.990  0.00  0.00    +0.000 OA
ATOM     30  H   UNL     1       3.880   2.883  16.006  0.00  0.00    +0.000 HD
ENDBRANCH  21  29
ENDBRANCH   4  21
TORSDOF 7
ENDMDL
MODEL 7
REMARK VINA RESULT:      -6.5      1.189      1.574
REMARK  Name = 
REMARK  11 active torsions:
REMARK  status: ('A' for Active; 'I' for Inactive)
REMARK    1  A    between atoms: C_1  and  O_2
REMARK    2  A    between atoms: O_2  and  C_3
REMARK    3  A    between atoms: C_3  and  C_5
REMARK    4  A    between atoms: C_8  and  C_9
REMARK    5  A    between atoms: C_9  and  O_10
REMARK    6  A    between atoms: C_9  and  C_11
REMARK    7  A    between atoms: C_14  and  C_15
REMARK    8  A    between atoms: C_14  and  C_16
REMARK    9  A    between atoms: C_18  and  N_19
REMARK   10  A    between atoms: C_20  and  C_21
REMARK   11  A    between atoms: C_23  and  N_24
REMARK                            x       y       z     vdW  Elec       q    Type
REMARK                         _______ _______ _______ _____ _____    ______ ____
ROOT
ATOM      1  C   UNL     1       5.309   5.152  17.797  0.00  0.00    +0.000 C 
ATOM      2  F   UNL     1       5.134   6.278  17.091  0.00  0.00    +0.000 F 
ATOM      3  O   UNL     1       5.158   5.640  19.106  0.00  0.00    +0.000 OA
ATOM      4  C   UNL     1       3.778   5.990  19.338  0.00  0.00    +0.000 C 
ATOM      5  C   UNL     1       3.022   4.639  19.590  0.00  0.00    +0.000 C 
ATOM      6  C   UNL     1       2.820   4.060  18.206  0.00  0.00    +0.000 C 
ATOM      7  C   UNL     1       4.245   4.056  17.480  0.00  0.00    +0.000 C 
ATOM      8  F   UNL     1       4.116   3.864  16.147  0.00  0.00    +0.000 F 
ENDROOT
BRANCH   5   9
ATOM      9  N   UNL     1       3.643   3.612  20.435  0.00  0.00    +0.000 N 
ATOM     10  C   UNL     1       2.944   2.739  21.246  0.00  0.00    +0.000 C 
ATOM     11  C   UNL     1       1.485   2.996  21.588  0.00  0.00    +0.000 C 
ATOM     12  O   UNL     1       3.502   1.702  21.620  0.00  0.00    +0.000 OA
ATOM     13  H   UNL     1       4.580   3.287  20.216  0.00  0.00    +0.000 HD
ENDBRANCH   5   9
BRANCH   6  14
ATOM     14  N   UNL     1       1.465   4.531  17.896  0.00  0.00    +0.000 NA
ATOM     15  H   UNL     1       1.354   5.404  17.365  0.00  0.00    +0.000 HD
ATOM     16  H   UNL     1       0.815   3.832  17.556  0.00  0.00    +0.000 HD
ENDBRANCH   6  14
BRANCH   1  17
ATOM     17  C   UNL     1       6.659   4.613  17.270  0.00  0.00    +0.000 C 
ATOM     18  O   UNL     1       6.954   4.382  16.103  0.00  0.00    +0.000 OA
BRANCH  17  20
ATOM     19  C   UNL     1       8.087   5.581  18.943  0.00  0.00    +0.000 C 
ATOM     20  O   UNL     1       7.481   4.437  18.356  0.00  0.00    +0.000 OA
ENDBRANCH  17  20
ENDBRANCH   1  17
BRANCH   4  21
ATOM     21  C   UNL     1       3.029   7.075  18.265  0.00  0.00    +0.000 C 
BRANCH  21  22
ATOM     22  C   UNL     1       1.788   8.137  18.506  0.00  0.00    +0.000 C 
ATOM     23  C   UNL     1       1.154   8.524  19.862  0.00  0.00    +0.000 C 
ATOM     24  O   UNL     1       1.147   9.947  19.939  0.00  0.00    +0.000 OA
ATOM     25  C   UNL     1       1.104  10.330  18.577  0.00  0.00    +0.000 C 
ATOM     26  C   UNL     1      -0.368  10.224  18.130  0.00  0.00    +0.000 C 
ATOM     27  C   UNL     1       1.593  11.757  18.456  0.00  0.00    +0.000 C 
ATOM     28  O   UNL     1       1.996   9.439  17.880  0.00  0.00    +0.000 OA
ENDBRANCH  21  22
BRANCH  21  29
ATOM     29  O   UNL     1       4.074   7.820  17.608  0.00  0.00    +0.000 OA
ATOM     30  H   UNL     1       3.903   7.853  16.650  0.00  0.00    +0.000 HD
ENDBRANCH  21  29
ENDBRANCH   4  21
TORSDOF 7
ENDMDL
MODEL 8
REMARK VINA RESULT:      -6.5      8.517     11.353
REMARK  Name = 
REMARK  11 active torsions:
REMARK  status: ('A' for Active; 'I' for Inactive)
REMARK    1  A    between atoms: C_1  and  O_2
REMARK    2  A    between atoms: O_2  and  C_3
REMARK    3  A    between atoms: C_3  and  C_5
REMARK    4  A    between atoms: C_8  and  C_9
REMARK    5  A    between atoms: C_9  and  O_10
REMARK    6  A    between atoms: C_9  and  C_11
REMARK    7  A    between atoms: C_14  and  C_15
REMARK    8  A    between atoms: C_14  and  C_16
REMARK    9  A    between atoms: C_18  and  N_19
REMARK   10  A    between atoms: C_20  and  C_21
REMARK   11  A    between atoms: C_23  and  N_24
REMARK                            x       y       z     vdW  Elec       q    Type
REMARK                         _______ _______ _______ _____ _____    ______ ____
ROOT
ATOM      1  C   UNL     1      -0.807  12.468  21.185  0.00  0.00    +0.000 C 
ATOM      2  F   UNL     1      -1.641  12.017  20.237  0.00  0.00    +0.000 F 
ATOM      3  O   UNL     1      -1.126  13.836  21.183  0.00  0.00    +0.000 OA
ATOM      4  C   UNL     1      -2.439  14.029  21.749  0.00  0.00    +0.000 C 
ATOM      5  C   UNL     1      -2.265  13.915  23.304  0.00  0.00    +0.000 C 
ATOM      6  C   UNL     1      -2.186  12.425  23.562  0.00  0.00    +0.000 C 
ATOM      7  C   UNL     1      -1.068  11.832  22.586  0.00  0.00    +0.000 C 
ATOM      8  F   UNL     1      -1.148  10.484  22.509  0.00  0.00    +0.000 F 
ENDROOT
BRANCH   5   9
ATOM      9  N   UNL     1      -1.115  14.558  23.950  0.00  0.00    +0.000 N 
ATOM     10  C   UNL     1      -1.206  15.438  25.011  0.00  0.00    +0.000 C 
ATOM     11  C   UNL     1      -2.535  16.075  25.380  0.00  0.00    +0.000 C 
ATOM     12  O   UNL     1      -0.203  15.632  25.707  0.00  0.00    +0.000 OA
ATOM     13  H   UNL     1      -0.194  14.140  23.857  0.00  0.00    +0.000 HD
ENDBRANCH   5   9
BRANCH   6  14
ATOM     14  N   UNL     1      -3.583  12.121  23.895  0.00  0.00    +0.000 NA
ATOM     15  H   UNL     1      -3.820  11.892  24.869  0.00  0.00    +0.000 HD
ATOM     16  H   UNL     1      -4.282  12.741  23.505  0.00  0.00    +0.000 HD
ENDBRANCH   6  14
BRANCH   1  17
ATOM     17  C   UNL     1       0.571  11.943  20.720  0.00  0.00    +0.000 C 
ATOM     18  O   UNL     1       0.783  11.029  19.931  0.00  0.00    +0.000 OA
BRANCH  17  20
ATOM     19  C   UNL     1       2.259  13.650  20.593  0.00  0.00    +0.000 C 
ATOM     20  O   UNL     1       1.530  12.695  21.354  0.00  0.00    +0.000 OA
ENDBRANCH  17  20
ENDBRANCH   1  17
BRANCH   4  21
ATOM     21  C   UNL     1      -3.741  13.168  21.078  0.00  0.00    +0.000 C 
BRANCH  21  22
ATOM     22  C   UNL     1      -5.318  13.064  21.556  0.00  0.00    +0.000 C 
ATOM     23  C   UNL     1      -6.511  13.866  20.985  0.00  0.00    +0.000 C 
ATOM     24  O   UNL     1      -7.529  12.930  20.640  0.00  0.00    +0.000 OA
ATOM     25  C   UNL     1      -7.274  11.856  21.526  0.00  0.00    +0.000 C 
ATOM     26  C   UNL     1      -7.908  12.233  22.880  0.00  0.00    +0.000 C 
ATOM     27  C   UNL     1      -7.916  10.603  20.971  0.00  0.00    +0.000 C 
ATOM     28  O   UNL     1      -5.842  11.701  21.569  0.00  0.00    +0.000 OA
ENDBRANCH  21  22
BRANCH  21  29
ATOM     29  O   UNL     1      -3.768  13.458  19.666  0.00  0.00    +0.000 OA
ATOM     30  H   UNL     1      -3.125  14.159  19.461  0.00  0.00    +0.000 HD
ENDBRANCH  21  29
ENDBRANCH   4  21
TORSDOF 7
ENDMDL
MODEL 9
REMARK VINA RESULT:      -6.4      0.864      1.108
REMARK  Name = 
REMARK  11 active torsions:
REMARK  status: ('A' for Active; 'I' for Inactive)
REMARK    1  A    between atoms: C_1  and  O_2
REMARK    2  A    between atoms: O_2  and  C_3
REMARK    3  A    between atoms: C_3  and  C_5
REMARK    4  A    between atoms: C_8  and  C_9
REMARK    5  A    between atoms: C_9  and  O_10
REMARK    6  A    between atoms: C_9  and  C_11
REMARK    7  A    between atoms: C_14  and  C_15
REMARK    8  A    between atoms: C_14  and  C_16
REMARK    9  A    between atoms: C_18  and  N_19
REMARK   10  A    between atoms: C_20  and  C_21
REMARK   11  A    between atoms: C_23  and  N_24
REMARK                            x       y       z     vdW  Elec       q    Type
REMARK                         _______ _______ _______ _____ _____    ______ ____
ROOT
ATOM      1  C   UNL     1       5.777   5.657  17.328  0.00  0.00    +0.000 C 
ATOM      2  F   UNL     1       5.299   6.799  16.814  0.00  0.00    +0.000 F 
ATOM      3  O   UNL     1       5.596   5.893  18.701  0.00  0.00    +0.000 OA
ATOM      4  C   UNL     1       4.189   5.859  19.018  0.00  0.00    +0.000 C 
ATOM      5  C   UNL     1       3.790   4.342  19.069  0.00  0.00    +0.000 C 
ATOM      6  C   UNL     1       3.647   3.945  17.616  0.00  0.00    +0.000 C 
ATOM      7  C   UNL     1       4.985   4.395  16.866  0.00  0.00    +0.000 C 
ATOM      8  F   UNL     1       4.824   4.378  15.522  0.00  0.00    +0.000 F 
ENDROOT
BRANCH   5   9
ATOM      9  N   UNL     1       4.687   3.383  19.725  0.00  0.00    +0.000 N 
ATOM     10  C   UNL     1       4.274   2.409  20.613  0.00  0.00    +0.000 C 
ATOM     11  C   UNL     1       2.893   2.469  21.245  0.00  0.00    +0.000 C 
ATOM     12  O   UNL     1       5.016   1.442  20.820  0.00  0.00    +0.000 OA
ATOM     13  H   UNL     1       5.594   3.186  19.312  0.00  0.00    +0.000 HD
ENDBRANCH   5   9
BRANCH   6  14
ATOM     14  N   UNL     1       2.202   4.113  17.417  0.00  0.00    +0.000 NA
ATOM     15  H   UNL     1       1.811   3.960  16.479  0.00  0.00    +0.000 HD
ATOM     16  H   UNL     1       1.602   3.692  18.116  0.00  0.00    +0.000 HD
ENDBRANCH   6  14
BRANCH   1  17
ATOM     17  C   UNL     1       7.182   5.546  16.690  0.00  0.00    +0.000 C 
ATOM     18  O   UNL     1       7.801   4.517  16.449  0.00  0.00    +0.000 OA
BRANCH  17  20
ATOM     19  C   UNL     1       7.943   7.663  17.538  0.00  0.00    +0.000 C 
ATOM     20  O   UNL     1       7.618   6.824  16.437  0.00  0.00    +0.000 OA
ENDBRANCH  17  20
ENDBRANCH   1  17
BRANCH   4  21
ATOM     21  C   UNL     1       3.141   6.877  18.150  0.00  0.00    +0.000 C 
BRANCH  21  22
ATOM     22  C   UNL     1       1.886   7.817  18.666  0.00  0.00    +0.000 C 
ATOM     23  C   UNL     1       1.486   8.098  20.133  0.00  0.00    +0.000 C 
ATOM     24  O   UNL     1       1.381   9.511  20.284  0.00  0.00    +0.000 OA
ATOM     25  C   UNL     1       1.055   9.937  18.974  0.00  0.00    +0.000 C 
ATOM     26  C   UNL     1      -0.462   9.720  18.797  0.00  0.00    +0.000 C 
ATOM     27  C   UNL     1       1.399  11.406  18.839  0.00  0.00    +0.000 C 
ATOM     28  O   UNL     1       1.870   9.154  18.081  0.00  0.00    +0.000 OA
ENDBRANCH  21  22
BRANCH  21  29
ATOM     29  O   UNL     1       3.957   7.721  17.312  0.00  0.00    +0.000 OA
ATOM     30  H   UNL     1       4.882   7.687  17.611  0.00  0.00    +0.000 HD
ENDBRANCH  21  29
ENDBRANCH   4  21
TORSDOF 7
ENDMDL
