MODEL 1
REMARK VINA RESULT:      -7.7      0.000      0.000
REMARK  Name = 
REMARK  8 active torsions:
REMARK  status: ('A' for Active; 'I' for Inactive)
REMARK    1  A    between atoms: C_1  and  C_2
REMARK    2  A    between atoms: C_2  and  C_3
REMARK    3  A    between atoms: C_3  and  O_4
REMARK    4  A    between atoms: O_4  and  C_5
REMARK    5  A    between atoms: C_8  and  O_9
REMARK    6  A    between atoms: O_9  and  S_10
REMARK    7  A    between atoms: S_10  and  C_13
REMARK    8  A    between atoms: C_16  and  N_17
REMARK                            x       y       z     vdW  Elec       q    Type
REMARK                         _______ _______ _______ _____ _____    ______ ____
ROOT
ATOM      1  S   UNL     1       7.052   6.399  17.211  0.00  0.00    +0.000 S 
ATOM      2  O   UNL     1       7.962   6.802  18.266  0.00  0.00    +0.000 OA
ATOM      3  O   UNL     1       6.490   7.371  16.293  0.00  0.00    +0.000 OA
ENDROOT
BRANCH   1   4
ATOM      4  C   UNL     1       5.674   5.660  18.057  0.00  0.00    +0.000 A 
ATOM      5  C   UNL     1       4.392   6.200  18.019  0.00  0.00    +0.000 A 
ATOM      6  C   UNL     1       3.341   5.512  18.649  0.00  0.00    +0.000 A 
ATOM      7  C   UNL     1       3.557   4.293  19.313  0.00  0.00    +0.000 A 
ATOM      8  C   UNL     1       4.864   3.784  19.339  0.00  0.00    +0.000 A 
ATOM      9  C   UNL     1       5.916   4.457  18.719  0.00  0.00    +0.000 A 
BRANCH   7  10
ATOM     10  N   UNL     1       2.509   3.582  19.948  0.00  0.00    +0.000 N 
ATOM     11  C   UNL     1       2.573   3.122  21.321  0.00  0.00    +0.000 C 
ATOM     12  C   UNL     1       1.139   2.739  21.641  0.00  0.00    +0.000 C 
ATOM     13  N   UNL     1       0.581   2.470  20.351  0.00  0.00    +0.000 N 
ATOM     14  C   UNL     1       1.316   3.122  19.359  0.00  0.00    +0.000 C 
ATOM     15  O   UNL     1       0.911   3.235  18.217  0.00  0.00    +0.000 OA
ATOM     16  H   UNL     1      -0.383   2.234  20.159  0.00  0.00    +0.000 HD
ENDBRANCH   7  10
ENDBRANCH   1   4
BRANCH   1  17
ATOM     17  O   UNL     1       7.720   5.198  16.332  0.00  0.00    +0.000 OA
BRANCH  17  21
ATOM     18  C   UNL     1       6.110   3.879  12.716  0.00  0.00    +0.000 A 
ATOM     19  C   UNL     1       5.505   3.611  13.948  0.00  0.00    +0.000 A 
ATOM     20  C   UNL     1       6.057   4.096  15.132  0.00  0.00    +0.000 A 
ATOM     21  C   UNL     1       7.226   4.850  15.102  0.00  0.00    +0.000 A 
ATOM     22  C   UNL     1       7.801   5.180  13.874  0.00  0.00    +0.000 A 
ATOM     23  C   UNL     1       7.251   4.681  12.686  0.00  0.00    +0.000 A 
BRANCH  18  24
ATOM     24  O   UNL     1       5.676   3.405  11.502  0.00  0.00    +0.000 OA
BRANCH  24  25
ATOM     25  C   UNL     1       5.329   2.020  11.498  0.00  0.00    +0.000 C 
BRANCH  25  27
ATOM     26  C   UNL     1       6.155  -0.316  11.279  0.00  0.00    +0.000 C 
ATOM     27  C   UNL     1       6.530   1.153  11.141  0.00  0.00    +0.000 C 
ENDBRANCH  25  27
ENDBRANCH  24  25
ENDBRANCH  18  24
ENDBRANCH  17  21
ENDBRANCH   1  17
TORSDOF 7
ENDMDL
MODEL 2
REMARK VINA RESULT:      -7.6      1.140      1.738
REMARK  Name = 
REMARK  8 active torsions:
REMARK  status: ('A' for Active; 'I' for Inactive)
REMARK    1  A    between atoms: C_1  and  C_2
REMARK    2  A    between atoms: C_2  and  C_3
REMARK    3  A    between atoms: C_3  and  O_4
REMARK    4  A    between atoms: O_4  and  C_5
REMARK    5  A    between atoms: C_8  and  O_9
REMARK    6  A    between atoms: O_9  and  S_10
REMARK    7  A    between atoms: S_10  and  C_13
REMARK    8  A    between atoms: C_16  and  N_17
REMARK                            x       y       z     vdW  Elec       q    Type
REMARK                         _______ _______ _______ _____ _____    ______ ____
ROOT
ATOM      1  S   UNL     1       6.893   6.441  17.187  0.00  0.00    +0.000 S 
ATOM      2  O   UNL     1       7.761   6.955  18.229  0.00  0.00    +0.000 OA
ATOM      3  O   UNL     1       6.293   7.325  16.207  0.00  0.00    +0.000 OA
ENDROOT
BRANCH   1   4
ATOM      4  C   UNL     1       5.545   5.674  18.056  0.00  0.00    +0.000 A 
ATOM      5  C   UNL     1       4.275   6.238  18.119  0.00  0.00    +0.000 A 
ATOM      6  C   UNL     1       3.243   5.530  18.758  0.00  0.00    +0.000 A 
ATOM      7  C   UNL     1       3.467   4.267  19.333  0.00  0.00    +0.000 A 
ATOM      8  C   UNL     1       4.763   3.734  19.259  0.00  0.00    +0.000 A 
ATOM      9  C   UNL     1       5.795   4.427  18.627  0.00  0.00    +0.000 A 
BRANCH   7  10
ATOM     10  N   UNL     1       2.438   3.536  19.976  0.00  0.00    +0.000 N 
ATOM     11  C   UNL     1       2.532   3.057  21.341  0.00  0.00    +0.000 C 
ATOM     12  C   UNL     1       1.108   2.654  21.680  0.00  0.00    +0.000 C 
ATOM     13  N   UNL     1       0.530   2.397  20.397  0.00  0.00    +0.000 N 
ATOM     14  C   UNL     1       1.240   3.070  19.401  0.00  0.00    +0.000 C 
ATOM     15  O   UNL     1       0.814   3.195  18.268  0.00  0.00    +0.000 OA
ATOM     16  H   UNL     1      -0.435   2.152  20.219  0.00  0.00    +0.000 HD
ENDBRANCH   7  10
ENDBRANCH   1   4
BRANCH   1  17
ATOM     17  O   UNL     1       7.643   5.232  16.389  0.00  0.00    +0.000 OA
BRANCH  17  21
ATOM     18  C   UNL     1       6.018   3.712  12.859  0.00  0.00    +0.000 A 
ATOM     19  C   UNL     1       7.151   4.531  12.869  0.00  0.00    +0.000 A 
ATOM     20  C   UNL     1       7.683   4.993  14.073  0.00  0.00    +0.000 A 
ATOM     21  C   UNL     1       7.084   4.649  15.281  0.00  0.00    +0.000 A 
ATOM     22  C   UNL     1       5.994   3.778  15.285  0.00  0.00    +0.000 A 
ATOM     23  C   UNL     1       5.454   3.325  14.074  0.00  0.00    +0.000 A 
BRANCH  18  24
ATOM     24  O   UNL     1       5.388   3.249  11.728  0.00  0.00    +0.000 OA
BRANCH  24  25
ATOM     25  C   UNL     1       4.011   3.611  11.629  0.00  0.00    +0.000 C 
BRANCH  25  27
ATOM     26  C   UNL     1       2.828   4.346   9.567  0.00  0.00    +0.000 C 
ATOM     27  C   UNL     1       3.415   3.150  10.305  0.00  0.00    +0.000 C 
ENDBRANCH  25  27
ENDBRANCH  24  25
ENDBRANCH  18  24
ENDBRANCH  17  21
ENDBRANCH   1  17
TORSDOF 7
ENDMDL
MODEL 3
REMARK VINA RESULT:      -7.5      4.547      6.091
REMARK  Name = 
REMARK  8 active torsions:
REMARK  status: ('A' for Active; 'I' for Inactive)
REMARK    1  A    between atoms: C_1  and  C_2
REMARK    2  A    between atoms: C_2  and  C_3
REMARK    3  A    between atoms: C_3  and  O_4
REMARK    4  A    between atoms: O_4  and  C_5
REMARK    5  A    between atoms: C_8  and  O_9
REMARK    6  A    between atoms: O_9  and  S_10
REMARK    7  A    between atoms: S_10  and  C_13
REMARK    8  A    between atoms: C_16  and  N_17
REMARK                            x       y       z     vdW  Elec       q    Type
REMARK                         _______ _______ _______ _____ _____    ______ ____
ROOT
ATOM      1  S   UNL     1       2.887   5.560  19.473  0.00  0.00    +0.000 S 
ATOM      2  O   UNL     1       2.439   4.850  18.290  0.00  0.00    +0.000 OA
ATOM      3  O   UNL     1       2.508   5.119  20.801  0.00  0.00    +0.000 OA
ENDROOT
BRANCH   1   4
ATOM      4  C   UNL     1       2.234   7.203  19.289  0.00  0.00    +0.000 A 
ATOM      5  C   UNL     1       2.196   7.863  18.065  0.00  0.00    +0.000 A 
ATOM      6  C   UNL     1       1.591   9.130  17.989  0.00  0.00    +0.000 A 
ATOM      7  C   UNL     1       1.024   9.740  19.120  0.00  0.00    +0.000 A 
ATOM      8  C   UNL     1       1.089   9.049  20.340  0.00  0.00    +0.000 A 
ATOM      9  C   UNL     1       1.687   7.793  20.428  0.00  0.00    +0.000 A 
BRANCH   7  10
ATOM     10  N   UNL     1       0.404  11.013  19.061  0.00  0.00    +0.000 N 
ATOM     11  C   UNL     1      -1.028  11.209  19.170  0.00  0.00    +0.000 C 
ATOM     12  C   UNL     1      -1.171  12.704  19.393  0.00  0.00    +0.000 C 
ATOM     13  N   UNL     1       0.033  13.232  18.829  0.00  0.00    +0.000 N 
ATOM     14  C   UNL     1       1.023  12.248  18.793  0.00  0.00    +0.000 C 
ATOM     15  O   UNL     1       2.192  12.508  18.574  0.00  0.00    +0.000 OA
ATOM     16  H   UNL     1       0.318  14.202  18.840  0.00  0.00    +0.000 HD
ENDBRANCH   7  10
ENDBRANCH   1   4
BRANCH   1  17
ATOM     17  O   UNL     1       4.509   5.727  19.436  0.00  0.00    +0.000 OA
BRANCH  17  21
ATOM     18  C   UNL     1       6.903   5.310  16.045  0.00  0.00    +0.000 A 
ATOM     19  C   UNL     1       7.061   4.504  17.176  0.00  0.00    +0.000 A 
ATOM     20  C   UNL     1       6.220   4.653  18.278  0.00  0.00    +0.000 A 
ATOM     21  C   UNL     1       5.215   5.616  18.267  0.00  0.00    +0.000 A 
ATOM     22  C   UNL     1       5.006   6.378  17.117  0.00  0.00    +0.000 A 
ATOM     23  C   UNL     1       5.860   6.235  16.015  0.00  0.00    +0.000 A 
BRANCH  18  24
ATOM     24  O   UNL     1       7.709   5.276  14.932  0.00  0.00    +0.000 OA
BRANCH  24  25
ATOM     25  C   UNL     1       7.018   5.019  13.709  0.00  0.00    +0.000 C 
BRANCH  25  27
ATOM     26  C   UNL     1       5.713   3.368  12.383  0.00  0.00    +0.000 C 
ATOM     27  C   UNL     1       6.311   3.670  13.750  0.00  0.00    +0.000 C 
ENDBRANCH  25  27
ENDBRANCH  24  25
ENDBRANCH  18  24
ENDBRANCH  17  21
ENDBRANCH   1  17
TORSDOF 7
ENDMDL
MODEL 4
REMARK VINA RESULT:      -7.4      4.764      6.143
REMARK  Name = 
REMARK  8 active torsions:
REMARK  status: ('A' for Active; 'I' for Inactive)
REMARK    1  A    between atoms: C_1  and  C_2
REMARK    2  A    between atoms: C_2  and  C_3
REMARK    3  A    between atoms: C_3  and  O_4
REMARK    4  A    between atoms: O_4  and  C_5
REMARK    5  A    between atoms: C_8  and  O_9
REMARK    6  A    between atoms: O_9  and  S_10
REMARK    7  A    between atoms: S_10  and  C_13
REMARK    8  A    between atoms: C_16  and  N_17
REMARK                            x       y       z     vdW  Elec       q    Type
REMARK                         _______ _______ _______ _____ _____    ______ ____
ROOT
ATOM      1  S   UNL     1       2.687   5.606  19.658  0.00  0.00    +0.000 S 
ATOM      2  O   UNL     1       2.105   4.976  18.488  0.00  0.00    +0.000 OA
ATOM      3  O   UNL     1       2.430   5.097  20.990  0.00  0.00    +0.000 OA
ENDROOT
BRANCH   1   4
ATOM      4  C   UNL     1       2.066   7.271  19.632  0.00  0.00    +0.000 A 
ATOM      5  C   UNL     1       2.083   8.061  18.487  0.00  0.00    +0.000 A 
ATOM      6  C   UNL     1       1.500   9.339  18.529  0.00  0.00    +0.000 A 
ATOM      7  C   UNL     1       0.901   9.834  19.700  0.00  0.00    +0.000 A 
ATOM      8  C   UNL     1       0.910   9.013  20.837  0.00  0.00    +0.000 A 
ATOM      9  C   UNL     1       1.486   7.743  20.809  0.00  0.00    +0.000 A 
BRANCH   7  10
ATOM     10  N   UNL     1       0.302  11.116  19.759  0.00  0.00    +0.000 N 
ATOM     11  C   UNL     1      -0.860  11.492  18.978  0.00  0.00    +0.000 C 
ATOM     12  C   UNL     1      -1.319  12.790  19.617  0.00  0.00    +0.000 C 
ATOM     13  N   UNL     1      -0.128  13.285  20.237  0.00  0.00    +0.000 N 
ATOM     14  C   UNL     1       0.767  12.239  20.470  0.00  0.00    +0.000 C 
ATOM     15  O   UNL     1       1.743  12.364  21.186  0.00  0.00    +0.000 OA
ATOM     16  H   UNL     1      -0.058  14.115  20.810  0.00  0.00    +0.000 HD
ENDBRANCH   7  10
ENDBRANCH   1   4
BRANCH   1  17
ATOM     17  O   UNL     1       4.302   5.738  19.468  0.00  0.00    +0.000 OA
BRANCH  17  21
ATOM     18  C   UNL     1       5.948   5.341  15.654  0.00  0.00    +0.000 A 
ATOM     19  C   UNL     1       5.558   6.579  16.176  0.00  0.00    +0.000 A 
ATOM     20  C   UNL     1       5.041   6.674  17.468  0.00  0.00    +0.000 A 
ATOM     21  C   UNL     1       4.900   5.533  18.251  0.00  0.00    +0.000 A 
ATOM     22  C   UNL     1       5.348   4.304  17.765  0.00  0.00    +0.000 A 
ATOM     23  C   UNL     1       5.856   4.209  16.463  0.00  0.00    +0.000 A 
BRANCH  18  24
ATOM     24  O   UNL     1       6.418   5.135  14.380  0.00  0.00    +0.000 OA
BRANCH  24  25
ATOM     25  C   UNL     1       6.238   3.805  13.892  0.00  0.00    +0.000 C 
BRANCH  25  27
ATOM     26  C   UNL     1       5.207   3.056  11.755  0.00  0.00    +0.000 C 
ATOM     27  C   UNL     1       6.413   3.744  12.380  0.00  0.00    +0.000 C 
ENDBRANCH  25  27
ENDBRANCH  24  25
ENDBRANCH  18  24
ENDBRANCH  17  21
ENDBRANCH   1  17
TORSDOF 7
ENDMDL
MODEL 5
REMARK VINA RESULT:      -7.3      6.756      9.884
REMARK  Name = 
REMARK  8 active torsions:
REMARK  status: ('A' for Active; 'I' for Inactive)
REMARK    1  A    between atoms: C_1  and  C_2
REMARK    2  A    between atoms: C_2  and  C_3
REMARK    3  A    between atoms: C_3  and  O_4
REMARK    4  A    between atoms: O_4  and  C_5
REMARK    5  A    between atoms: C_8  and  O_9
REMARK    6  A    between atoms: O_9  and  S_10
REMARK    7  A    between atoms: S_10  and  C_13
REMARK    8  A    between atoms: C_16  and  N_17
REMARK                            x       y       z     vdW  Elec       q    Type
REMARK                         _______ _______ _______ _____ _____    ______ ____
ROOT
ATOM      1  S   UNL     1       0.533   9.863  20.675  0.00  0.00    +0.000 S 
ATOM      2  O   UNL     1       1.471  10.450  21.612  0.00  0.00    +0.000 OA
ATOM      3  O   UNL     1      -0.728   9.306  21.125  0.00  0.00    +0.000 OA
ENDROOT
BRANCH   1   4
ATOM      4  C   UNL     1       1.425   8.524  19.918  0.00  0.00    +0.000 A 
ATOM      5  C   UNL     1       2.022   8.633  18.666  0.00  0.00    +0.000 A 
ATOM      6  C   UNL     1       2.778   7.557  18.172  0.00  0.00    +0.000 A 
ATOM      7  C   UNL     1       2.944   6.376  18.915  0.00  0.00    +0.000 A 
ATOM      8  C   UNL     1       2.321   6.298  20.170  0.00  0.00    +0.000 A 
ATOM      9  C   UNL     1       1.568   7.360  20.671  0.00  0.00    +0.000 A 
BRANCH   7  10
ATOM     10  N   UNL     1       3.708   5.282  18.437  0.00  0.00    +0.000 N 
ATOM     11  C   UNL     1       3.189   4.287  17.519  0.00  0.00    +0.000 C 
ATOM     12  C   UNL     1       4.430   3.552  17.046  0.00  0.00    +0.000 C 
ATOM     13  N   UNL     1       5.364   3.778  18.106  0.00  0.00    +0.000 N 
ATOM     14  C   UNL     1       5.010   4.919  18.828  0.00  0.00    +0.000 C 
ATOM     15  O   UNL     1       5.764   5.446  19.625  0.00  0.00    +0.000 OA
ATOM     16  H   UNL     1       6.330   3.480  18.120  0.00  0.00    +0.000 HD
ENDBRANCH   7  10
ENDBRANCH   1   4
BRANCH   1  17
ATOM     17  O   UNL     1       0.221  10.917  19.470  0.00  0.00    +0.000 OA
BRANCH  17  21
ATOM     18  C   UNL     1      -3.564  10.985  17.715  0.00  0.00    +0.000 A 
ATOM     19  C   UNL     1      -3.195  11.870  18.733  0.00  0.00    +0.000 A 
ATOM     20  C   UNL     1      -1.909  11.837  19.272  0.00  0.00    +0.000 A 
ATOM     21  C   UNL     1      -0.979  10.913  18.806  0.00  0.00    +0.000 A 
ATOM     22  C   UNL     1      -1.316  10.072  17.745  0.00  0.00    +0.000 A 
ATOM     23  C   UNL     1      -2.611  10.098  17.213  0.00  0.00    +0.000 A 
BRANCH  18  24
ATOM     24  O   UNL     1      -4.816  10.903  17.155  0.00  0.00    +0.000 OA
BRANCH  24  25
ATOM     25  C   UNL     1      -5.561  12.121  17.193  0.00  0.00    +0.000 C 
BRANCH  25  27
ATOM     26  C   UNL     1      -6.862  10.602  18.672  0.00  0.00    +0.000 C 
ATOM     27  C   UNL     1      -6.869  11.944  17.953  0.00  0.00    +0.000 C 
ENDBRANCH  25  27
ENDBRANCH  24  25
ENDBRANCH  18  24
ENDBRANCH  17  21
ENDBRANCH   1  17
TORSDOF 7
ENDMDL
MODEL 6
REMARK VINA RESULT:      -7.2      4.774      5.989
REMARK  Name = 
REMARK  8 active torsions:
REMARK  status: ('A' for Active; 'I' for Inactive)
REMARK    1  A    between atoms: C_1  and  C_2
REMARK    2  A    between atoms: C_2  and  C_3
REMARK    3  A    between atoms: C_3  and  O_4
REMARK    4  A    between atoms: O_4  and  C_5
REMARK    5  A    between atoms: C_8  and  O_9
REMARK    6  A    between atoms: O_9  and  S_10
REMARK    7  A    between atoms: S_10  and  C_13
REMARK    8  A    between atoms: C_16  and  N_17
REMARK                            x       y       z     vdW  Elec       q    Type
REMARK                         _______ _______ _______ _____ _____    ______ ____
ROOT
ATOM      1  S   UNL     1       2.689   5.807  19.339  0.00  0.00    +0.000 S 
ATOM      2  O   UNL     1       2.009   5.056  18.301  0.00  0.00    +0.000 OA
ATOM      3  O   UNL     1       2.548   5.450  20.738  0.00  0.00    +0.000 OA
ENDROOT
BRANCH   1   4
ATOM      4  C   UNL     1       2.064   7.463  19.183  0.00  0.00    +0.000 A 
ATOM      5  C   UNL     1       2.060   8.154  17.975  0.00  0.00    +0.000 A 
ATOM      6  C   UNL     1       1.476   9.430  17.918  0.00  0.00    +0.000 A 
ATOM      7  C   UNL     1       0.895  10.022  19.053  0.00  0.00    +0.000 A 
ATOM      8  C   UNL     1       0.925   9.301  20.256  0.00  0.00    +0.000 A 
ATOM      9  C   UNL     1       1.502   8.033  20.325  0.00  0.00    +0.000 A 
BRANCH   7  10
ATOM     10  N   UNL     1       0.295  11.305  19.013  0.00  0.00    +0.000 N 
ATOM     11  C   UNL     1       1.008  12.529  19.320  0.00  0.00    +0.000 C 
ATOM     12  C   UNL     1       0.080  13.621  18.819  0.00  0.00    +0.000 C 
ATOM     13  N   UNL     1      -1.204  12.989  18.839  0.00  0.00    +0.000 N 
ATOM     14  C   UNL     1      -1.062  11.602  18.784  0.00  0.00    +0.000 C 
ATOM     15  O   UNL     1      -1.999  10.860  18.559  0.00  0.00    +0.000 OA
ATOM     16  H   UNL     1      -2.072  13.398  18.518  0.00  0.00    +0.000 HD
ENDBRANCH   7  10
ENDBRANCH   1   4
BRANCH   1  17
ATOM     17  O   UNL     1       4.281   5.906  18.998  0.00  0.00    +0.000 OA
BRANCH  17  21
ATOM     18  C   UNL     1       5.921   5.014  15.266  0.00  0.00    +0.000 A 
ATOM     19  C   UNL     1       5.756   4.046  16.262  0.00  0.00    +0.000 A 
ATOM     20  C   UNL     1       5.174   4.377  17.485  0.00  0.00    +0.000 A 
ATOM     21  C   UNL     1       4.757   5.681  17.732  0.00  0.00    +0.000 A 
ATOM     22  C   UNL     1       4.856   6.638  16.721  0.00  0.00    +0.000 A 
ATOM     23  C   UNL     1       5.451   6.307  15.497  0.00  0.00    +0.000 A 
BRANCH  18  24
ATOM     24  O   UNL     1       6.527   4.802  14.051  0.00  0.00    +0.000 OA
BRANCH  24  25
ATOM     25  C   UNL     1       6.364   3.482  13.532  0.00  0.00    +0.000 C 
BRANCH  25  27
ATOM     26  C   UNL     1       5.723   2.115  11.555  0.00  0.00    +0.000 C 
ATOM     27  C   UNL     1       6.113   3.508  12.030  0.00  0.00    +0.000 C 
ENDBRANCH  25  27
ENDBRANCH  24  25
ENDBRANCH  18  24
ENDBRANCH  17  21
ENDBRANCH   1  17
TORSDOF 7
ENDMDL
MODEL 7
REMARK VINA RESULT:      -7.2      4.672      5.979
REMARK  Name = 
REMARK  8 active torsions:
REMARK  status: ('A' for Active; 'I' for Inactive)
REMARK    1  A    between atoms: C_1  and  C_2
REMARK    2  A    between atoms: C_2  and  C_3
REMARK    3  A    between atoms: C_3  and  O_4
REMARK    4  A    between atoms: O_4  and  C_5
REMARK    5  A    between atoms: C_8  and  O_9
REMARK    6  A    between atoms: O_9  and  S_10
REMARK    7  A    between atoms: S_10  and  C_13
REMARK    8  A    between atoms: C_16  and  N_17
REMARK                            x       y       z     vdW  Elec       q    Type
REMARK                         _______ _______ _______ _____ _____    ______ ____
ROOT
ATOM      1  S   UNL     1       2.732   5.634  19.336  0.00  0.00    +0.000 S 
ATOM      2  O   UNL     1       2.062   4.930  18.259  0.00  0.00    +0.000 OA
ATOM      3  O   UNL     1       2.613   5.188  20.711  0.00  0.00    +0.000 OA
ENDROOT
BRANCH   1   4
ATOM      4  C   UNL     1       2.062   7.280  19.287  0.00  0.00    +0.000 A 
ATOM      5  C   UNL     1       1.613   7.942  20.426  0.00  0.00    +0.000 A 
ATOM      6  C   UNL     1       1.172   9.272  20.315  0.00  0.00    +0.000 A 
ATOM      7  C   UNL     1       1.177   9.945  19.082  0.00  0.00    +0.000 A 
ATOM      8  C   UNL     1       1.628   9.243  17.954  0.00  0.00    +0.000 A 
ATOM      9  C   UNL     1       2.068   7.923  18.051  0.00  0.00    +0.000 A 
BRANCH   7  10
ATOM     10  N   UNL     1       0.742  11.287  18.952  0.00  0.00    +0.000 N 
ATOM     11  C   UNL     1       1.568  12.430  19.289  0.00  0.00    +0.000 C 
ATOM     12  C   UNL     1       0.827  13.604  18.676  0.00  0.00    +0.000 C 
ATOM     13  N   UNL     1      -0.521  13.129  18.596  0.00  0.00    +0.000 N 
ATOM     14  C   UNL     1      -0.543  11.733  18.592  0.00  0.00    +0.000 C 
ATOM     15  O   UNL     1      -1.541  11.099  18.302  0.00  0.00    +0.000 OA
ATOM     16  H   UNL     1      -1.301  13.625  18.185  0.00  0.00    +0.000 HD
ENDBRANCH   7  10
ENDBRANCH   1   4
BRANCH   1  17
ATOM     17  O   UNL     1       4.317   5.796  18.990  0.00  0.00    +0.000 OA
BRANCH  17  21
ATOM     18  C   UNL     1       5.992   5.042  15.243  0.00  0.00    +0.000 A 
ATOM     19  C   UNL     1       5.974   4.084  16.261  0.00  0.00    +0.000 A 
ATOM     20  C   UNL     1       5.376   4.364  17.490  0.00  0.00    +0.000 A 
ATOM     21  C   UNL     1       4.796   5.608  17.719  0.00  0.00    +0.000 A 
ATOM     22  C   UNL     1       4.749   6.546  16.687  0.00  0.00    +0.000 A 
ATOM     23  C   UNL     1       5.360   6.267  15.458  0.00  0.00    +0.000 A 
BRANCH  18  24
ATOM     24  O   UNL     1       6.598   4.884  14.020  0.00  0.00    +0.000 OA
BRANCH  24  25
ATOM     25  C   UNL     1       6.377   3.611  13.411  0.00  0.00    +0.000 C 
BRANCH  25  27
ATOM     26  C   UNL     1       5.261   2.432  11.527  0.00  0.00    +0.000 C 
ATOM     27  C   UNL     1       5.231   3.671  12.410  0.00  0.00    +0.000 C 
ENDBRANCH  25  27
ENDBRANCH  24  25
ENDBRANCH  18  24
ENDBRANCH  17  21
ENDBRANCH   1  17
TORSDOF 7
ENDMDL
MODEL 8
REMARK VINA RESULT:      -7.2      1.060      1.598
REMARK  Name = 
REMARK  8 active torsions:
REMARK  status: ('A' for Active; 'I' for Inactive)
REMARK    1  A    between atoms: C_1  and  C_2
REMARK    2  A    between atoms: C_2  and  C_3
REMARK    3  A    between atoms: C_3  and  O_4
REMARK    4  A    between atoms: O_4  and  C_5
REMARK    5  A    between atoms: C_8  and  O_9
REMARK    6  A    between atoms: O_9  and  S_10
REMARK    7  A    between atoms: S_10  and  C_13
REMARK    8  A    between atoms: C_16  and  N_17
REMARK                            x       y       z     vdW  Elec       q    Type
REMARK                         _______ _______ _______ _____ _____    ______ ____
ROOT
ATOM      1  S   UNL     1       7.400   5.685  17.339  0.00  0.00    +0.000 S 
ATOM      2  O   UNL     1       8.173   4.481  17.106  0.00  0.00    +0.000 OA
ATOM      3  O   UNL     1       7.943   6.789  18.107  0.00  0.00    +0.000 OA
ENDROOT
BRANCH   1   4
ATOM      4  C   UNL     1       5.955   5.134  18.215  0.00  0.00    +0.000 A 
ATOM      5  C   UNL     1       4.882   5.974  18.497  0.00  0.00    +0.000 A 
ATOM      6  C   UNL     1       3.742   5.441  19.123  0.00  0.00    +0.000 A 
ATOM      7  C   UNL     1       3.663   4.081  19.468  0.00  0.00    +0.000 A 
ATOM      8  C   UNL     1       4.767   3.266  19.177  0.00  0.00    +0.000 A 
ATOM      9  C   UNL     1       5.904   3.783  18.556  0.00  0.00    +0.000 A 
BRANCH   7  10
ATOM     10  N   UNL     1       2.520   3.525  20.093  0.00  0.00    +0.000 N 
ATOM     11  C   UNL     1       2.540   2.943  21.421  0.00  0.00    +0.000 C 
ATOM     12  C   UNL     1       1.071   2.807  21.777  0.00  0.00    +0.000 C 
ATOM     13  N   UNL     1       0.430   2.760  20.498  0.00  0.00    +0.000 N 
ATOM     14  C   UNL     1       1.243   3.348  19.528  0.00  0.00    +0.000 C 
ATOM     15  O   UNL     1       0.831   3.633  18.419  0.00  0.00    +0.000 OA
ATOM     16  H   UNL     1      -0.567   2.725  20.335  0.00  0.00    +0.000 HD
ENDBRANCH   7  10
ENDBRANCH   1   4
BRANCH   1  17
ATOM     17  O   UNL     1       6.853   6.275  15.920  0.00  0.00    +0.000 OA
BRANCH  17  21
ATOM     18  C   UNL     1       5.936   3.587  12.864  0.00  0.00    +0.000 A 
ATOM     19  C   UNL     1       5.072   3.822  13.938  0.00  0.00    +0.000 A 
ATOM     20  C   UNL     1       5.400   4.752  14.923  0.00  0.00    +0.000 A 
ATOM     21  C   UNL     1       6.600   5.454  14.852  0.00  0.00    +0.000 A 
ATOM     22  C   UNL     1       7.437   5.276  13.750  0.00  0.00    +0.000 A 
ATOM     23  C   UNL     1       7.111   4.332  12.767  0.00  0.00    +0.000 A 
BRANCH  18  24
ATOM     24  O   UNL     1       5.729   2.658  11.872  0.00  0.00    +0.000 OA
BRANCH  24  25
ATOM     25  C   UNL     1       4.407   2.654  11.333  0.00  0.00    +0.000 C 
BRANCH  25  27
ATOM     26  C   UNL     1       2.914   3.795   9.703  0.00  0.00    +0.000 C 
ATOM     27  C   UNL     1       4.083   3.982  10.660  0.00  0.00    +0.000 C 
ENDBRANCH  25  27
ENDBRANCH  24  25
ENDBRANCH  18  24
ENDBRANCH  17  21
ENDBRANCH   1  17
TORSDOF 7
ENDMDL
MODEL 9
REMARK VINA RESULT:      -7.2      4.946      6.276
REMARK  Name = 
REMARK  8 active torsions:
REMARK  status: ('A' for Active; 'I' for Inactive)
REMARK    1  A    between atoms: C_1  and  C_2
REMARK    2  A    between atoms: C_2  and  C_3
REMARK    3  A    between atoms: C_3  and  O_4
REMARK    4  A    between atoms: O_4  and  C_5
REMARK    5  A    between atoms: C_8  and  O_9
REMARK    6  A    between atoms: O_9  and  S_10
REMARK    7  A    between atoms: S_10  and  C_13
REMARK    8  A    between atoms: C_16  and  N_17
REMARK                            x       y       z     vdW  Elec       q    Type
REMARK                         _______ _______ _______ _____ _____    ______ ____
ROOT
ATOM      1  S   UNL     1       2.575   6.070  19.331  0.00  0.00    +0.000 S 
ATOM      2  O   UNL     1       1.891   5.349  18.274  0.00  0.00    +0.000 OA
ATOM      3  O   UNL     1       2.375   5.725  20.725  0.00  0.00    +0.000 OA
ENDROOT
BRANCH   1   4
ATOM      4  C   UNL     1       2.035   7.754  19.153  0.00  0.00    +0.000 A 
ATOM      5  C   UNL     1       2.169   8.464  17.963  0.00  0.00    +0.000 A 
ATOM      6  C   UNL     1       1.645   9.765  17.879  0.00  0.00    +0.000 A 
ATOM      7  C   UNL     1       0.989  10.362  18.969  0.00  0.00    +0.000 A 
ATOM      8  C   UNL     1       0.880   9.621  20.155  0.00  0.00    +0.000 A 
ATOM      9  C   UNL     1       1.397   8.329  20.251  0.00  0.00    +0.000 A 
BRANCH   7  10
ATOM     10  N   UNL     1       0.448  11.670  18.901  0.00  0.00    +0.000 N 
ATOM     11  C   UNL     1       1.188  12.860  19.275  0.00  0.00    +0.000 C 
ATOM     12  C   UNL     1       0.346  13.996  18.722  0.00  0.00    +0.000 C 
ATOM     13  N   UNL     1      -0.961  13.419  18.639  0.00  0.00    +0.000 N 
ATOM     14  C   UNL     1      -0.874  12.027  18.577  0.00  0.00    +0.000 C 
ATOM     15  O   UNL     1      -1.823  11.328  18.275  0.00  0.00    +0.000 OA
ATOM     16  H   UNL     1      -1.785  13.868  18.261  0.00  0.00    +0.000 HD
ENDBRANCH   7  10
ENDBRANCH   1   4
BRANCH   1  17
ATOM     17  O   UNL     1       4.179   6.091  19.038  0.00  0.00    +0.000 OA
BRANCH  17  21
ATOM     18  C   UNL     1       5.678   4.356  15.551  0.00  0.00    +0.000 A 
ATOM     19  C   UNL     1       5.485   5.735  15.678  0.00  0.00    +0.000 A 
ATOM     20  C   UNL     1       5.012   6.280  16.871  0.00  0.00    +0.000 A 
ATOM     21  C   UNL     1       4.718   5.453  17.951  0.00  0.00    +0.000 A 
ATOM     22  C   UNL     1       4.971   4.084  17.858  0.00  0.00    +0.000 A 
ATOM     23  C   UNL     1       5.435   3.537  16.654  0.00  0.00    +0.000 A 
BRANCH  18  24
ATOM     24  O   UNL     1       6.089   3.717  14.406  0.00  0.00    +0.000 OA
BRANCH  24  25
ATOM     25  C   UNL     1       6.941   4.498  13.568  0.00  0.00    +0.000 C 
BRANCH  25  27
ATOM     26  C   UNL     1       5.785   2.969  11.983  0.00  0.00    +0.000 C 
ATOM     27  C   UNL     1       6.861   4.037  12.119  0.00  0.00    +0.000 C 
ENDBRANCH  25  27
ENDBRANCH  24  25
ENDBRANCH  18  24
ENDBRANCH  17  21
ENDBRANCH   1  17
TORSDOF 7
ENDMDL
