MODEL 1
REMARK VINA RESULT:      -8.8      0.000      0.000
REMARK  Name = 
REMARK  7 active torsions:
REMARK  status: ('A' for Active; 'I' for Inactive)
REMARK    1  A    between atoms: C_1  and  C_2
REMARK    2  A    between atoms: C_2  and  O_3
REMARK    3  A    between atoms: O_3  and  C_4
REMARK    4  A    between atoms: C_9  and  C_10
REMARK    5  A    between atoms: N_12  and  C_13
REMARK    6  A    between atoms: C_13  and  C_14
REMARK    7  A    between atoms: C_18  and  C_19
REMARK                            x       y       z     vdW  Elec       q    Type
REMARK                         _______ _______ _______ _____ _____    ______ ____
ROOT
ATOM      1  C   UNL     1       3.154   6.352  18.917  0.00  0.00    +0.000 A 
ATOM      2  N   UNL     1       4.290   6.485  18.170  0.00  0.00    +0.000 NA
ATOM      3  N   UNL     1       4.925   5.316  18.174  0.00  0.00    +0.000 N 
ATOM      4  C   UNL     1       4.190   4.418  18.844  0.00  0.00    +0.000 A 
ATOM      5  N   UNL     1       4.488   3.116  19.039  0.00  0.00    +0.000 NA
ATOM      6  C   UNL     1       3.610   2.350  19.737  0.00  0.00    +0.000 A 
ATOM      7  N   UNL     1       2.456   2.893  20.225  0.00  0.00    +0.000 NA
ATOM      8  C   UNL     1       2.135   4.209  20.043  0.00  0.00    +0.000 A 
ATOM      9  N   UNL     1       0.875   4.656  20.503  0.00  0.00    +0.000 N 
ATOM     10  C   UNL     1       3.057   5.011  19.331  0.00  0.00    +0.000 A 
ATOM     11  H   UNL     1       0.284   4.022  21.061  0.00  0.00    +0.000 HD
ATOM     12  H   UNL     1       0.455   5.537  20.194  0.00  0.00    +0.000 HD
ENDROOT
BRANCH   1  18
ATOM     13  C   UNL     1      -0.690  10.939  21.520  0.00  0.00    +0.000 A 
ATOM     14  C   UNL     1      -0.295  10.014  22.510  0.00  0.00    +0.000 A 
ATOM     15  C   UNL     1       0.543   8.949  22.186  0.00  0.00    +0.000 A 
ATOM     16  C   UNL     1       0.995   8.779  20.872  0.00  0.00    +0.000 A 
ATOM     17  C   UNL     1       1.839   7.711  20.552  0.00  0.00    +0.000 A 
ATOM     18  C   UNL     1       2.273   7.502  19.235  0.00  0.00    +0.000 A 
ATOM     19  C   UNL     1       1.901   8.428  18.242  0.00  0.00    +0.000 A 
ATOM     20  C   UNL     1       1.057   9.505  18.557  0.00  0.00    +0.000 A 
ATOM     21  C   UNL     1       0.596   9.688  19.869  0.00  0.00    +0.000 A 
ATOM     22  C   UNL     1      -0.246  10.761  20.202  0.00  0.00    +0.000 A 
BRANCH  13  23
ATOM     23  O   UNL     1      -1.475  12.016  21.791  0.00  0.00    +0.000 OA
BRANCH  23  25
ATOM     24  C   UNL     1      -3.135  12.293  23.491  0.00  0.00    +0.000 C 
ATOM     25  C   UNL     1      -1.708  12.575  23.034  0.00  0.00    +0.000 C 
ENDBRANCH  23  25
ENDBRANCH  13  23
ENDBRANCH   1  18
BRANCH   3  26
ATOM     26  C   UNL     1       6.222   5.070  17.532  0.00  0.00    +0.000 C 
BRANCH  26  27
ATOM     27  C   UNL     1       6.373   5.879  16.212  0.00  0.00    +0.000 C 
ATOM     28  C   UNL     1       5.094   5.815  15.366  0.00  0.00    +0.000 C 
ATOM     29  C   UNL     1       4.923   4.426  14.749  0.00  0.00    +0.000 C 
ATOM     30  N   UNL     1       6.054   4.070  13.889  0.00  0.00    +0.000 N 
ATOM     31  C   UNL     1       5.775   3.547  12.630  0.00  0.00    +0.000 C 
ATOM     32  C   UNL     1       6.748   2.869  11.691  0.00  0.00    +0.000 C 
ATOM     33  O   UNL     1       4.620   3.539  12.226  0.00  0.00    +0.000 OA
ATOM     34  C   UNL     1       7.390   4.163  14.510  0.00  0.00    +0.000 C 
ATOM     35  C   UNL     1       7.569   5.508  15.293  0.00  0.00    +0.000 C 
ENDBRANCH  26  27
ENDBRANCH   3  26
TORSDOF 5
ENDMDL
MODEL 2
REMARK VINA RESULT:      -8.7      4.534     11.212
REMARK  Name = 
REMARK  7 active torsions:
REMARK  status: ('A' for Active; 'I' for Inactive)
REMARK    1  A    between atoms: C_1  and  C_2
REMARK    2  A    between atoms: C_2  and  O_3
REMARK    3  A    between atoms: O_3  and  C_4
REMARK    4  A    between atoms: C_9  and  C_10
REMARK    5  A    between atoms: N_12  and  C_13
REMARK    6  A    between atoms: C_13  and  C_14
REMARK    7  A    between atoms: C_18  and  C_19
REMARK                            x       y       z     vdW  Elec       q    Type
REMARK                         _______ _______ _______ _____ _____    ______ ____
ROOT
ATOM      1  C   UNL     1       0.321  10.959  19.255  0.00  0.00    +0.000 A 
ATOM      2  N   UNL     1      -0.917  10.951  19.833  0.00  0.00    +0.000 NA
ATOM      3  N   UNL     1      -1.281  12.212  20.046  0.00  0.00    +0.000 N 
ATOM      4  C   UNL     1      -0.341  13.031  19.555  0.00  0.00    +0.000 A 
ATOM      5  N   UNL     1      -0.365  14.380  19.556  0.00  0.00    +0.000 NA
ATOM      6  C   UNL     1       0.679  15.045  18.997  0.00  0.00    +0.000 A 
ATOM      7  N   UNL     1       1.723  14.357  18.449  0.00  0.00    +0.000 NA
ATOM      8  C   UNL     1       1.771  12.992  18.439  0.00  0.00    +0.000 A 
ATOM      9  N   UNL     1       2.847  12.369  17.765  0.00  0.00    +0.000 N 
ATOM     10  C   UNL     1       0.693  12.298  19.036  0.00  0.00    +0.000 A 
ATOM     11  H   UNL     1       3.621  12.944  17.403  0.00  0.00    +0.000 HD
ATOM     12  H   UNL     1       2.832  11.381  17.495  0.00  0.00    +0.000 HD
ENDROOT
BRANCH   1  18
ATOM     13  C   UNL     1       3.272   5.138  19.317  0.00  0.00    +0.000 A 
ATOM     14  C   UNL     1       2.557   5.335  20.517  0.00  0.00    +0.000 A 
ATOM     15  C   UNL     1       1.835   6.509  20.724  0.00  0.00    +0.000 A 
ATOM     16  C   UNL     1       1.818   7.510  19.745  0.00  0.00    +0.000 A 
ATOM     17  C   UNL     1       1.089   8.685  19.955  0.00  0.00    +0.000 A 
ATOM     18  C   UNL     1       1.088   9.715  19.003  0.00  0.00    +0.000 A 
ATOM     19  C   UNL     1       1.782   9.523  17.793  0.00  0.00    +0.000 A 
ATOM     20  C   UNL     1       2.514   8.344  17.575  0.00  0.00    +0.000 A 
ATOM     21  C   UNL     1       2.541   7.333  18.546  0.00  0.00    +0.000 A 
ATOM     22  C   UNL     1       3.263   6.146  18.342  0.00  0.00    +0.000 A 
BRANCH  13  23
ATOM     23  O   UNL     1       3.961   3.996  19.050  0.00  0.00    +0.000 OA
BRANCH  23  25
ATOM     24  C   UNL     1       3.044   2.055  17.996  0.00  0.00    +0.000 C 
ATOM     25  C   UNL     1       3.943   3.279  17.869  0.00  0.00    +0.000 C 
ENDBRANCH  23  25
ENDBRANCH  13  23
ENDBRANCH   1  18
BRANCH   3  26
ATOM     26  C   UNL     1      -2.525  12.620  20.709  0.00  0.00    +0.000 C 
BRANCH  26  27
ATOM     27  C   UNL     1      -2.552  12.181  22.201  0.00  0.00    +0.000 C 
ATOM     28  C   UNL     1      -3.760  12.776  22.938  0.00  0.00    +0.000 C 
ATOM     29  C   UNL     1      -3.573  14.278  23.158  0.00  0.00    +0.000 C 
ATOM     30  N   UNL     1      -2.373  14.565  23.948  0.00  0.00    +0.000 N 
ATOM     31  C   UNL     1      -2.491  15.457  25.010  0.00  0.00    +0.000 C 
ATOM     32  C   UNL     1      -1.364  16.105  25.782  0.00  0.00    +0.000 C 
ATOM     33  O   UNL     1      -3.602  15.851  25.342  0.00  0.00    +0.000 OA
ATOM     34  C   UNL     1      -1.113  13.991  23.437  0.00  0.00    +0.000 C 
ATOM     35  C   UNL     1      -1.284  12.484  23.047  0.00  0.00    +0.000 C 
ENDBRANCH  26  27
ENDBRANCH   3  26
TORSDOF 5
ENDMDL
MODEL 3
REMARK VINA RESULT:      -8.4      0.693      1.450
REMARK  Name = 
REMARK  7 active torsions:
REMARK  status: ('A' for Active; 'I' for Inactive)
REMARK    1  A    between atoms: C_1  and  C_2
REMARK    2  A    between atoms: C_2  and  O_3
REMARK    3  A    between atoms: O_3  and  C_4
REMARK    4  A    between atoms: C_9  and  C_10
REMARK    5  A    between atoms: N_12  and  C_13
REMARK    6  A    between atoms: C_13  and  C_14
REMARK    7  A    between atoms: C_18  and  C_19
REMARK                            x       y       z     vdW  Elec       q    Type
REMARK                         _______ _______ _______ _____ _____    ______ ____
ROOT
ATOM      1  C   UNL     1       3.022   6.104  19.194  0.00  0.00    +0.000 A 
ATOM      2  N   UNL     1       4.205   6.328  18.549  0.00  0.00    +0.000 NA
ATOM      3  N   UNL     1       4.781   5.151  18.323  0.00  0.00    +0.000 N 
ATOM      4  C   UNL     1       3.965   4.174  18.741  0.00  0.00    +0.000 A 
ATOM      5  N   UNL     1       4.187   2.845  18.656  0.00  0.00    +0.000 NA
ATOM      6  C   UNL     1       3.233   2.000  19.124  0.00  0.00    +0.000 A 
ATOM      7  N   UNL     1       2.080   2.491  19.667  0.00  0.00    +0.000 NA
ATOM      8  C   UNL     1       1.835   3.831  19.767  0.00  0.00    +0.000 A 
ATOM      9  N   UNL     1       0.573   4.242  20.255  0.00  0.00    +0.000 N 
ATOM     10  C   UNL     1       2.835   4.713  19.294  0.00  0.00    +0.000 A 
ATOM     11  H   UNL     1      -0.079   3.539  20.631  0.00  0.00    +0.000 HD
ATOM     12  H   UNL     1       0.215   5.193  20.131  0.00  0.00    +0.000 HD
ENDROOT
BRANCH   1  18
ATOM     13  C   UNL     1      -0.515  11.471  20.322  0.00  0.00    +0.000 A 
ATOM     14  C   UNL     1      -0.011  11.487  19.005  0.00  0.00    +0.000 A 
ATOM     15  C   UNL     1       0.766  10.431  18.533  0.00  0.00    +0.000 A 
ATOM     16  C   UNL     1       1.064   9.346  19.366  0.00  0.00    +0.000 A 
ATOM     17  C   UNL     1       1.841   8.286  18.889  0.00  0.00    +0.000 A 
ATOM     18  C   UNL     1       2.181   7.208  19.718  0.00  0.00    +0.000 A 
ATOM     19  C   UNL     1       1.670   7.171  21.029  0.00  0.00    +0.000 A 
ATOM     20  C   UNL     1       0.885   8.230  21.514  0.00  0.00    +0.000 A 
ATOM     21  C   UNL     1       0.579   9.324  20.692  0.00  0.00    +0.000 A 
ATOM     22  C   UNL     1      -0.207  10.389  21.159  0.00  0.00    +0.000 A 
BRANCH  13  23
ATOM     23  O   UNL     1      -1.309  12.458  20.819  0.00  0.00    +0.000 OA
BRANCH  23  25
ATOM     24  C   UNL     1      -1.399  13.281  23.062  0.00  0.00    +0.000 C 
ATOM     25  C   UNL     1      -2.045  12.414  21.987  0.00  0.00    +0.000 C 
ENDBRANCH  23  25
ENDBRANCH  13  23
ENDBRANCH   1  18
BRANCH   3  26
ATOM     26  C   UNL     1       6.099   4.973  17.703  0.00  0.00    +0.000 C 
BRANCH  26  27
ATOM     27  C   UNL     1       6.253   5.839  16.420  0.00  0.00    +0.000 C 
ATOM     28  C   UNL     1       4.995   5.772  15.544  0.00  0.00    +0.000 C 
ATOM     29  C   UNL     1       4.879   4.404  14.869  0.00  0.00    +0.000 C 
ATOM     30  N   UNL     1       6.039   4.118  14.020  0.00  0.00    +0.000 N 
ATOM     31  C   UNL     1       5.802   3.638  12.735  0.00  0.00    +0.000 C 
ATOM     32  C   UNL     1       6.815   3.028  11.792  0.00  0.00    +0.000 C 
ATOM     33  O   UNL     1       4.656   3.612  12.306  0.00  0.00    +0.000 OA
ATOM     34  C   UNL     1       7.358   4.224  14.674  0.00  0.00    +0.000 C 
ATOM     35  C   UNL     1       7.479   5.541  15.513  0.00  0.00    +0.000 C 
ENDBRANCH  26  27
ENDBRANCH   3  26
TORSDOF 5
ENDMDL
MODEL 4
REMARK VINA RESULT:      -8.4      4.348      9.681
REMARK  Name = 
REMARK  7 active torsions:
REMARK  status: ('A' for Active; 'I' for Inactive)
REMARK    1  A    between atoms: C_1  and  C_2
REMARK    2  A    between atoms: C_2  and  O_3
REMARK    3  A    between atoms: O_3  and  C_4
REMARK    4  A    between atoms: C_9  and  C_10
REMARK    5  A    between atoms: N_12  and  C_13
REMARK    6  A    between atoms: C_13  and  C_14
REMARK    7  A    between atoms: C_18  and  C_19
REMARK                            x       y       z     vdW  Elec       q    Type
REMARK                         _______ _______ _______ _____ _____    ______ ____
ROOT
ATOM      1  C   UNL     1       0.702   9.570  19.079  0.00  0.00    +0.000 A 
ATOM      2  N   UNL     1       0.103  10.115  17.979  0.00  0.00    +0.000 NA
ATOM      3  N   UNL     1      -0.749  11.048  18.394  0.00  0.00    +0.000 N 
ATOM      4  C   UNL     1      -0.659  11.166  19.726  0.00  0.00    +0.000 A 
ATOM      5  N   UNL     1      -1.344  12.027  20.508  0.00  0.00    +0.000 NA
ATOM      6  C   UNL     1      -1.109  12.011  21.845  0.00  0.00    +0.000 A 
ATOM      7  N   UNL     1      -0.201  11.142  22.377  0.00  0.00    +0.000 NA
ATOM      8  C   UNL     1       0.502  10.259  21.606  0.00  0.00    +0.000 A 
ATOM      9  N   UNL     1       1.489   9.466  22.235  0.00  0.00    +0.000 N 
ATOM     10  C   UNL     1       0.246  10.264  20.215  0.00  0.00    +0.000 A 
ATOM     11  H   UNL     1       1.575   9.482  23.261  0.00  0.00    +0.000 HD
ATOM     12  H   UNL     1       2.218   8.973  21.712  0.00  0.00    +0.000 HD
ENDROOT
BRANCH   1  18
ATOM     13  C   UNL     1       4.034   3.992  19.699  0.00  0.00    +0.000 A 
ATOM     14  C   UNL     1       3.020   4.066  20.677  0.00  0.00    +0.000 A 
ATOM     15  C   UNL     1       2.169   5.168  20.730  0.00  0.00    +0.000 A 
ATOM     16  C   UNL     1       2.318   6.220  19.818  0.00  0.00    +0.000 A 
ATOM     17  C   UNL     1       1.459   7.323  19.872  0.00  0.00    +0.000 A 
ATOM     18  C   UNL     1       1.614   8.403  18.991  0.00  0.00    +0.000 A 
ATOM     19  C   UNL     1       2.610   8.334  17.999  0.00  0.00    +0.000 A 
ATOM     20  C   UNL     1       3.473   7.227  17.937  0.00  0.00    +0.000 A 
ATOM     21  C   UNL     1       3.337   6.167  18.843  0.00  0.00    +0.000 A 
ATOM     22  C   UNL     1       4.189   5.052  18.793  0.00  0.00    +0.000 A 
BRANCH  13  23
ATOM     23  O   UNL     1       4.866   2.922  19.580  0.00  0.00    +0.000 OA
BRANCH  23  25
ATOM     24  C   UNL     1       3.542   1.423  18.269  0.00  0.00    +0.000 C 
ATOM     25  C   UNL     1       4.493   1.598  19.448  0.00  0.00    +0.000 C 
ENDBRANCH  23  25
ENDBRANCH  13  23
ENDBRANCH   1  18
BRANCH   3  26
ATOM     26  C   UNL     1      -1.632  11.821  17.513  0.00  0.00    +0.000 C 
BRANCH  26  27
ATOM     27  C   UNL     1      -2.615  10.902  16.734  0.00  0.00    +0.000 C 
ATOM     28  C   UNL     1      -3.885  11.659  16.325  0.00  0.00    +0.000 C 
ATOM     29  C   UNL     1      -4.767  11.933  17.544  0.00  0.00    +0.000 C 
ATOM     30  N   UNL     1      -5.173  10.693  18.210  0.00  0.00    +0.000 N 
ATOM     31  C   UNL     1      -6.515  10.542  18.545  0.00  0.00    +0.000 C 
ATOM     32  C   UNL     1      -7.113   9.496  19.458  0.00  0.00    +0.000 C 
ATOM     33  O   UNL     1      -7.328  11.366  18.147  0.00  0.00    +0.000 OA
ATOM     34  C   UNL     1      -4.077   9.783  18.600  0.00  0.00    +0.000 C 
ATOM     35  C   UNL     1      -3.051   9.586  17.433  0.00  0.00    +0.000 C 
ENDBRANCH  26  27
ENDBRANCH   3  26
TORSDOF 5
ENDMDL
MODEL 5
REMARK VINA RESULT:      -8.3      4.693     11.229
REMARK  Name = 
REMARK  7 active torsions:
REMARK  status: ('A' for Active; 'I' for Inactive)
REMARK    1  A    between atoms: C_1  and  C_2
REMARK    2  A    between atoms: C_2  and  O_3
REMARK    3  A    between atoms: O_3  and  C_4
REMARK    4  A    between atoms: C_9  and  C_10
REMARK    5  A    between atoms: N_12  and  C_13
REMARK    6  A    between atoms: C_13  and  C_14
REMARK    7  A    between atoms: C_18  and  C_19
REMARK                            x       y       z     vdW  Elec       q    Type
REMARK                         _______ _______ _______ _____ _____    ______ ____
ROOT
ATOM      1  C   UNL     1       0.835  10.959  20.050  0.00  0.00    +0.000 A 
ATOM      2  N   UNL     1      -0.050  11.045  21.088  0.00  0.00    +0.000 NA
ATOM      3  N   UNL     1      -0.190  12.329  21.405  0.00  0.00    +0.000 N 
ATOM      4  C   UNL     1       0.527  13.074  20.552  0.00  0.00    +0.000 A 
ATOM      5  N   UNL     1       0.616  14.421  20.535  0.00  0.00    +0.000 NA
ATOM      6  C   UNL     1       1.386  15.005  19.581  0.00  0.00    +0.000 A 
ATOM      7  N   UNL     1       2.051  14.240  18.666  0.00  0.00    +0.000 NA
ATOM      8  C   UNL     1       1.980  12.876  18.666  0.00  0.00    +0.000 A 
ATOM      9  N   UNL     1       2.626  12.176  17.622  0.00  0.00    +0.000 N 
ATOM     10  C   UNL     1       1.191  12.266  19.669  0.00  0.00    +0.000 A 
ATOM     11  H   UNL     1       3.227  12.690  16.961  0.00  0.00    +0.000 HD
ATOM     12  H   UNL     1       2.422  11.196  17.403  0.00  0.00    +0.000 HD
ENDROOT
BRANCH   1  18
ATOM     13  C   UNL     1       2.826   4.836  18.982  0.00  0.00    +0.000 A 
ATOM     14  C   UNL     1       2.467   5.003  20.336  0.00  0.00    +0.000 A 
ATOM     15  C   UNL     1       1.998   6.232  20.795  0.00  0.00    +0.000 A 
ATOM     16  C   UNL     1       1.886   7.318  19.919  0.00  0.00    +0.000 A 
ATOM     17  C   UNL     1       1.411   8.549  20.384  0.00  0.00    +0.000 A 
ATOM     18  C   UNL     1       1.325   9.659  19.531  0.00  0.00    +0.000 A 
ATOM     19  C   UNL     1       1.663   9.501  18.173  0.00  0.00    +0.000 A 
ATOM     20  C   UNL     1       2.137   8.267  17.700  0.00  0.00    +0.000 A 
ATOM     21  C   UNL     1       2.255   7.170  18.565  0.00  0.00    +0.000 A 
ATOM     22  C   UNL     1       2.724   5.928  18.108  0.00  0.00    +0.000 A 
BRANCH  13  23
ATOM     23  O   UNL     1       3.253   3.648  18.474  0.00  0.00    +0.000 OA
BRANCH  23  25
ATOM     24  C   UNL     1       1.396   2.149  18.622  0.00  0.00    +0.000 C 
ATOM     25  C   UNL     1       2.876   2.388  18.897  0.00  0.00    +0.000 C 
ENDBRANCH  23  25
ENDBRANCH  13  23
ENDBRANCH   1  18
BRANCH   3  26
ATOM     26  C   UNL     1      -1.012  12.829  22.513  0.00  0.00    +0.000 C 
BRANCH  26  27
ATOM     27  C   UNL     1      -2.454  12.249  22.467  0.00  0.00    +0.000 C 
ATOM     28  C   UNL     1      -3.249  12.818  21.284  0.00  0.00    +0.000 C 
ATOM     29  C   UNL     1      -3.614  14.283  21.533  0.00  0.00    +0.000 C 
ATOM     30  N   UNL     1      -4.424  14.442  22.743  0.00  0.00    +0.000 N 
ATOM     31  C   UNL     1      -5.568  15.230  22.661  0.00  0.00    +0.000 C 
ATOM     32  C   UNL     1      -6.396  15.754  23.814  0.00  0.00    +0.000 C 
ATOM     33  O   UNL     1      -5.940  15.636  21.568  0.00  0.00    +0.000 OA
ATOM     34  C   UNL     1      -3.856  13.869  23.979  0.00  0.00    +0.000 C 
ATOM     35  C   UNL     1      -3.321  12.415  23.745  0.00  0.00    +0.000 C 
ENDBRANCH  26  27
ENDBRANCH   3  26
TORSDOF 5
ENDMDL
MODEL 6
REMARK VINA RESULT:      -8.2      4.525     11.382
REMARK  Name = 
REMARK  7 active torsions:
REMARK  status: ('A' for Active; 'I' for Inactive)
REMARK    1  A    between atoms: C_1  and  C_2
REMARK    2  A    between atoms: C_2  and  O_3
REMARK    3  A    between atoms: O_3  and  C_4
REMARK    4  A    between atoms: C_9  and  C_10
REMARK    5  A    between atoms: N_12  and  C_13
REMARK    6  A    between atoms: C_13  and  C_14
REMARK    7  A    between atoms: C_18  and  C_19
REMARK                            x       y       z     vdW  Elec       q    Type
REMARK                         _______ _______ _______ _____ _____    ______ ____
ROOT
ATOM      1  C   UNL     1      -0.057  11.012  19.691  0.00  0.00    +0.000 A 
ATOM      2  N   UNL     1      -1.351  11.086  20.122  0.00  0.00    +0.000 NA
ATOM      3  N   UNL     1      -1.718  12.364  20.107  0.00  0.00    +0.000 N 
ATOM      4  C   UNL     1      -0.718  13.104  19.610  0.00  0.00    +0.000 A 
ATOM      5  N   UNL     1      -0.722  14.440  19.413  0.00  0.00    +0.000 NA
ATOM      6  C   UNL     1       0.387  15.018  18.883  0.00  0.00    +0.000 A 
ATOM      7  N   UNL     1       1.475  14.259  18.561  0.00  0.00    +0.000 NA
ATOM      8  C   UNL     1       1.504  12.906  18.755  0.00  0.00    +0.000 A 
ATOM      9  N   UNL     1       2.639  12.194  18.303  0.00  0.00    +0.000 N 
ATOM     10  C   UNL     1       0.356  12.306  19.322  0.00  0.00    +0.000 A 
ATOM     11  H   UNL     1       3.456  12.712  17.950  0.00  0.00    +0.000 HD
ATOM     12  H   UNL     1       2.640  11.177  18.179  0.00  0.00    +0.000 HD
ENDROOT
BRANCH   1  18
ATOM     13  C   UNL     1       3.676   5.779  18.567  0.00  0.00    +0.000 A 
ATOM     14  C   UNL     1       3.666   6.622  17.436  0.00  0.00    +0.000 A 
ATOM     15  C   UNL     1       2.942   7.812  17.450  0.00  0.00    +0.000 A 
ATOM     16  C   UNL     1       2.208   8.180  18.584  0.00  0.00    +0.000 A 
ATOM     17  C   UNL     1       1.485   9.377  18.596  0.00  0.00    +0.000 A 
ATOM     18  C   UNL     1       0.715   9.746  19.709  0.00  0.00    +0.000 A 
ATOM     19  C   UNL     1       0.732   8.922  20.850  0.00  0.00    +0.000 A 
ATOM     20  C   UNL     1       1.459   7.720  20.847  0.00  0.00    +0.000 A 
ATOM     21  C   UNL     1       2.198   7.338  19.718  0.00  0.00    +0.000 A 
ATOM     22  C   UNL     1       2.933   6.142  19.698  0.00  0.00    +0.000 A 
BRANCH  13  23
ATOM     23  O   UNL     1       4.397   4.625  18.618  0.00  0.00    +0.000 OA
BRANCH  23  25
ATOM     24  C   UNL     1       4.102   2.548  19.765  0.00  0.00    +0.000 C 
ATOM     25  C   UNL     1       3.907   3.341  18.478  0.00  0.00    +0.000 C 
ENDBRANCH  23  25
ENDBRANCH  13  23
ENDBRANCH   1  18
BRANCH   3  26
ATOM     26  C   UNL     1      -3.022  12.862  20.561  0.00  0.00    +0.000 C 
BRANCH  26  27
ATOM     27  C   UNL     1      -3.351  12.384  22.003  0.00  0.00    +0.000 C 
ATOM     28  C   UNL     1      -4.421  13.267  22.657  0.00  0.00    +0.000 C 
ATOM     29  C   UNL     1      -3.847  14.640  23.011  0.00  0.00    +0.000 C 
ATOM     30  N   UNL     1      -2.718  14.533  23.939  0.00  0.00    +0.000 N 
ATOM     31  C   UNL     1      -2.707  15.371  25.050  0.00  0.00    +0.000 C 
ATOM     32  C   UNL     1      -1.544  15.631  25.981  0.00  0.00    +0.000 C 
ATOM     33  O   UNL     1      -3.693  16.054  25.296  0.00  0.00    +0.000 OA
ATOM     34  C   UNL     1      -1.619  13.642  23.517  0.00  0.00    +0.000 C 
ATOM     35  C   UNL     1      -2.160  12.269  22.995  0.00  0.00    +0.000 C 
ENDBRANCH  26  27
ENDBRANCH   3  26
TORSDOF 5
ENDMDL
MODEL 7
REMARK VINA RESULT:      -8.2      4.654     11.533
REMARK  Name = 
REMARK  7 active torsions:
REMARK  status: ('A' for Active; 'I' for Inactive)
REMARK    1  A    between atoms: C_1  and  C_2
REMARK    2  A    between atoms: C_2  and  O_3
REMARK    3  A    between atoms: O_3  and  C_4
REMARK    4  A    between atoms: C_9  and  C_10
REMARK    5  A    between atoms: N_12  and  C_13
REMARK    6  A    between atoms: C_13  and  C_14
REMARK    7  A    between atoms: C_18  and  C_19
REMARK                            x       y       z     vdW  Elec       q    Type
REMARK                         _______ _______ _______ _____ _____    ______ ____
ROOT
ATOM      1  C   UNL     1       0.249  11.087  19.195  0.00  0.00    +0.000 A 
ATOM      2  N   UNL     1      -1.012  11.098  19.719  0.00  0.00    +0.000 NA
ATOM      3  N   UNL     1      -1.371  12.364  19.905  0.00  0.00    +0.000 N 
ATOM      4  C   UNL     1      -0.402  13.168  19.446  0.00  0.00    +0.000 A 
ATOM      5  N   UNL     1      -0.412  14.518  19.434  0.00  0.00    +0.000 NA
ATOM      6  C   UNL     1       0.662  15.167  18.913  0.00  0.00    +0.000 A 
ATOM      7  N   UNL     1       1.721  14.462  18.417  0.00  0.00    +0.000 NA
ATOM      8  C   UNL     1       1.755  13.096  18.422  0.00  0.00    +0.000 A 
ATOM      9  N   UNL     1       2.851  12.456  17.800  0.00  0.00    +0.000 N 
ATOM     10  C   UNL     1       0.644  12.420  18.979  0.00  0.00    +0.000 A 
ATOM     11  H   UNL     1       3.646  13.019  17.467  0.00  0.00    +0.000 HD
ATOM     12  H   UNL     1       2.838  11.465  17.539  0.00  0.00    +0.000 HD
ENDROOT
BRANCH   1  18
ATOM     13  C   UNL     1       3.155   5.249  19.450  0.00  0.00    +0.000 A 
ATOM     14  C   UNL     1       2.414   5.476  20.629  0.00  0.00    +0.000 A 
ATOM     15  C   UNL     1       1.695   6.659  20.793  0.00  0.00    +0.000 A 
ATOM     16  C   UNL     1       1.709   7.639  19.793  0.00  0.00    +0.000 A 
ATOM     17  C   UNL     1       0.983   8.823  19.960  0.00  0.00    +0.000 A 
ATOM     18  C   UNL     1       1.013   9.833  18.987  0.00  0.00    +0.000 A 
ATOM     19  C   UNL     1       1.734   9.610  17.799  0.00  0.00    +0.000 A 
ATOM     20  C   UNL     1       2.461   8.421  17.623  0.00  0.00    +0.000 A 
ATOM     21  C   UNL     1       2.458   7.431  18.615  0.00  0.00    +0.000 A 
ATOM     22  C   UNL     1       3.176   6.236  18.454  0.00  0.00    +0.000 A 
BRANCH  13  23
ATOM     23  O   UNL     1       3.842   4.097  19.224  0.00  0.00    +0.000 OA
BRANCH  23  25
ATOM     24  C   UNL     1       3.203   2.013  18.240  0.00  0.00    +0.000 C 
ATOM     25  C   UNL     1       3.869   3.370  18.049  0.00  0.00    +0.000 C 
ENDBRANCH  23  25
ENDBRANCH  13  23
ENDBRANCH   1  18
BRANCH   3  26
ATOM     26  C   UNL     1      -2.638  12.791  20.510  0.00  0.00    +0.000 C 
BRANCH  26  27
ATOM     27  C   UNL     1      -2.511  12.961  22.051  0.00  0.00    +0.000 C 
ATOM     28  C   UNL     1      -3.786  12.503  22.772  0.00  0.00    +0.000 C 
ATOM     29  C   UNL     1      -4.925  13.497  22.539  0.00  0.00    +0.000 C 
ATOM     30  N   UNL     1      -4.585  14.836  23.025  0.00  0.00    +0.000 N 
ATOM     31  C   UNL     1      -5.525  15.503  23.806  0.00  0.00    +0.000 C 
ATOM     32  C   UNL     1      -5.515  16.966  24.188  0.00  0.00    +0.000 C 
ATOM     33  O   UNL     1      -6.525  14.906  24.183  0.00  0.00    +0.000 OA
ATOM     34  C   UNL     1      -3.329  15.410  22.506  0.00  0.00    +0.000 C 
ATOM     35  C   UNL     1      -2.153  14.378  22.576  0.00  0.00    +0.000 C 
ENDBRANCH  26  27
ENDBRANCH   3  26
TORSDOF 5
ENDMDL
MODEL 8
REMARK VINA RESULT:      -8.1      4.096      9.937
REMARK  Name = 
REMARK  7 active torsions:
REMARK  status: ('A' for Active; 'I' for Inactive)
REMARK    1  A    between atoms: C_1  and  C_2
REMARK    2  A    between atoms: C_2  and  O_3
REMARK    3  A    between atoms: O_3  and  C_4
REMARK    4  A    between atoms: C_9  and  C_10
REMARK    5  A    between atoms: N_12  and  C_13
REMARK    6  A    between atoms: C_13  and  C_14
REMARK    7  A    between atoms: C_18  and  C_19
REMARK                            x       y       z     vdW  Elec       q    Type
REMARK                         _______ _______ _______ _____ _____    ______ ____
ROOT
ATOM      1  C   UNL     1       0.877   9.453  19.180  0.00  0.00    +0.000 A 
ATOM      2  N   UNL     1       0.225  10.093  18.164  0.00  0.00    +0.000 NA
ATOM      3  N   UNL     1      -0.653  10.934  18.702  0.00  0.00    +0.000 N 
ATOM      4  C   UNL     1      -0.531  10.903  20.036  0.00  0.00    +0.000 A 
ATOM      5  N   UNL     1      -1.230  11.638  20.927  0.00  0.00    +0.000 NA
ATOM      6  C   UNL     1      -0.958  11.481  22.249  0.00  0.00    +0.000 A 
ATOM      7  N   UNL     1       0.001  10.598  22.656  0.00  0.00    +0.000 NA
ATOM      8  C   UNL     1       0.718   9.841  21.773  0.00  0.00    +0.000 A 
ATOM      9  N   UNL     1       1.755   9.027  22.284  0.00  0.00    +0.000 N 
ATOM     10  C   UNL     1       0.424   9.993  20.398  0.00  0.00    +0.000 A 
ATOM     11  H   UNL     1       1.869   8.930  23.303  0.00  0.00    +0.000 HD
ATOM     12  H   UNL     1       2.490   8.630  21.691  0.00  0.00    +0.000 HD
ENDROOT
BRANCH   1  18
ATOM     13  C   UNL     1       5.442   5.287  17.084  0.00  0.00    +0.000 A 
ATOM     14  C   UNL     1       5.369   6.403  16.224  0.00  0.00    +0.000 A 
ATOM     15  C   UNL     1       4.469   7.435  16.482  0.00  0.00    +0.000 A 
ATOM     16  C   UNL     1       3.619   7.370  17.593  0.00  0.00    +0.000 A 
ATOM     17  C   UNL     1       2.719   8.409  17.851  0.00  0.00    +0.000 A 
ATOM     18  C   UNL     1       1.834   8.347  18.938  0.00  0.00    +0.000 A 
ATOM     19  C   UNL     1       1.909   7.247  19.813  0.00  0.00    +0.000 A 
ATOM     20  C   UNL     1       2.814   6.202  19.562  0.00  0.00    +0.000 A 
ATOM     21  C   UNL     1       3.670   6.252  18.453  0.00  0.00    +0.000 A 
ATOM     22  C   UNL     1       4.583   5.218  18.190  0.00  0.00    +0.000 A 
BRANCH  13  23
ATOM     23  O   UNL     1       6.328   4.271  16.898  0.00  0.00    +0.000 OA
BRANCH  23  25
ATOM     24  C   UNL     1       6.089   3.822  14.562  0.00  0.00    +0.000 C 
ATOM     25  C   UNL     1       7.036   3.996  15.743  0.00  0.00    +0.000 C 
ENDBRANCH  23  25
ENDBRANCH  13  23
ENDBRANCH   1  18
BRANCH   3  26
ATOM     26  C   UNL     1      -1.592  11.761  17.936  0.00  0.00    +0.000 C 
BRANCH  26  27
ATOM     27  C   UNL     1      -2.531  10.895  17.049  0.00  0.00    +0.000 C 
ATOM     28  C   UNL     1      -3.756  11.694  16.582  0.00  0.00    +0.000 C 
ATOM     29  C   UNL     1      -4.719  11.934  17.745  0.00  0.00    +0.000 C 
ATOM     30  N   UNL     1      -5.193  10.675  18.327  0.00  0.00    +0.000 N 
ATOM     31  C   UNL     1      -6.559  10.538  18.556  0.00  0.00    +0.000 C 
ATOM     32  C   UNL     1      -7.239   9.467  19.379  0.00  0.00    +0.000 C 
ATOM     33  O   UNL     1      -7.327  11.394  18.137  0.00  0.00    +0.000 OA
ATOM     34  C   UNL     1      -4.145   9.729  18.755  0.00  0.00    +0.000 C 
ATOM     35  C   UNL     1      -3.040   9.559  17.658  0.00  0.00    +0.000 C 
ENDBRANCH  26  27
ENDBRANCH   3  26
TORSDOF 5
ENDMDL
MODEL 9
REMARK VINA RESULT:      -8.1      4.729     11.604
REMARK  Name = 
REMARK  7 active torsions:
REMARK  status: ('A' for Active; 'I' for Inactive)
REMARK    1  A    between atoms: C_1  and  C_2
REMARK    2  A    between atoms: C_2  and  O_3
REMARK    3  A    between atoms: O_3  and  C_4
REMARK    4  A    between atoms: C_9  and  C_10
REMARK    5  A    between atoms: N_12  and  C_13
REMARK    6  A    between atoms: C_13  and  C_14
REMARK    7  A    between atoms: C_18  and  C_19
REMARK                            x       y       z     vdW  Elec       q    Type
REMARK                         _______ _______ _______ _____ _____    ______ ____
ROOT
ATOM      1  C   UNL     1       0.449  11.286  19.732  0.00  0.00    +0.000 A 
ATOM      2  N   UNL     1      -0.627  11.318  20.574  0.00  0.00    +0.000 NA
ATOM      3  N   UNL     1      -0.878  12.588  20.875  0.00  0.00    +0.000 N 
ATOM      4  C   UNL     1      -0.037  13.377  20.193  0.00  0.00    +0.000 A 
ATOM      5  N   UNL     1      -0.001  14.727  20.212  0.00  0.00    +0.000 NA
ATOM      6  C   UNL     1       0.919  15.359  19.439  0.00  0.00    +0.000 A 
ATOM      7  N   UNL     1       1.783  14.640  18.664  0.00  0.00    +0.000 NA
ATOM      8  C   UNL     1       1.767  13.274  18.631  0.00  0.00    +0.000 A 
ATOM      9  N   UNL     1       2.636  12.621  17.726  0.00  0.00    +0.000 N 
ATOM     10  C   UNL     1       0.820  12.613  19.448  0.00  0.00    +0.000 A 
ATOM     11  H   UNL     1       3.334  13.171  17.205  0.00  0.00    +0.000 HD
ATOM     12  H   UNL     1       2.518  11.640  17.456  0.00  0.00    +0.000 HD
ENDROOT
BRANCH   1  18
ATOM     13  C   UNL     1       2.966   5.306  19.039  0.00  0.00    +0.000 A 
ATOM     14  C   UNL     1       2.444   5.466  20.339  0.00  0.00    +0.000 A 
ATOM     15  C   UNL     1       1.841   6.666  20.714  0.00  0.00    +0.000 A 
ATOM     16  C   UNL     1       1.756   7.728  19.806  0.00  0.00    +0.000 A 
ATOM     17  C   UNL     1       1.147   8.929  20.184  0.00  0.00    +0.000 A 
ATOM     18  C   UNL     1       1.084  10.017  19.302  0.00  0.00    +0.000 A 
ATOM     19  C   UNL     1       1.586   9.863  17.996  0.00  0.00    +0.000 A 
ATOM     20  C   UNL     1       2.196   8.658  17.608  0.00  0.00    +0.000 A 
ATOM     21  C   UNL     1       2.288   7.586  18.506  0.00  0.00    +0.000 A 
ATOM     22  C   UNL     1       2.891   6.374  18.134  0.00  0.00    +0.000 A 
BRANCH  13  23
ATOM     23  O   UNL     1       3.530   4.143  18.611  0.00  0.00    +0.000 OA
BRANCH  23  25
ATOM     24  C   UNL     1       2.224   2.221  18.048  0.00  0.00    +0.000 C 
ATOM     25  C   UNL     1       3.106   3.361  17.554  0.00  0.00    +0.000 C 
ENDBRANCH  23  25
ENDBRANCH  13  23
ENDBRANCH   1  18
BRANCH   3  26
ATOM     26  C   UNL     1      -1.923  13.034  21.805  0.00  0.00    +0.000 C 
BRANCH  26  27
ATOM     27  C   UNL     1      -3.183  13.545  21.051  0.00  0.00    +0.000 C 
ATOM     28  C   UNL     1      -3.521  14.991  21.440  0.00  0.00    +0.000 C 
ATOM     29  C   UNL     1      -4.080  15.051  22.862  0.00  0.00    +0.000 C 
ATOM     30  N   UNL     1      -5.298  14.247  23.001  0.00  0.00    +0.000 N 
ATOM     31  C   UNL     1      -6.392  14.828  23.637  0.00  0.00    +0.000 C 
ATOM     32  C   UNL     1      -7.636  14.124  24.130  0.00  0.00    +0.000 C 
ATOM     33  O   UNL     1      -6.358  16.018  23.922  0.00  0.00    +0.000 OA
ATOM     34  C   UNL     1      -5.189  12.836  22.584  0.00  0.00    +0.000 C 
ATOM     35  C   UNL     1      -4.479  12.700  21.194  0.00  0.00    +0.000 C 
ENDBRANCH  26  27
ENDBRANCH   3  26
TORSDOF 5
ENDMDL
