MODEL 1
REMARK VINA RESULT:      -8.2      0.000      0.000
REMARK  Name = 
REMARK  4 active torsions:
REMARK  status: ('A' for Active; 'I' for Inactive)
REMARK    1  A    between atoms: C_1  and  C_2
REMARK    2  A    between atoms: C_4  and  C_5
REMARK    3  A    between atoms: C_8  and  C_9
REMARK    4  A    between atoms: C_9  and  C_10
REMARK                            x       y       z     vdW  Elec       q    Type
REMARK                         _______ _______ _______ _____ _____    ______ ____
ROOT
ATOM      1  C   UNL     1       7.251   6.574  17.493  0.00  0.00    +0.000 C 
ATOM      2  O   UNL     1       7.528   6.752  16.293  0.00  0.00    +0.000 OA
ATOM      3  N   UNL     1       6.012   5.964  17.779  0.00  0.00    +0.000 N 
ATOM      4  C   UNL     1       4.960   5.985  16.742  0.00  0.00    +0.000 C 
ATOM      5  C   UNL     1       3.694   6.344  17.521  0.00  0.00    +0.000 C 
ATOM      6  N   UNL     1       4.014   5.827  18.846  0.00  0.00    +0.000 N 
ATOM      7  C   UNL     1       5.377   5.475  18.942  0.00  0.00    +0.000 A 
ATOM      8  N   UNL     1       5.418   4.252  19.470  0.00  0.00    +0.000 NA
ATOM      9  C   UNL     1       4.088   3.896  19.792  0.00  0.00    +0.000 A 
ATOM     10  C   UNL     1       3.488   2.669  20.206  0.00  0.00    +0.000 A 
ATOM     11  C   UNL     1       2.095   2.604  20.448  0.00  0.00    +0.000 A 
ATOM     12  C   UNL     1       1.290   3.731  20.298  0.00  0.00    +0.000 A 
ATOM     13  C   UNL     1       1.836   4.928  19.824  0.00  0.00    +0.000 A 
ATOM     14  C   UNL     1       3.215   4.963  19.545  0.00  0.00    +0.000 A 
ENDROOT
BRANCH   1  15
ATOM     15  C   UNL     1       8.216   7.148  18.557  0.00  0.00    +0.000 C 
BRANCH  15  23
ATOM     16  C   UNL     1      11.301  13.679  20.099  0.00  0.00    +0.000 C 
ATOM     17  C   UNL     1      10.359  12.664  19.470  0.00  0.00    +0.000 A 
ATOM     18  C   UNL     1       9.389  13.200  18.469  0.00  0.00    +0.000 A 
ATOM     19  C   UNL     1       8.549  12.317  17.901  0.00  0.00    +0.000 A 
ATOM     20  C   UNL     1       7.562  12.825  16.888  0.00  0.00    +0.000 C 
ATOM     21  N   UNL     1       8.632  10.952  18.279  0.00  0.00    +0.000 N 
ATOM     22  C   UNL     1       7.934   9.806  17.883  0.00  0.00    +0.000 A 
ATOM     23  C   UNL     1       8.458   8.717  18.583  0.00  0.00    +0.000 A 
ATOM     24  N   UNL     1       9.476   9.214  19.402  0.00  0.00    +0.000 NA
ATOM     25  C   UNL     1       9.570  10.524  19.224  0.00  0.00    +0.000 A 
ATOM     26  N   UNL     1      10.440  11.413  19.820  0.00  0.00    +0.000 NA
ENDBRANCH  15  23
ENDBRANCH   1  15
TORSDOF 2
ENDMDL
MODEL 2
REMARK VINA RESULT:      -8.0      5.935      9.081
REMARK  Name = 
REMARK  4 active torsions:
REMARK  status: ('A' for Active; 'I' for Inactive)
REMARK    1  A    between atoms: C_1  and  C_2
REMARK    2  A    between atoms: C_4  and  C_5
REMARK    3  A    between atoms: C_8  and  C_9
REMARK    4  A    between atoms: C_9  and  C_10
REMARK                            x       y       z     vdW  Elec       q    Type
REMARK                         _______ _______ _______ _____ _____    ______ ____
ROOT
ATOM      1  C   UNL     1       0.720  10.351  20.827  0.00  0.00    +0.000 C 
ATOM      2  O   UNL     1       1.520  11.186  21.286  0.00  0.00    +0.000 OA
ATOM      3  N   UNL     1      -0.214  10.815  19.879  0.00  0.00    +0.000 N 
ATOM      4  C   UNL     1      -0.497  12.264  19.818  0.00  0.00    +0.000 C 
ATOM      5  C   UNL     1      -2.020  12.330  19.693  0.00  0.00    +0.000 C 
ATOM      6  N   UNL     1      -2.310  11.057  19.042  0.00  0.00    +0.000 N 
ATOM      7  C   UNL     1      -1.179  10.215  19.040  0.00  0.00    +0.000 A 
ATOM      8  N   UNL     1      -1.043   9.764  17.793  0.00  0.00    +0.000 NA
ATOM      9  C   UNL     1      -2.148  10.247  17.056  0.00  0.00    +0.000 A 
ATOM     10  C   UNL     1      -2.455  10.251  15.662  0.00  0.00    +0.000 A 
ATOM     11  C   UNL     1      -3.659  10.835  15.199  0.00  0.00    +0.000 A 
ATOM     12  C   UNL     1      -4.566  11.403  16.091  0.00  0.00    +0.000 A 
ATOM     13  C   UNL     1      -4.260  11.479  17.454  0.00  0.00    +0.000 A 
ATOM     14  C   UNL     1      -3.039  10.935  17.890  0.00  0.00    +0.000 A 
ENDROOT
BRANCH   1  15
ATOM     15  C   UNL     1       0.732   8.924  21.425  0.00  0.00    +0.000 C 
BRANCH  15  23
ATOM     16  C   UNL     1       4.892   5.585  16.318  0.00  0.00    +0.000 C 
ATOM     17  C   UNL     1       4.013   5.754  17.546  0.00  0.00    +0.000 A 
ATOM     18  C   UNL     1       3.778   4.526  18.361  0.00  0.00    +0.000 A 
ATOM     19  C   UNL     1       3.004   4.657  19.454  0.00  0.00    +0.000 A 
ATOM     20  C   UNL     1       2.750   3.439  20.296  0.00  0.00    +0.000 C 
ATOM     21  N   UNL     1       2.465   5.933  19.761  0.00  0.00    +0.000 N 
ATOM     22  C   UNL     1       1.653   6.403  20.799  0.00  0.00    +0.000 A 
ATOM     23  C   UNL     1       1.449   7.771  20.603  0.00  0.00    +0.000 A 
ATOM     24  N   UNL     1       2.143   8.122  19.441  0.00  0.00    +0.000 NA
ATOM     25  C   UNL     1       2.732   7.041  18.949  0.00  0.00    +0.000 A 
ATOM     26  N   UNL     1       3.522   6.928  17.824  0.00  0.00    +0.000 NA
ENDBRANCH  15  23
ENDBRANCH   1  15
TORSDOF 2
ENDMDL
MODEL 3
REMARK VINA RESULT:      -7.9      5.951      9.201
REMARK  Name = 
REMARK  4 active torsions:
REMARK  status: ('A' for Active; 'I' for Inactive)
REMARK    1  A    between atoms: C_1  and  C_2
REMARK    2  A    between atoms: C_4  and  C_5
REMARK    3  A    between atoms: C_8  and  C_9
REMARK    4  A    between atoms: C_9  and  C_10
REMARK                            x       y       z     vdW  Elec       q    Type
REMARK                         _______ _______ _______ _____ _____    ______ ____
ROOT
ATOM      1  C   UNL     1       0.795  10.209  20.810  0.00  0.00    +0.000 C 
ATOM      2  O   UNL     1       1.602  11.017  21.303  0.00  0.00    +0.000 OA
ATOM      3  N   UNL     1      -0.168  10.730  19.922  0.00  0.00    +0.000 N 
ATOM      4  C   UNL     1      -0.461  12.177  19.968  0.00  0.00    +0.000 C 
ATOM      5  C   UNL     1      -1.988  12.239  19.890  0.00  0.00    +0.000 C 
ATOM      6  N   UNL     1      -2.288  11.012  19.162  0.00  0.00    +0.000 N 
ATOM      7  C   UNL     1      -1.152  10.180  19.071  0.00  0.00    +0.000 A 
ATOM      8  N   UNL     1      -1.049   9.816  17.793  0.00  0.00    +0.000 NA
ATOM      9  C   UNL     1      -2.177  10.340  17.121  0.00  0.00    +0.000 A 
ATOM     10  C   UNL     1      -2.523  10.437  15.740  0.00  0.00    +0.000 A 
ATOM     11  C   UNL     1      -3.742  11.041  15.351  0.00  0.00    +0.000 A 
ATOM     12  C   UNL     1      -4.628  11.540  16.304  0.00  0.00    +0.000 A 
ATOM     13  C   UNL     1      -4.284  11.525  17.660  0.00  0.00    +0.000 A 
ATOM     14  C   UNL     1      -3.048  10.962  18.024  0.00  0.00    +0.000 A 
ENDROOT
BRANCH   1  15
ATOM     15  C   UNL     1       0.833   8.746  21.309  0.00  0.00    +0.000 C 
BRANCH  15  23
ATOM     16  C   UNL     1       3.299   2.242  18.825  0.00  0.00    +0.000 C 
ATOM     17  C   UNL     1       3.106   3.747  18.921  0.00  0.00    +0.000 A 
ATOM     18  C   UNL     1       3.780   4.564  17.869  0.00  0.00    +0.000 A 
ATOM     19  C   UNL     1       3.619   5.897  17.936  0.00  0.00    +0.000 A 
ATOM     20  C   UNL     1       4.284   6.747  16.889  0.00  0.00    +0.000 C 
ATOM     21  N   UNL     1       2.834   6.441  18.984  0.00  0.00    +0.000 N 
ATOM     22  C   UNL     1       2.468   7.747  19.328  0.00  0.00    +0.000 A 
ATOM     23  C   UNL     1       1.657   7.684  20.463  0.00  0.00    +0.000 A 
ATOM     24  N   UNL     1       1.535   6.333  20.801  0.00  0.00    +0.000 NA
ATOM     25  C   UNL     1       2.231   5.610  19.935  0.00  0.00    +0.000 A 
ATOM     26  N   UNL     1       2.383   4.240  19.886  0.00  0.00    +0.000 NA
ENDBRANCH  15  23
ENDBRANCH   1  15
TORSDOF 2
ENDMDL
MODEL 4
REMARK VINA RESULT:      -7.7      0.748      1.806
REMARK  Name = 
REMARK  4 active torsions:
REMARK  status: ('A' for Active; 'I' for Inactive)
REMARK    1  A    between atoms: C_1  and  C_2
REMARK    2  A    between atoms: C_4  and  C_5
REMARK    3  A    between atoms: C_8  and  C_9
REMARK    4  A    between atoms: C_9  and  C_10
REMARK                            x       y       z     vdW  Elec       q    Type
REMARK                         _______ _______ _______ _____ _____    ______ ____
ROOT
ATOM      1  C   UNL     1       7.266   6.737  17.496  0.00  0.00    +0.000 C 
ATOM      2  O   UNL     1       7.526   6.981  16.304  0.00  0.00    +0.000 OA
ATOM      3  N   UNL     1       6.034   6.107  17.765  0.00  0.00    +0.000 N 
ATOM      4  C   UNL     1       4.967   6.180  16.745  0.00  0.00    +0.000 C 
ATOM      5  C   UNL     1       3.710   6.491  17.559  0.00  0.00    +0.000 C 
ATOM      6  N   UNL     1       4.051   5.903  18.850  0.00  0.00    +0.000 N 
ATOM      7  C   UNL     1       5.416   5.553  18.908  0.00  0.00    +0.000 A 
ATOM      8  N   UNL     1       5.468   4.303  19.368  0.00  0.00    +0.000 NA
ATOM      9  C   UNL     1       4.144   3.924  19.688  0.00  0.00    +0.000 A 
ATOM     10  C   UNL     1       3.554   2.674  20.042  0.00  0.00    +0.000 A 
ATOM     11  C   UNL     1       2.165   2.590  20.299  0.00  0.00    +0.000 A 
ATOM     12  C   UNL     1       1.354   3.720  20.222  0.00  0.00    +0.000 A 
ATOM     13  C   UNL     1       1.890   4.944  19.807  0.00  0.00    +0.000 A 
ATOM     14  C   UNL     1       3.264   4.999  19.512  0.00  0.00    +0.000 A 
ENDROOT
BRANCH   1  15
ATOM     15  C   UNL     1       8.243   7.256  18.577  0.00  0.00    +0.000 C 
BRANCH  15  23
ATOM     16  C   UNL     1       7.749  14.502  17.234  0.00  0.00    +0.000 C 
ATOM     17  C   UNL     1       8.251  13.198  17.834  0.00  0.00    +0.000 A 
ATOM     18  C   UNL     1       9.335  13.318  18.853  0.00  0.00    +0.000 A 
ATOM     19  C   UNL     1       9.791  12.175  19.395  0.00  0.00    +0.000 A 
ATOM     20  C   UNL     1      10.881  12.262  20.426  0.00  0.00    +0.000 C 
ATOM     21  N   UNL     1       9.226  10.944  18.974  0.00  0.00    +0.000 N 
ATOM     22  C   UNL     1       9.457   9.612  19.335  0.00  0.00    +0.000 A 
ATOM     23  C   UNL     1       8.585   8.807  18.599  0.00  0.00    +0.000 A 
ATOM     24  N   UNL     1       7.826   9.661  17.794  0.00  0.00    +0.000 NA
ATOM     25  C   UNL     1       8.210  10.911  18.013  0.00  0.00    +0.000 A 
ATOM     26  N   UNL     1       7.728  12.071  17.443  0.00  0.00    +0.000 NA
ENDBRANCH  15  23
ENDBRANCH   1  15
TORSDOF 2
ENDMDL
MODEL 5
REMARK VINA RESULT:      -7.6      5.885      8.768
REMARK  Name = 
REMARK  4 active torsions:
REMARK  status: ('A' for Active; 'I' for Inactive)
REMARK    1  A    between atoms: C_1  and  C_2
REMARK    2  A    between atoms: C_4  and  C_5
REMARK    3  A    between atoms: C_8  and  C_9
REMARK    4  A    between atoms: C_9  and  C_10
REMARK                            x       y       z     vdW  Elec       q    Type
REMARK                         _______ _______ _______ _____ _____    ______ ____
ROOT
ATOM      1  C   UNL     1       1.138   9.257  18.861  0.00  0.00    +0.000 C 
ATOM      2  O   UNL     1       1.040   9.213  17.622  0.00  0.00    +0.000 OA
ATOM      3  N   UNL     1       0.510  10.338  19.514  0.00  0.00    +0.000 N 
ATOM      4  C   UNL     1       0.184  11.544  18.726  0.00  0.00    +0.000 C 
ATOM      5  C   UNL     1       0.611  12.696  19.637  0.00  0.00    +0.000 C 
ATOM      6  N   UNL     1       0.463  12.090  20.955  0.00  0.00    +0.000 N 
ATOM      7  C   UNL     1       0.266  10.697  20.858  0.00  0.00    +0.000 A 
ATOM      8  N   UNL     1      -0.781  10.406  21.628  0.00  0.00    +0.000 NA
ATOM      9  C   UNL     1      -1.163  11.603  22.277  0.00  0.00    +0.000 A 
ATOM     10  C   UNL     1      -2.299  11.958  23.065  0.00  0.00    +0.000 A 
ATOM     11  C   UNL     1      -2.425  13.269  23.583  0.00  0.00    +0.000 A 
ATOM     12  C   UNL     1      -1.444  14.229  23.346  0.00  0.00    +0.000 A 
ATOM     13  C   UNL     1      -0.356  13.933  22.517  0.00  0.00    +0.000 A 
ATOM     14  C   UNL     1      -0.270  12.639  21.973  0.00  0.00    +0.000 A 
ENDROOT
BRANCH   1  15
ATOM     15  C   UNL     1       2.037   8.210  19.559  0.00  0.00    +0.000 C 
BRANCH  15  23
ATOM     16  C   UNL     1       6.737   4.890  14.930  0.00  0.00    +0.000 C 
ATOM     17  C   UNL     1       5.587   5.058  15.910  0.00  0.00    +0.000 A 
ATOM     18  C   UNL     1       4.868   3.809  16.300  0.00  0.00    +0.000 A 
ATOM     19  C   UNL     1       3.849   3.937  17.168  0.00  0.00    +0.000 A 
ATOM     20  C   UNL     1       3.106   2.698  17.581  0.00  0.00    +0.000 C 
ATOM     21  N   UNL     1       3.522   5.229  17.653  0.00  0.00    +0.000 N 
ATOM     22  C   UNL     1       2.554   5.698  18.548  0.00  0.00    +0.000 A 
ATOM     23  C   UNL     1       2.709   7.081  18.667  0.00  0.00    +0.000 A 
ATOM     24  N   UNL     1       3.775   7.443  17.839  0.00  0.00    +0.000 NA
ATOM     25  C   UNL     1       4.244   6.355  17.243  0.00  0.00    +0.000 A 
ATOM     26  N   UNL     1       5.292   6.246  16.353  0.00  0.00    +0.000 NA
ENDBRANCH  15  23
ENDBRANCH   1  15
TORSDOF 2
ENDMDL
MODEL 6
REMARK VINA RESULT:      -7.6      5.217      7.242
REMARK  Name = 
REMARK  4 active torsions:
REMARK  status: ('A' for Active; 'I' for Inactive)
REMARK    1  A    between atoms: C_1  and  C_2
REMARK    2  A    between atoms: C_4  and  C_5
REMARK    3  A    between atoms: C_8  and  C_9
REMARK    4  A    between atoms: C_9  and  C_10
REMARK                            x       y       z     vdW  Elec       q    Type
REMARK                         _______ _______ _______ _____ _____    ______ ____
ROOT
ATOM      1  C   UNL     1       1.623   4.821  20.106  0.00  0.00    +0.000 C 
ATOM      2  O   UNL     1       0.691   4.007  20.232  0.00  0.00    +0.000 OA
ATOM      3  N   UNL     1       2.572   4.554  19.098  0.00  0.00    +0.000 N 
ATOM      4  C   UNL     1       2.681   3.175  18.579  0.00  0.00    +0.000 C 
ATOM      5  C   UNL     1       4.190   2.936  18.503  0.00  0.00    +0.000 C 
ATOM      6  N   UNL     1       4.687   4.294  18.317  0.00  0.00    +0.000 N 
ATOM      7  C   UNL     1       3.671   5.246  18.543  0.00  0.00    +0.000 A 
ATOM      8  N   UNL     1       3.700   6.085  17.508  0.00  0.00    +0.000 NA
ATOM      9  C   UNL     1       4.797   5.708  16.700  0.00  0.00    +0.000 A 
ATOM     10  C   UNL     1       5.221   6.104  15.396  0.00  0.00    +0.000 A 
ATOM     11  C   UNL     1       6.380   5.533  14.819  0.00  0.00    +0.000 A 
ATOM     12  C   UNL     1       7.131   4.587  15.513  0.00  0.00    +0.000 A 
ATOM     13  C   UNL     1       6.702   4.125  16.762  0.00  0.00    +0.000 A 
ATOM     14  C   UNL     1       5.523   4.671  17.300  0.00  0.00    +0.000 A 
ENDROOT
BRANCH   1  15
ATOM     15  C   UNL     1       1.732   5.969  21.136  0.00  0.00    +0.000 C 
BRANCH  15  23
ATOM     16  C   UNL     1      -1.407  12.653  21.180  0.00  0.00    +0.000 C 
ATOM     17  C   UNL     1      -0.524  11.501  20.731  0.00  0.00    +0.000 A 
ATOM     18  C   UNL     1       0.358  11.768  19.557  0.00  0.00    +0.000 A 
ATOM     19  C   UNL     1       1.149  10.760  19.146  0.00  0.00    +0.000 A 
ATOM     20  C   UNL     1       2.050  10.998  17.967  0.00  0.00    +0.000 C 
ATOM     21  N   UNL     1       1.098   9.523  19.839  0.00  0.00    +0.000 N 
ATOM     22  C   UNL     1       1.776   8.310  19.682  0.00  0.00    +0.000 A 
ATOM     23  C   UNL     1       1.331   7.434  20.675  0.00  0.00    +0.000 A 
ATOM     24  N   UNL     1       0.381   8.127  21.431  0.00  0.00    +0.000 NA
ATOM     25  C   UNL     1       0.244   9.349  20.934  0.00  0.00    +0.000 A 
ATOM     26  N   UNL     1      -0.575  10.368  21.372  0.00  0.00    +0.000 NA
ENDBRANCH  15  23
ENDBRANCH   1  15
TORSDOF 2
ENDMDL
MODEL 7
REMARK VINA RESULT:      -7.6      5.316      7.546
REMARK  Name = 
REMARK  4 active torsions:
REMARK  status: ('A' for Active; 'I' for Inactive)
REMARK    1  A    between atoms: C_1  and  C_2
REMARK    2  A    between atoms: C_4  and  C_5
REMARK    3  A    between atoms: C_8  and  C_9
REMARK    4  A    between atoms: C_9  and  C_10
REMARK                            x       y       z     vdW  Elec       q    Type
REMARK                         _______ _______ _______ _____ _____    ______ ____
ROOT
ATOM      1  C   UNL     1       2.529   8.576  17.849  0.00  0.00    +0.000 C 
ATOM      2  O   UNL     1       3.514   9.175  17.382  0.00  0.00    +0.000 OA
ATOM      3  N   UNL     1       2.735   7.252  18.288  0.00  0.00    +0.000 N 
ATOM      4  C   UNL     1       3.913   6.517  17.782  0.00  0.00    +0.000 C 
ATOM      5  C   UNL     1       3.356   5.132  17.447  0.00  0.00    +0.000 C 
ATOM      6  N   UNL     1       2.236   5.040  18.376  0.00  0.00    +0.000 N 
ATOM      7  C   UNL     1       1.964   6.288  18.974  0.00  0.00    +0.000 A 
ATOM      8  N   UNL     1       1.867   6.068  20.285  0.00  0.00    +0.000 NA
ATOM      9  C   UNL     1       1.977   4.673  20.480  0.00  0.00    +0.000 A 
ATOM     10  C   UNL     1       2.127   3.867  21.648  0.00  0.00    +0.000 A 
ATOM     11  C   UNL     1       2.230   2.460  21.534  0.00  0.00    +0.000 A 
ATOM     12  C   UNL     1       2.177   1.837  20.289  0.00  0.00    +0.000 A 
ATOM     13  C   UNL     1       2.104   2.604  19.122  0.00  0.00    +0.000 A 
ATOM     14  C   UNL     1       2.048   4.004  19.251  0.00  0.00    +0.000 A 
ENDROOT
BRANCH   1  15
ATOM     15  C   UNL     1       1.153   9.279  17.788  0.00  0.00    +0.000 C 
BRANCH  15  23
ATOM     16  C   UNL     1      -2.981  13.344  22.364  0.00  0.00    +0.000 C 
ATOM     17  C   UNL     1      -1.998  12.279  21.902  0.00  0.00    +0.000 A 
ATOM     18  C   UNL     1      -1.462  11.377  22.963  0.00  0.00    +0.000 A 
ATOM     19  C   UNL     1      -0.593  10.427  22.573  0.00  0.00    +0.000 A 
ATOM     20  C   UNL     1      -0.035   9.501  23.617  0.00  0.00    +0.000 C 
ATOM     21  N   UNL     1      -0.242  10.341  21.201  0.00  0.00    +0.000 N 
ATOM     22  C   UNL     1       0.600   9.487  20.481  0.00  0.00    +0.000 A 
ATOM     23  C   UNL     1       0.545   9.859  19.136  0.00  0.00    +0.000 A 
ATOM     24  N   UNL     1      -0.336  10.941  19.050  0.00  0.00    +0.000 NA
ATOM     25  C   UNL     1      -0.790  11.223  20.263  0.00  0.00    +0.000 A 
ATOM     26  N   UNL     1      -1.682  12.204  20.641  0.00  0.00    +0.000 NA
ENDBRANCH  15  23
ENDBRANCH   1  15
TORSDOF 2
ENDMDL
MODEL 8
REMARK VINA RESULT:      -7.6      5.423      7.569
REMARK  Name = 
REMARK  4 active torsions:
REMARK  status: ('A' for Active; 'I' for Inactive)
REMARK    1  A    between atoms: C_1  and  C_2
REMARK    2  A    between atoms: C_4  and  C_5
REMARK    3  A    between atoms: C_8  and  C_9
REMARK    4  A    between atoms: C_9  and  C_10
REMARK                            x       y       z     vdW  Elec       q    Type
REMARK                         _______ _______ _______ _____ _____    ______ ____
ROOT
ATOM      1  C   UNL     1       1.805   5.468  20.223  0.00  0.00    +0.000 C 
ATOM      2  O   UNL     1       0.772   4.802  20.418  0.00  0.00    +0.000 OA
ATOM      3  N   UNL     1       2.639   5.057  19.163  0.00  0.00    +0.000 N 
ATOM      4  C   UNL     1       2.509   3.673  18.660  0.00  0.00    +0.000 C 
ATOM      5  C   UNL     1       3.959   3.212  18.496  0.00  0.00    +0.000 C 
ATOM      6  N   UNL     1       4.639   4.480  18.259  0.00  0.00    +0.000 N 
ATOM      7  C   UNL     1       3.792   5.574  18.531  0.00  0.00    +0.000 A 
ATOM      8  N   UNL     1       3.879   6.393  17.484  0.00  0.00    +0.000 NA
ATOM      9  C   UNL     1       4.856   5.852  16.616  0.00  0.00    +0.000 A 
ATOM     10  C   UNL     1       5.251   6.172  15.283  0.00  0.00    +0.000 A 
ATOM     11  C   UNL     1       6.274   5.431  14.645  0.00  0.00    +0.000 A 
ATOM     12  C   UNL     1       6.919   4.388  15.306  0.00  0.00    +0.000 A 
ATOM     13  C   UNL     1       6.505   4.003  16.586  0.00  0.00    +0.000 A 
ATOM     14  C   UNL     1       5.456   4.722  17.187  0.00  0.00    +0.000 A 
ENDROOT
BRANCH   1  15
ATOM     15  C   UNL     1       2.148   6.593  21.227  0.00  0.00    +0.000 C 
BRANCH  15  23
ATOM     16  C   UNL     1      -0.899  12.575  18.148  0.00  0.00    +0.000 C 
ATOM     17  C   UNL     1      -0.507  11.572  19.221  0.00  0.00    +0.000 A 
ATOM     18  C   UNL     1      -1.045  11.829  20.589  0.00  0.00    +0.000 A 
ATOM     19  C   UNL     1      -0.710  10.950  21.551  0.00  0.00    +0.000 A 
ATOM     20  C   UNL     1      -1.238  11.181  22.939  0.00  0.00    +0.000 C 
ATOM     21  N   UNL     1       0.122   9.851  21.215  0.00  0.00    +0.000 N 
ATOM     22  C   UNL     1       0.635   8.779  21.953  0.00  0.00    +0.000 A 
ATOM     23  C   UNL     1       1.387   7.980  21.090  0.00  0.00    +0.000 A 
ATOM     24  N   UNL     1       1.325   8.577  19.827  0.00  0.00    +0.000 NA
ATOM     25  C   UNL     1       0.587   9.675  19.907  0.00  0.00    +0.000 A 
ATOM     26  N   UNL     1       0.257  10.564  18.906  0.00  0.00    +0.000 NA
ENDBRANCH  15  23
ENDBRANCH   1  15
TORSDOF 2
ENDMDL
MODEL 9
REMARK VINA RESULT:      -7.5      5.295      7.969
REMARK  Name = 
REMARK  4 active torsions:
REMARK  status: ('A' for Active; 'I' for Inactive)
REMARK    1  A    between atoms: C_1  and  C_2
REMARK    2  A    between atoms: C_4  and  C_5
REMARK    3  A    between atoms: C_8  and  C_9
REMARK    4  A    between atoms: C_9  and  C_10
REMARK                            x       y       z     vdW  Elec       q    Type
REMARK                         _______ _______ _______ _____ _____    ______ ____
ROOT
ATOM      1  C   UNL     1       1.799   6.298  20.401  0.00  0.00    +0.000 C 
ATOM      2  O   UNL     1       0.793   5.646  20.732  0.00  0.00    +0.000 OA
ATOM      3  N   UNL     1       2.658   5.709  19.450  0.00  0.00    +0.000 N 
ATOM      4  C   UNL     1       2.589   4.247  19.249  0.00  0.00    +0.000 C 
ATOM      5  C   UNL     1       4.057   3.822  19.185  0.00  0.00    +0.000 C 
ATOM      6  N   UNL     1       4.687   5.039  18.687  0.00  0.00    +0.000 N 
ATOM      7  C   UNL     1       3.793   6.130  18.724  0.00  0.00    +0.000 A 
ATOM      8  N   UNL     1       3.856   6.714  17.527  0.00  0.00    +0.000 NA
ATOM      9  C   UNL     1       4.861   6.044  16.792  0.00  0.00    +0.000 A 
ATOM     10  C   UNL     1       5.253   6.094  15.421  0.00  0.00    +0.000 A 
ATOM     11  C   UNL     1       6.311   5.279  14.952  0.00  0.00    +0.000 A 
ATOM     12  C   UNL     1       6.993   4.426  15.817  0.00  0.00    +0.000 A 
ATOM     13  C   UNL     1       6.585   4.301  17.149  0.00  0.00    +0.000 A 
ATOM     14  C   UNL     1       5.502   5.085  17.587  0.00  0.00    +0.000 A 
ENDROOT
BRANCH   1  15
ATOM     15  C   UNL     1       2.087   7.622  21.146  0.00  0.00    +0.000 C 
BRANCH  15  23
ATOM     16  C   UNL     1      -2.793  12.657  23.464  0.00  0.00    +0.000 C 
ATOM     17  C   UNL     1      -1.927  11.851  22.510  0.00  0.00    +0.000 A 
ATOM     18  C   UNL     1      -1.984  12.252  21.073  0.00  0.00    +0.000 A 
ATOM     19  C   UNL     1      -1.223  11.550  20.214  0.00  0.00    +0.000 A 
ATOM     20  C   UNL     1      -1.257  11.931  18.760  0.00  0.00    +0.000 C 
ATOM     21  N   UNL     1      -0.427  10.489  20.714  0.00  0.00    +0.000 N 
ATOM     22  C   UNL     1       0.462   9.593  20.110  0.00  0.00    +0.000 A 
ATOM     23  C   UNL     1       0.984   8.764  21.105  0.00  0.00    +0.000 A 
ATOM     24  N   UNL     1       0.405   9.165  22.312  0.00  0.00    +0.000 NA
ATOM     25  C   UNL     1      -0.424  10.173  22.077  0.00  0.00    +0.000 A 
ATOM     26  N   UNL     1      -1.197  10.878  22.975  0.00  0.00    +0.000 NA
ENDBRANCH  15  23
ENDBRANCH   1  15
TORSDOF 2
ENDMDL
