MODEL 1
REMARK VINA RESULT:      -6.2      0.000      0.000
REMARK  Name = 
REMARK  2 active torsions:
REMARK  status: ('A' for Active; 'I' for Inactive)
REMARK    1  A    between atoms: C_5  and  C_6
REMARK    2  A    between atoms: C_6  and  C_7
REMARK                            x       y       z     vdW  Elec       q    Type
REMARK                         _______ _______ _______ _____ _____    ______ ____
ROOT
ATOM      1  N   UNL     1       7.855   4.423  16.536  0.00  0.00    +0.000 N 
ATOM      2  C   UNL     1       6.830   4.797  17.317  0.00  0.00    +0.000 A 
ATOM      3  N   UNL     1       6.891   4.798  18.626  0.00  0.00    +0.000 NA
ATOM      4  C   UNL     1       5.693   5.238  19.151  0.00  0.00    +0.000 A 
ATOM      5  C   UNL     1       4.715   5.558  18.230  0.00  0.00    +0.000 A 
ATOM      6  S   UNL     1       5.326   5.286  16.650  0.00  0.00    +0.000 S 
ATOM      7  H   UNL     1       8.598   3.913  16.999  0.00  0.00    +0.000 HD
ATOM      8  H   UNL     1       7.652   4.116  15.594  0.00  0.00    +0.000 HD
ENDROOT
BRANCH   5   9
ATOM      9  C   UNL     1       3.320   6.039  18.458  0.00  0.00    +0.000 C 
BRANCH   9  10
ATOM     10  C   UNL     1       2.367   4.943  18.859  0.00  0.00    +0.000 A 
ATOM     11  C   UNL     1       1.940   4.787  20.180  0.00  0.00    +0.000 A 
ATOM     12  C   UNL     1       1.071   3.750  20.507  0.00  0.00    +0.000 A 
ATOM     13  C   UNL     1       0.649   2.903  19.496  0.00  0.00    +0.000 A 
ATOM     14  N   UNL     1       1.025   3.030  18.206  0.00  0.00    +0.000 NA
ATOM     15  C   UNL     1       1.867   4.049  17.916  0.00  0.00    +0.000 A 
ENDBRANCH   9  10
ENDBRANCH   5   9
TORSDOF 2
ENDMDL
MODEL 2
REMARK VINA RESULT:      -6.2      1.012      1.240
REMARK  Name = 
REMARK  2 active torsions:
REMARK  status: ('A' for Active; 'I' for Inactive)
REMARK    1  A    between atoms: C_5  and  C_6
REMARK    2  A    between atoms: C_6  and  C_7
REMARK                            x       y       z     vdW  Elec       q    Type
REMARK                         _______ _______ _______ _____ _____    ______ ____
ROOT
ATOM      1  N   UNL     1       7.920   4.298  17.687  0.00  0.00    +0.000 N 
ATOM      2  C   UNL     1       6.735   4.907  17.527  0.00  0.00    +0.000 A 
ATOM      3  N   UNL     1       6.409   5.566  16.443  0.00  0.00    +0.000 NA
ATOM      4  C   UNL     1       5.131   6.072  16.568  0.00  0.00    +0.000 A 
ATOM      5  C   UNL     1       4.493   5.805  17.763  0.00  0.00    +0.000 A 
ATOM      6  S   UNL     1       5.545   4.891  18.765  0.00  0.00    +0.000 S 
ATOM      7  H   UNL     1       8.645   4.569  17.033  0.00  0.00    +0.000 HD
ATOM      8  H   UNL     1       8.242   4.117  18.629  0.00  0.00    +0.000 HD
ENDROOT
BRANCH   5   9
ATOM      9  C   UNL     1       3.134   6.216  18.223  0.00  0.00    +0.000 C 
BRANCH   9  10
ATOM     10  C   UNL     1       2.286   5.063  18.692  0.00  0.00    +0.000 A 
ATOM     11  C   UNL     1       1.865   4.951  20.020  0.00  0.00    +0.000 A 
ATOM     12  C   UNL     1       1.096   3.860  20.411  0.00  0.00    +0.000 A 
ATOM     13  C   UNL     1       0.765   2.912  19.457  0.00  0.00    +0.000 A 
ATOM     14  N   UNL     1       1.139   2.992  18.162  0.00  0.00    +0.000 NA
ATOM     15  C   UNL     1       1.881   4.065  17.808  0.00  0.00    +0.000 A 
ENDBRANCH   9  10
ENDBRANCH   5   9
TORSDOF 2
ENDMDL
MODEL 3
REMARK VINA RESULT:      -6.0      1.372      1.906
REMARK  Name = 
REMARK  2 active torsions:
REMARK  status: ('A' for Active; 'I' for Inactive)
REMARK    1  A    between atoms: C_5  and  C_6
REMARK    2  A    between atoms: C_6  and  C_7
REMARK                            x       y       z     vdW  Elec       q    Type
REMARK                         _______ _______ _______ _____ _____    ______ ____
ROOT
ATOM      1  N   UNL     1       7.924   4.302  17.212  0.00  0.00    +0.000 N 
ATOM      2  C   UNL     1       6.806   5.041  17.135  0.00  0.00    +0.000 A 
ATOM      3  N   UNL     1       6.574   5.887  16.163  0.00  0.00    +0.000 NA
ATOM      4  C   UNL     1       5.346   6.490  16.350  0.00  0.00    +0.000 A 
ATOM      5  C   UNL     1       4.654   6.105  17.481  0.00  0.00    +0.000 A 
ATOM      6  S   UNL     1       5.588   4.950  18.341  0.00  0.00    +0.000 S 
ATOM      7  H   UNL     1       8.689   4.599  16.617  0.00  0.00    +0.000 HD
ATOM      8  H   UNL     1       8.203   3.947  18.117  0.00  0.00    +0.000 HD
ENDROOT
BRANCH   5   9
ATOM      9  C   UNL     1       3.327   6.570  17.984  0.00  0.00    +0.000 C 
BRANCH   9  10
ATOM     10  C   UNL     1       2.499   5.471  18.596  0.00  0.00    +0.000 A 
ATOM     11  C   UNL     1       1.980   4.426  17.828  0.00  0.00    +0.000 A 
ATOM     12  C   UNL     1       1.207   3.441  18.435  0.00  0.00    +0.000 A 
ATOM     13  C   UNL     1       0.983   3.528  19.799  0.00  0.00    +0.000 A 
ATOM     14  N   UNL     1       1.480   4.512  20.578  0.00  0.00    +0.000 NA
ATOM     15  C   UNL     1       2.230   5.453  19.963  0.00  0.00    +0.000 A 
ENDBRANCH   9  10
ENDBRANCH   5   9
TORSDOF 2
ENDMDL
MODEL 4
REMARK VINA RESULT:      -6.0      1.453      1.807
REMARK  Name = 
REMARK  2 active torsions:
REMARK  status: ('A' for Active; 'I' for Inactive)
REMARK    1  A    between atoms: C_5  and  C_6
REMARK    2  A    between atoms: C_6  and  C_7
REMARK                            x       y       z     vdW  Elec       q    Type
REMARK                         _______ _______ _______ _____ _____    ______ ____
ROOT
ATOM      1  N   UNL     1       7.531   5.195  14.362  0.00  0.00    +0.000 N 
ATOM      2  C   UNL     1       7.042   5.100  15.608  0.00  0.00    +0.000 A 
ATOM      3  N   UNL     1       7.727   4.607  16.609  0.00  0.00    +0.000 NA
ATOM      4  C   UNL     1       6.968   4.647  17.762  0.00  0.00    +0.000 A 
ATOM      5  C   UNL     1       5.694   5.161  17.624  0.00  0.00    +0.000 A 
ATOM      6  S   UNL     1       5.444   5.601  15.985  0.00  0.00    +0.000 S 
ATOM      7  H   UNL     1       8.365   4.652  14.174  0.00  0.00    +0.000 HD
ATOM      8  H   UNL     1       6.875   5.249  13.593  0.00  0.00    +0.000 HD
ENDROOT
BRANCH   5   9
ATOM      9  C   UNL     1       4.624   5.326  18.652  0.00  0.00    +0.000 C 
BRANCH   9  10
ATOM     10  C   UNL     1       3.549   4.274  18.571  0.00  0.00    +0.000 A 
ATOM     11  C   UNL     1       3.737   2.988  19.084  0.00  0.00    +0.000 A 
ATOM     12  C   UNL     1       2.722   2.044  18.972  0.00  0.00    +0.000 A 
ATOM     13  C   UNL     1       1.541   2.418  18.354  0.00  0.00    +0.000 A 
ATOM     14  N   UNL     1       1.314   3.654  17.859  0.00  0.00    +0.000 NA
ATOM     15  C   UNL     1       2.316   4.553  17.986  0.00  0.00    +0.000 A 
ENDBRANCH   9  10
ENDBRANCH   5   9
TORSDOF 2
ENDMDL
MODEL 5
REMARK VINA RESULT:      -6.0      0.897      1.381
REMARK  Name = 
REMARK  2 active torsions:
REMARK  status: ('A' for Active; 'I' for Inactive)
REMARK    1  A    between atoms: C_5  and  C_6
REMARK    2  A    between atoms: C_6  and  C_7
REMARK                            x       y       z     vdW  Elec       q    Type
REMARK                         _______ _______ _______ _____ _____    ______ ____
ROOT
ATOM      1  N   UNL     1       8.087   4.295  17.220  0.00  0.00    +0.000 N 
ATOM      2  C   UNL     1       6.910   4.686  17.732  0.00  0.00    +0.000 A 
ATOM      3  N   UNL     1       6.732   4.938  19.005  0.00  0.00    +0.000 NA
ATOM      4  C   UNL     1       5.425   5.325  19.228  0.00  0.00    +0.000 A 
ATOM      5  C   UNL     1       4.608   5.351  18.115  0.00  0.00    +0.000 A 
ATOM      6  S   UNL     1       5.517   4.863  16.743  0.00  0.00    +0.000 S 
ATOM      7  H   UNL     1       8.773   3.971  17.891  0.00  0.00    +0.000 HD
ATOM      8  H   UNL     1       8.085   3.796  16.340  0.00  0.00    +0.000 HD
ENDROOT
BRANCH   5   9
ATOM      9  C   UNL     1       3.160   5.700  18.012  0.00  0.00    +0.000 C 
BRANCH   9  10
ATOM     10  C   UNL     1       2.254   4.701  18.683  0.00  0.00    +0.000 A 
ATOM     11  C   UNL     1       1.792   3.564  18.017  0.00  0.00    +0.000 A 
ATOM     12  C   UNL     1       0.943   2.677  18.673  0.00  0.00    +0.000 A 
ATOM     13  C   UNL     1       0.587   2.954  19.982  0.00  0.00    +0.000 A 
ATOM     14  N   UNL     1       1.024   4.033  20.665  0.00  0.00    +0.000 NA
ATOM     15  C   UNL     1       1.851   4.875  20.005  0.00  0.00    +0.000 A 
ENDBRANCH   9  10
ENDBRANCH   5   9
TORSDOF 2
ENDMDL
MODEL 6
REMARK VINA RESULT:      -5.9      1.579      2.279
REMARK  Name = 
REMARK  2 active torsions:
REMARK  status: ('A' for Active; 'I' for Inactive)
REMARK    1  A    between atoms: C_5  and  C_6
REMARK    2  A    between atoms: C_6  and  C_7
REMARK                            x       y       z     vdW  Elec       q    Type
REMARK                         _______ _______ _______ _____ _____    ______ ____
ROOT
ATOM      1  N   UNL     1       8.174   5.522  19.675  0.00  0.00    +0.000 N 
ATOM      2  C   UNL     1       7.400   5.115  18.657  0.00  0.00    +0.000 A 
ATOM      3  N   UNL     1       7.882   4.729  17.503  0.00  0.00    +0.000 NA
ATOM      4  C   UNL     1       6.850   4.362  16.663  0.00  0.00    +0.000 A 
ATOM      5  C   UNL     1       5.578   4.488  17.184  0.00  0.00    +0.000 A 
ATOM      6  S   UNL     1       5.688   5.097  18.785  0.00  0.00    +0.000 S 
ATOM      7  H   UNL     1       9.133   5.746  19.437  0.00  0.00    +0.000 HD
ATOM      8  H   UNL     1       7.762   6.117  20.383  0.00  0.00    +0.000 HD
ENDROOT
BRANCH   5   9
ATOM      9  C   UNL     1       4.259   4.202  16.544  0.00  0.00    +0.000 C 
BRANCH   9  10
ATOM     10  C   UNL     1       3.241   3.636  17.499  0.00  0.00    +0.000 A 
ATOM     11  C   UNL     1       3.277   2.300  17.907  0.00  0.00    +0.000 A 
ATOM     12  C   UNL     1       2.305   1.818  18.778  0.00  0.00    +0.000 A 
ATOM     13  C   UNL     1       1.326   2.691  19.221  0.00  0.00    +0.000 A 
ATOM     14  N   UNL     1       1.266   3.992  18.862  0.00  0.00    +0.000 NA
ATOM     15  C   UNL     1       2.225   4.435  18.019  0.00  0.00    +0.000 A 
ENDBRANCH   9  10
ENDBRANCH   5   9
TORSDOF 2
ENDMDL
MODEL 7
REMARK VINA RESULT:      -5.9      1.653      1.951
REMARK  Name = 
REMARK  2 active torsions:
REMARK  status: ('A' for Active; 'I' for Inactive)
REMARK    1  A    between atoms: C_5  and  C_6
REMARK    2  A    between atoms: C_6  and  C_7
REMARK                            x       y       z     vdW  Elec       q    Type
REMARK                         _______ _______ _______ _____ _____    ______ ____
ROOT
ATOM      1  N   UNL     1       7.392   5.783  16.031  0.00  0.00    +0.000 N 
ATOM      2  C   UNL     1       6.168   5.478  16.488  0.00  0.00    +0.000 A 
ATOM      3  N   UNL     1       5.672   4.267  16.453  0.00  0.00    +0.000 NA
ATOM      4  C   UNL     1       4.404   4.263  16.999  0.00  0.00    +0.000 A 
ATOM      5  C   UNL     1       3.935   5.486  17.436  0.00  0.00    +0.000 A 
ATOM      6  S   UNL     1       5.130   6.681  17.141  0.00  0.00    +0.000 S 
ATOM      7  H   UNL     1       7.827   5.085  15.439  0.00  0.00    +0.000 HD
ATOM      8  H   UNL     1       7.581   6.741  15.768  0.00  0.00    +0.000 HD
ENDROOT
BRANCH   5   9
ATOM      9  C   UNL     1       2.618   5.830  18.050  0.00  0.00    +0.000 C 
BRANCH   9  10
ATOM     10  C   UNL     1       2.151   4.825  19.070  0.00  0.00    +0.000 A 
ATOM     11  C   UNL     1       1.310   3.764  18.727  0.00  0.00    +0.000 A 
ATOM     12  C   UNL     1       0.891   2.870  19.707  0.00  0.00    +0.000 A 
ATOM     13  C   UNL     1       1.335   3.061  21.005  0.00  0.00    +0.000 A 
ATOM     14  N   UNL     1       2.160   4.063  21.374  0.00  0.00    +0.000 NA
ATOM     15  C   UNL     1       2.555   4.915  20.401  0.00  0.00    +0.000 A 
ENDBRANCH   9  10
ENDBRANCH   5   9
TORSDOF 2
ENDMDL
MODEL 8
REMARK VINA RESULT:      -5.8      1.772      2.069
REMARK  Name = 
REMARK  2 active torsions:
REMARK  status: ('A' for Active; 'I' for Inactive)
REMARK    1  A    between atoms: C_5  and  C_6
REMARK    2  A    between atoms: C_6  and  C_7
REMARK                            x       y       z     vdW  Elec       q    Type
REMARK                         _______ _______ _______ _____ _____    ______ ____
ROOT
ATOM      1  N   UNL     1       7.441   5.990  15.937  0.00  0.00    +0.000 N 
ATOM      2  C   UNL     1       6.260   5.616  16.454  0.00  0.00    +0.000 A 
ATOM      3  N   UNL     1       5.562   6.372  17.264  0.00  0.00    +0.000 NA
ATOM      4  C   UNL     1       4.396   5.725  17.621  0.00  0.00    +0.000 A 
ATOM      5  C   UNL     1       4.221   4.464  17.086  0.00  0.00    +0.000 A 
ATOM      6  S   UNL     1       5.577   4.079  16.108  0.00  0.00    +0.000 S 
ATOM      7  H   UNL     1       7.886   6.782  16.386  0.00  0.00    +0.000 HD
ATOM      8  H   UNL     1       8.075   5.269  15.620  0.00  0.00    +0.000 HD
ENDROOT
BRANCH   5   9
ATOM      9  C   UNL     1       3.098   3.500  17.282  0.00  0.00    +0.000 C 
BRANCH   9  10
ATOM     10  C   UNL     1       2.612   3.427  18.706  0.00  0.00    +0.000 A 
ATOM     11  C   UNL     1       1.394   3.989  19.097  0.00  0.00    +0.000 A 
ATOM     12  C   UNL     1       0.993   3.911  20.427  0.00  0.00    +0.000 A 
ATOM     13  C   UNL     1       1.824   3.265  21.328  0.00  0.00    +0.000 A 
ATOM     14  N   UNL     1       2.999   2.696  20.986  0.00  0.00    +0.000 NA
ATOM     15  C   UNL     1       3.362   2.783  19.687  0.00  0.00    +0.000 A 
ENDBRANCH   9  10
ENDBRANCH   5   9
TORSDOF 2
ENDMDL
MODEL 9
REMARK VINA RESULT:      -5.8      2.289      5.432
REMARK  Name = 
REMARK  2 active torsions:
REMARK  status: ('A' for Active; 'I' for Inactive)
REMARK    1  A    between atoms: C_5  and  C_6
REMARK    2  A    between atoms: C_6  and  C_7
REMARK                            x       y       z     vdW  Elec       q    Type
REMARK                         _______ _______ _______ _____ _____    ______ ____
ROOT
ATOM      1  N   UNL     1       1.520   2.523  22.126  0.00  0.00    +0.000 N 
ATOM      2  C   UNL     1       1.925   3.219  21.052  0.00  0.00    +0.000 A 
ATOM      3  N   UNL     1       2.031   4.524  21.044  0.00  0.00    +0.000 NA
ATOM      4  C   UNL     1       2.478   4.951  19.809  0.00  0.00    +0.000 A 
ATOM      5  C   UNL     1       2.695   3.959  18.874  0.00  0.00    +0.000 A 
ATOM      6  S   UNL     1       2.316   2.438  19.574  0.00  0.00    +0.000 S 
ATOM      7  H   UNL     1       1.070   3.063  22.856  0.00  0.00    +0.000 HD
ATOM      8  H   UNL     1       1.133   1.600  21.980  0.00  0.00    +0.000 HD
ENDROOT
BRANCH   5   9
ATOM      9  C   UNL     1       3.152   4.077  17.458  0.00  0.00    +0.000 C 
BRANCH   9  10
ATOM     10  C   UNL     1       4.643   4.247  17.322  0.00  0.00    +0.000 A 
ATOM     11  C   UNL     1       5.265   4.307  16.072  0.00  0.00    +0.000 A 
ATOM     12  C   UNL     1       6.647   4.449  15.995  0.00  0.00    +0.000 A 
ATOM     13  C   UNL     1       7.366   4.534  17.176  0.00  0.00    +0.000 A 
ATOM     14  N   UNL     1       6.801   4.496  18.401  0.00  0.00    +0.000 NA
ATOM     15  C   UNL     1       5.456   4.362  18.446  0.00  0.00    +0.000 A 
ENDBRANCH   9  10
ENDBRANCH   5   9
TORSDOF 2
ENDMDL
