MODEL 1
REMARK VINA RESULT:      -7.6      0.000      0.000
REMARK  Name = 
REMARK  9 active torsions:
REMARK  status: ('A' for Active; 'I' for Inactive)
REMARK    1  A    between atoms: C_1  and  O_2
REMARK    2  A    between atoms: O_2  and  C_3
REMARK    3  A    between atoms: C_7  and  C_8
REMARK    4  A    between atoms: C_13  and  N_14
REMARK    5  A    between atoms: C_15  and  C_17
REMARK    6  A    between atoms: C_17  and  C_18
REMARK    7  A    between atoms: C_18  and  C_19
REMARK    8  A    between atoms: C_18  and  C_20
REMARK    9  A    between atoms: C_18  and  C_21
REMARK                            x       y       z     vdW  Elec       q    Type
REMARK                         _______ _______ _______ _____ _____    ______ ____
ROOT
ATOM      1  C   UNL     1       3.057   6.988  18.158  0.00  0.00    +0.000 A 
ATOM      2  N   UNL     1       2.657   8.109  17.474  0.00  0.00    +0.000 NA
ATOM      3  C   UNL     1       1.893   8.733  18.330  0.00  0.00    +0.000 A 
ATOM      4  C   UNL     1       1.150   9.927  18.216  0.00  0.00    +0.000 A 
ATOM      5  C   UNL     1       0.412  10.348  19.255  0.00  0.00    +0.000 A 
ATOM      6  C   UNL     1       0.350   9.623  20.524  0.00  0.00    +0.000 A 
ATOM      7  C   UNL     1       1.062   8.478  20.616  0.00  0.00    +0.000 A 
ATOM      8  N   UNL     1       1.827   8.031  19.529  0.00  0.00    +0.000 N 
ATOM      9  N   UNL     1       2.588   6.909  19.416  0.00  0.00    +0.000 NA
ENDROOT
BRANCH   1  14
ATOM     10  C   UNL     1       5.639   5.481  15.868  0.00  0.00    +0.000 A 
ATOM     11  C   UNL     1       5.440   4.120  16.099  0.00  0.00    +0.000 A 
ATOM     12  C   UNL     1       4.483   3.686  17.019  0.00  0.00    +0.000 A 
ATOM     13  C   UNL     1       3.705   4.615  17.712  0.00  0.00    +0.000 A 
ATOM     14  C   UNL     1       3.885   5.984  17.491  0.00  0.00    +0.000 A 
ATOM     15  C   UNL     1       4.868   6.406  16.574  0.00  0.00    +0.000 A 
BRANCH  10  17
ATOM     16  C   UNL     1       6.999   4.725  14.067  0.00  0.00    +0.000 C 
ATOM     17  O   UNL     1       6.592   5.780  14.933  0.00  0.00    +0.000 OA
ENDBRANCH  10  17
ENDBRANCH   1  14
BRANCH   6  18
ATOM     18  N   UNL     1      -0.427  10.075  21.577  0.00  0.00    +0.000 N 
ATOM     19  C   UNL     1      -0.383  11.322  22.188  0.00  0.00    +0.000 C 
ATOM     20  O   UNL     1       0.412  12.222  21.936  0.00  0.00    +0.000 OA
ATOM     21  H   UNL     1      -1.101   9.417  21.949  0.00  0.00    +0.000 HD
BRANCH  19  22
ATOM     22  C   UNL     1      -1.456  11.559  23.239  0.00  0.00    +0.000 C 
BRANCH  22  23
ATOM     23  C   UNL     1      -2.437  12.708  22.904  0.00  0.00    +0.000 C 
ATOM     24  C   UNL     1      -1.815  14.070  23.243  0.00  0.00    +0.000 C 
ATOM     25  C   UNL     1      -2.738  12.662  21.393  0.00  0.00    +0.000 C 
ATOM     26  C   UNL     1      -3.773  12.559  23.655  0.00  0.00    +0.000 C 
ENDBRANCH  22  23
ENDBRANCH  19  22
ENDBRANCH   6  18
TORSDOF 5
ENDMDL
MODEL 2
REMARK VINA RESULT:      -7.4      1.282      2.144
REMARK  Name = 
REMARK  9 active torsions:
REMARK  status: ('A' for Active; 'I' for Inactive)
REMARK    1  A    between atoms: C_1  and  O_2
REMARK    2  A    between atoms: O_2  and  C_3
REMARK    3  A    between atoms: C_7  and  C_8
REMARK    4  A    between atoms: C_13  and  N_14
REMARK    5  A    between atoms: C_15  and  C_17
REMARK    6  A    between atoms: C_17  and  C_18
REMARK    7  A    between atoms: C_18  and  C_19
REMARK    8  A    between atoms: C_18  and  C_20
REMARK    9  A    between atoms: C_18  and  C_21
REMARK                            x       y       z     vdW  Elec       q    Type
REMARK                         _______ _______ _______ _____ _____    ______ ____
ROOT
ATOM      1  C   UNL     1       2.696   7.390  18.376  0.00  0.00    +0.000 A 
ATOM      2  N   UNL     1       2.260   8.479  17.662  0.00  0.00    +0.000 NA
ATOM      3  C   UNL     1       1.511   9.124  18.515  0.00  0.00    +0.000 A 
ATOM      4  C   UNL     1       0.747  10.303  18.378  0.00  0.00    +0.000 A 
ATOM      5  C   UNL     1       0.032  10.753  19.421  0.00  0.00    +0.000 A 
ATOM      6  C   UNL     1       0.016  10.075  20.718  0.00  0.00    +0.000 A 
ATOM      7  C   UNL     1       0.748   8.945  20.833  0.00  0.00    +0.000 A 
ATOM      8  N   UNL     1       1.488   8.467  19.742  0.00  0.00    +0.000 N 
ATOM      9  N   UNL     1       2.263   7.352  19.649  0.00  0.00    +0.000 NA
ENDROOT
BRANCH   1  14
ATOM     10  C   UNL     1       4.058   4.011  17.428  0.00  0.00    +0.000 A 
ATOM     11  C   UNL     1       5.117   4.373  16.595  0.00  0.00    +0.000 A 
ATOM     12  C   UNL     1       5.377   5.716  16.317  0.00  0.00    +0.000 A 
ATOM     13  C   UNL     1       4.582   6.716  16.881  0.00  0.00    +0.000 A 
ATOM     14  C   UNL     1       3.519   6.374  17.724  0.00  0.00    +0.000 A 
ATOM     15  C   UNL     1       3.259   5.013  17.979  0.00  0.00    +0.000 A 
BRANCH  10  17
ATOM     16  C   UNL     1       2.589   2.172  17.785  0.00  0.00    +0.000 C 
ATOM     17  O   UNL     1       3.916   2.666  17.638  0.00  0.00    +0.000 OA
ENDBRANCH  10  17
ENDBRANCH   1  14
BRANCH   6  18
ATOM     18  N   UNL     1      -0.738  10.556  21.775  0.00  0.00    +0.000 N 
ATOM     19  C   UNL     1      -0.686  11.821  22.346  0.00  0.00    +0.000 C 
ATOM     20  O   UNL     1       0.099  12.717  22.049  0.00  0.00    +0.000 OA
ATOM     21  H   UNL     1      -1.399   9.907  22.183  0.00  0.00    +0.000 HD
BRANCH  19  22
ATOM     22  C   UNL     1      -1.734  12.085  23.415  0.00  0.00    +0.000 C 
BRANCH  22  23
ATOM     23  C   UNL     1      -2.874  13.035  22.972  0.00  0.00    +0.000 C 
ATOM     24  C   UNL     1      -3.256  12.777  21.507  0.00  0.00    +0.000 C 
ATOM     25  C   UNL     1      -4.103  12.763  23.862  0.00  0.00    +0.000 C 
ATOM     26  C   UNL     1      -2.486  14.515  23.143  0.00  0.00    +0.000 C 
ENDBRANCH  22  23
ENDBRANCH  19  22
ENDBRANCH   6  18
TORSDOF 5
ENDMDL
MODEL 3
REMARK VINA RESULT:      -7.3      1.127      1.829
REMARK  Name = 
REMARK  9 active torsions:
REMARK  status: ('A' for Active; 'I' for Inactive)
REMARK    1  A    between atoms: C_1  and  O_2
REMARK    2  A    between atoms: O_2  and  C_3
REMARK    3  A    between atoms: C_7  and  C_8
REMARK    4  A    between atoms: C_13  and  N_14
REMARK    5  A    between atoms: C_15  and  C_17
REMARK    6  A    between atoms: C_17  and  C_18
REMARK    7  A    between atoms: C_18  and  C_19
REMARK    8  A    between atoms: C_18  and  C_20
REMARK    9  A    between atoms: C_18  and  C_21
REMARK                            x       y       z     vdW  Elec       q    Type
REMARK                         _______ _______ _______ _____ _____    ______ ____
ROOT
ATOM      1  C   UNL     1       2.876   6.890  18.335  0.00  0.00    +0.000 A 
ATOM      2  N   UNL     1       2.509   6.660  19.638  0.00  0.00    +0.000 NA
ATOM      3  C   UNL     1       1.861   7.744  19.970  0.00  0.00    +0.000 A 
ATOM      4  C   UNL     1       1.267   8.137  21.188  0.00  0.00    +0.000 A 
ATOM      5  C   UNL     1       0.671   9.337  21.276  0.00  0.00    +0.000 A 
ATOM      6  C   UNL     1       0.597  10.265  20.148  0.00  0.00    +0.000 A 
ATOM      7  C   UNL     1       1.176   9.878  18.990  0.00  0.00    +0.000 A 
ATOM      8  N   UNL     1       1.807   8.629  18.898  0.00  0.00    +0.000 N 
ATOM      9  N   UNL     1       2.456   8.068  17.841  0.00  0.00    +0.000 NA
ENDROOT
BRANCH   1  14
ATOM     10  C   UNL     1       5.479   5.468  16.015  0.00  0.00    +0.000 A 
ATOM     11  C   UNL     1       5.241   4.100  16.153  0.00  0.00    +0.000 A 
ATOM     12  C   UNL     1       4.251   3.633  17.020  0.00  0.00    +0.000 A 
ATOM     13  C   UNL     1       3.479   4.535  17.753  0.00  0.00    +0.000 A 
ATOM     14  C   UNL     1       3.697   5.911  17.625  0.00  0.00    +0.000 A 
ATOM     15  C   UNL     1       4.712   6.365  16.760  0.00  0.00    +0.000 A 
BRANCH  10  17
ATOM     16  C   UNL     1       6.870   4.792  14.206  0.00  0.00    +0.000 C 
ATOM     17  O   UNL     1       6.461   5.802  15.124  0.00  0.00    +0.000 OA
ENDBRANCH  10  17
ENDBRANCH   1  14
BRANCH   6  18
ATOM     18  N   UNL     1      -0.015  11.501  20.269  0.00  0.00    +0.000 N 
ATOM     19  C   UNL     1       0.527  12.667  20.796  0.00  0.00    +0.000 C 
ATOM     20  O   UNL     1       1.635  12.780  21.312  0.00  0.00    +0.000 OA
ATOM     21  H   UNL     1      -0.972  11.560  19.943  0.00  0.00    +0.000 HD
BRANCH  19  22
ATOM     22  C   UNL     1      -0.358  13.897  20.674  0.00  0.00    +0.000 C 
BRANCH  22  23
ATOM     23  C   UNL     1      -1.568  13.912  21.639  0.00  0.00    +0.000 C 
ATOM     24  C   UNL     1      -1.216  13.218  22.963  0.00  0.00    +0.000 C 
ATOM     25  C   UNL     1      -1.936  15.381  21.930  0.00  0.00    +0.000 C 
ATOM     26  C   UNL     1      -2.803  13.230  21.021  0.00  0.00    +0.000 C 
ENDBRANCH  22  23
ENDBRANCH  19  22
ENDBRANCH   6  18
TORSDOF 5
ENDMDL
MODEL 4
REMARK VINA RESULT:      -7.3      1.289      1.889
REMARK  Name = 
REMARK  9 active torsions:
REMARK  status: ('A' for Active; 'I' for Inactive)
REMARK    1  A    between atoms: C_1  and  O_2
REMARK    2  A    between atoms: O_2  and  C_3
REMARK    3  A    between atoms: C_7  and  C_8
REMARK    4  A    between atoms: C_13  and  N_14
REMARK    5  A    between atoms: C_15  and  C_17
REMARK    6  A    between atoms: C_17  and  C_18
REMARK    7  A    between atoms: C_18  and  C_19
REMARK    8  A    between atoms: C_18  and  C_20
REMARK    9  A    between atoms: C_18  and  C_21
REMARK                            x       y       z     vdW  Elec       q    Type
REMARK                         _______ _______ _______ _____ _____    ______ ____
ROOT
ATOM      1  C   UNL     1       2.667   7.080  18.507  0.00  0.00    +0.000 A 
ATOM      2  N   UNL     1       2.345   6.864  19.824  0.00  0.00    +0.000 NA
ATOM      3  C   UNL     1       1.717   7.955  20.169  0.00  0.00    +0.000 A 
ATOM      4  C   UNL     1       1.169   8.364  21.404  0.00  0.00    +0.000 A 
ATOM      5  C   UNL     1       0.585   9.568  21.502  0.00  0.00    +0.000 A 
ATOM      6  C   UNL     1       0.476  10.487  20.369  0.00  0.00    +0.000 A 
ATOM      7  C   UNL     1       1.010  10.085  19.194  0.00  0.00    +0.000 A 
ATOM      8  N   UNL     1       1.629   8.831  19.091  0.00  0.00    +0.000 N 
ATOM      9  N   UNL     1       2.236   8.257  18.017  0.00  0.00    +0.000 NA
ENDROOT
BRANCH   1  14
ATOM     10  C   UNL     1       5.286   5.617  16.232  0.00  0.00    +0.000 A 
ATOM     11  C   UNL     1       4.947   4.264  16.270  0.00  0.00    +0.000 A 
ATOM     12  C   UNL     1       3.882   3.818  17.055  0.00  0.00    +0.000 A 
ATOM     13  C   UNL     1       3.136   4.727  17.806  0.00  0.00    +0.000 A 
ATOM     14  C   UNL     1       3.454   6.089  17.777  0.00  0.00    +0.000 A 
ATOM     15  C   UNL     1       4.544   6.520  16.994  0.00  0.00    +0.000 A 
BRANCH  10  17
ATOM     16  C   UNL     1       6.991   4.850  14.759  0.00  0.00    +0.000 C 
ATOM     17  O   UNL     1       6.335   5.932  15.413  0.00  0.00    +0.000 OA
ENDBRANCH  10  17
ENDBRANCH   1  14
BRANCH   6  18
ATOM     18  N   UNL     1      -0.123  11.728  20.500  0.00  0.00    +0.000 N 
ATOM     19  C   UNL     1      -1.356  12.130  20.001  0.00  0.00    +0.000 C 
ATOM     20  O   UNL     1      -2.101  11.462  19.291  0.00  0.00    +0.000 OA
ATOM     21  H   UNL     1       0.401  12.426  21.013  0.00  0.00    +0.000 HD
BRANCH  19  22
ATOM     22  C   UNL     1      -1.795  13.524  20.423  0.00  0.00    +0.000 C 
BRANCH  22  23
ATOM     23  C   UNL     1      -2.823  13.548  21.580  0.00  0.00    +0.000 C 
ATOM     24  C   UNL     1      -2.737  14.870  22.357  0.00  0.00    +0.000 C 
ATOM     25  C   UNL     1      -4.235  13.419  20.975  0.00  0.00    +0.000 C 
ATOM     26  C   UNL     1      -2.619  12.373  22.554  0.00  0.00    +0.000 C 
ENDBRANCH  22  23
ENDBRANCH  19  22
ENDBRANCH   6  18
TORSDOF 5
ENDMDL
MODEL 5
REMARK VINA RESULT:      -7.2      2.020      2.720
REMARK  Name = 
REMARK  9 active torsions:
REMARK  status: ('A' for Active; 'I' for Inactive)
REMARK    1  A    between atoms: C_1  and  O_2
REMARK    2  A    between atoms: O_2  and  C_3
REMARK    3  A    between atoms: C_7  and  C_8
REMARK    4  A    between atoms: C_13  and  N_14
REMARK    5  A    between atoms: C_15  and  C_17
REMARK    6  A    between atoms: C_17  and  C_18
REMARK    7  A    between atoms: C_18  and  C_19
REMARK    8  A    between atoms: C_18  and  C_20
REMARK    9  A    between atoms: C_18  and  C_21
REMARK                            x       y       z     vdW  Elec       q    Type
REMARK                         _______ _______ _______ _____ _____    ______ ____
ROOT
ATOM      1  C   UNL     1       2.656   7.082  18.592  0.00  0.00    +0.000 A 
ATOM      2  N   UNL     1       2.276   6.808  19.883  0.00  0.00    +0.000 NA
ATOM      3  C   UNL     1       1.692   7.910  20.271  0.00  0.00    +0.000 A 
ATOM      4  C   UNL     1       1.122   8.275  21.509  0.00  0.00    +0.000 A 
ATOM      5  C   UNL     1       0.596   9.500  21.659  0.00  0.00    +0.000 A 
ATOM      6  C   UNL     1       0.574  10.487  20.579  0.00  0.00    +0.000 A 
ATOM      7  C   UNL     1       1.128  10.126  19.401  0.00  0.00    +0.000 A 
ATOM      8  N   UNL     1       1.687   8.849  19.244  0.00  0.00    +0.000 N 
ATOM      9  N   UNL     1       2.303   8.306  18.158  0.00  0.00    +0.000 NA
ENDROOT
BRANCH   1  14
ATOM     10  C   UNL     1       5.225   5.626  16.257  0.00  0.00    +0.000 A 
ATOM     11  C   UNL     1       4.862   4.279  16.267  0.00  0.00    +0.000 A 
ATOM     12  C   UNL     1       3.797   3.834  17.052  0.00  0.00    +0.000 A 
ATOM     13  C   UNL     1       3.075   4.739  17.831  0.00  0.00    +0.000 A 
ATOM     14  C   UNL     1       3.418   6.094  17.831  0.00  0.00    +0.000 A 
ATOM     15  C   UNL     1       4.507   6.524  17.048  0.00  0.00    +0.000 A 
BRANCH  10  17
ATOM     16  C   UNL     1       6.978   4.855  14.844  0.00  0.00    +0.000 C 
ATOM     17  O   UNL     1       6.273   5.941  15.435  0.00  0.00    +0.000 OA
ENDBRANCH  10  17
ENDBRANCH   1  14
BRANCH   6  18
ATOM     18  N   UNL     1       0.033  11.748  20.764  0.00  0.00    +0.000 N 
ATOM     19  C   UNL     1       0.711  12.927  21.049  0.00  0.00    +0.000 C 
ATOM     20  O   UNL     1       1.916  13.036  21.256  0.00  0.00    +0.000 OA
ATOM     21  H   UNL     1      -0.974  11.818  20.690  0.00  0.00    +0.000 HD
BRANCH  19  22
ATOM     22  C   UNL     1      -0.155  14.176  21.070  0.00  0.00    +0.000 C 
BRANCH  22  23
ATOM     23  C   UNL     1      -0.010  15.076  19.819  0.00  0.00    +0.000 C 
ATOM     24  C   UNL     1      -0.075  14.237  18.535  0.00  0.00    +0.000 C 
ATOM     25  C   UNL     1      -1.174  16.087  19.812  0.00  0.00    +0.000 C 
ATOM     26  C   UNL     1       1.307  15.874  19.837  0.00  0.00    +0.000 C 
ENDBRANCH  22  23
ENDBRANCH  19  22
ENDBRANCH   6  18
TORSDOF 5
ENDMDL
MODEL 6
REMARK VINA RESULT:      -7.2      1.684      1.960
REMARK  Name = 
REMARK  9 active torsions:
REMARK  status: ('A' for Active; 'I' for Inactive)
REMARK    1  A    between atoms: C_1  and  O_2
REMARK    2  A    between atoms: O_2  and  C_3
REMARK    3  A    between atoms: C_7  and  C_8
REMARK    4  A    between atoms: C_13  and  N_14
REMARK    5  A    between atoms: C_15  and  C_17
REMARK    6  A    between atoms: C_17  and  C_18
REMARK    7  A    between atoms: C_18  and  C_19
REMARK    8  A    between atoms: C_18  and  C_20
REMARK    9  A    between atoms: C_18  and  C_21
REMARK                            x       y       z     vdW  Elec       q    Type
REMARK                         _______ _______ _______ _____ _____    ______ ____
ROOT
ATOM      1  C   UNL     1       2.459   7.176  19.055  0.00  0.00    +0.000 A 
ATOM      2  N   UNL     1       2.223   8.188  18.157  0.00  0.00    +0.000 NA
ATOM      3  C   UNL     1       1.535   9.056  18.848  0.00  0.00    +0.000 A 
ATOM      4  C   UNL     1       0.960  10.292  18.482  0.00  0.00    +0.000 A 
ATOM      5  C   UNL     1       0.268  10.995  19.392  0.00  0.00    +0.000 A 
ATOM      6  C   UNL     1       0.089  10.539  20.771  0.00  0.00    +0.000 A 
ATOM      7  C   UNL     1       0.640   9.352  21.106  0.00  0.00    +0.000 A 
ATOM      8  N   UNL     1       1.356   8.611  20.154  0.00  0.00    +0.000 N 
ATOM      9  N   UNL     1       1.963   7.400  20.285  0.00  0.00    +0.000 NA
ENDROOT
BRANCH   1  14
ATOM     10  C   UNL     1       5.230   4.679  18.543  0.00  0.00    +0.000 A 
ATOM     11  C   UNL     1       4.589   3.727  17.749  0.00  0.00    +0.000 A 
ATOM     12  C   UNL     1       3.246   3.880  17.398  0.00  0.00    +0.000 A 
ATOM     13  C   UNL     1       2.531   4.998  17.832  0.00  0.00    +0.000 A 
ATOM     14  C   UNL     1       3.156   5.966  18.623  0.00  0.00    +0.000 A 
ATOM     15  C   UNL     1       4.506   5.787  18.984  0.00  0.00    +0.000 A 
BRANCH  10  17
ATOM     16  C   UNL     1       7.472   4.659  17.746  0.00  0.00    +0.000 C 
ATOM     17  O   UNL     1       6.549   4.426  18.804  0.00  0.00    +0.000 OA
ENDBRANCH  10  17
ENDBRANCH   1  14
BRANCH   6  18
ATOM     18  N   UNL     1      -0.639  11.280  21.687  0.00  0.00    +0.000 N 
ATOM     19  C   UNL     1      -0.364  12.561  22.150  0.00  0.00    +0.000 C 
ATOM     20  O   UNL     1       0.623  13.234  21.869  0.00  0.00    +0.000 OA
ATOM     21  H   UNL     1      -1.462  10.832  22.071  0.00  0.00    +0.000 HD
BRANCH  19  22
ATOM     22  C   UNL     1      -1.425  13.154  23.062  0.00  0.00    +0.000 C 
BRANCH  22  23
ATOM     23  C   UNL     1      -2.675  13.693  22.324  0.00  0.00    +0.000 C 
ATOM     24  C   UNL     1      -3.827  12.681  22.396  0.00  0.00    +0.000 C 
ATOM     25  C   UNL     1      -3.117  15.000  23.012  0.00  0.00    +0.000 C 
ATOM     26  C   UNL     1      -2.375  14.016  20.849  0.00  0.00    +0.000 C 
ENDBRANCH  22  23
ENDBRANCH  19  22
ENDBRANCH   6  18
TORSDOF 5
ENDMDL
MODEL 7
REMARK VINA RESULT:      -7.2      2.055      2.669
REMARK  Name = 
REMARK  9 active torsions:
REMARK  status: ('A' for Active; 'I' for Inactive)
REMARK    1  A    between atoms: C_1  and  O_2
REMARK    2  A    between atoms: O_2  and  C_3
REMARK    3  A    between atoms: C_7  and  C_8
REMARK    4  A    between atoms: C_13  and  N_14
REMARK    5  A    between atoms: C_15  and  C_17
REMARK    6  A    between atoms: C_17  and  C_18
REMARK    7  A    between atoms: C_18  and  C_19
REMARK    8  A    between atoms: C_18  and  C_20
REMARK    9  A    between atoms: C_18  and  C_21
REMARK                            x       y       z     vdW  Elec       q    Type
REMARK                         _______ _______ _______ _____ _____    ______ ____
ROOT
ATOM      1  C   UNL     1       2.765   7.040  18.371  0.00  0.00    +0.000 A 
ATOM      2  N   UNL     1       2.392   6.827  19.675  0.00  0.00    +0.000 NA
ATOM      3  C   UNL     1       1.777   7.931  20.001  0.00  0.00    +0.000 A 
ATOM      4  C   UNL     1       1.195   8.348  21.218  0.00  0.00    +0.000 A 
ATOM      5  C   UNL     1       0.635   9.565  21.300  0.00  0.00    +0.000 A 
ATOM      6  C   UNL     1       0.587  10.489  20.167  0.00  0.00    +0.000 A 
ATOM      7  C   UNL     1       1.153  10.079  19.011  0.00  0.00    +0.000 A 
ATOM      8  N   UNL     1       1.748   8.812  18.925  0.00  0.00    +0.000 N 
ATOM      9  N   UNL     1       2.379   8.227  17.870  0.00  0.00    +0.000 NA
ENDROOT
BRANCH   1  14
ATOM     10  C   UNL     1       5.374   5.530  16.114  0.00  0.00    +0.000 A 
ATOM     11  C   UNL     1       5.052   4.175  16.202  0.00  0.00    +0.000 A 
ATOM     12  C   UNL     1       4.002   3.744  17.015  0.00  0.00    +0.000 A 
ATOM     13  C   UNL     1       3.254   4.670  17.744  0.00  0.00    +0.000 A 
ATOM     14  C   UNL     1       3.556   6.033  17.665  0.00  0.00    +0.000 A 
ATOM     15  C   UNL     1       4.631   6.449  16.855  0.00  0.00    +0.000 A 
BRANCH  10  17
ATOM     16  C   UNL     1       6.849   4.795  14.397  0.00  0.00    +0.000 C 
ATOM     17  O   UNL     1       6.410   5.828  15.272  0.00  0.00    +0.000 OA
ENDBRANCH  10  17
ENDBRANCH   1  14
BRANCH   6  18
ATOM     18  N   UNL     1       0.011  11.743  20.282  0.00  0.00    +0.000 N 
ATOM     19  C   UNL     1       0.562  12.878  20.867  0.00  0.00    +0.000 C 
ATOM     20  O   UNL     1       1.641  12.940  21.448  0.00  0.00    +0.000 OA
ATOM     21  H   UNL     1      -0.922  11.843  19.903  0.00  0.00    +0.000 HD
BRANCH  19  22
ATOM     22  C   UNL     1      -0.272  14.141  20.724  0.00  0.00    +0.000 C 
BRANCH  22  23
ATOM     23  C   UNL     1       0.395  15.256  19.883  0.00  0.00    +0.000 C 
ATOM     24  C   UNL     1       1.356  16.086  20.746  0.00  0.00    +0.000 C 
ATOM     25  C   UNL     1       1.197  14.591  18.747  0.00  0.00    +0.000 C 
ATOM     26  C   UNL     1      -0.646  16.191  19.240  0.00  0.00    +0.000 C 
ENDBRANCH  22  23
ENDBRANCH  19  22
ENDBRANCH   6  18
TORSDOF 5
ENDMDL
MODEL 8
REMARK VINA RESULT:      -7.1      1.704      2.701
REMARK  Name = 
REMARK  9 active torsions:
REMARK  status: ('A' for Active; 'I' for Inactive)
REMARK    1  A    between atoms: C_1  and  O_2
REMARK    2  A    between atoms: O_2  and  C_3
REMARK    3  A    between atoms: C_7  and  C_8
REMARK    4  A    between atoms: C_13  and  N_14
REMARK    5  A    between atoms: C_15  and  C_17
REMARK    6  A    between atoms: C_17  and  C_18
REMARK    7  A    between atoms: C_18  and  C_19
REMARK    8  A    between atoms: C_18  and  C_20
REMARK    9  A    between atoms: C_18  and  C_21
REMARK                            x       y       z     vdW  Elec       q    Type
REMARK                         _______ _______ _______ _____ _____    ______ ____
ROOT
ATOM      1  C   UNL     1       2.587   7.329  18.570  0.00  0.00    +0.000 A 
ATOM      2  N   UNL     1       2.288   7.042  19.879  0.00  0.00    +0.000 NA
ATOM      3  C   UNL     1       1.609   8.086  20.274  0.00  0.00    +0.000 A 
ATOM      4  C   UNL     1       1.053   8.415  21.528  0.00  0.00    +0.000 A 
ATOM      5  C   UNL     1       0.411   9.583  21.681  0.00  0.00    +0.000 A 
ATOM      6  C   UNL     1       0.248  10.542  20.588  0.00  0.00    +0.000 A 
ATOM      7  C   UNL     1       0.791  10.217  19.394  0.00  0.00    +0.000 A 
ATOM      8  N   UNL     1       1.470   9.001  19.235  0.00  0.00    +0.000 N 
ATOM      9  N   UNL     1       2.095   8.503  18.133  0.00  0.00    +0.000 NA
ENDROOT
BRANCH   1  14
ATOM     10  C   UNL     1       4.044   4.106  17.278  0.00  0.00    +0.000 A 
ATOM     11  C   UNL     1       5.034   4.586  16.420  0.00  0.00    +0.000 A 
ATOM     12  C   UNL     1       5.216   5.958  16.238  0.00  0.00    +0.000 A 
ATOM     13  C   UNL     1       4.411   6.869  16.924  0.00  0.00    +0.000 A 
ATOM     14  C   UNL     1       3.416   6.409  17.794  0.00  0.00    +0.000 A 
ATOM     15  C   UNL     1       3.234   5.021  17.951  0.00  0.00    +0.000 A 
BRANCH  10  17
ATOM     16  C   UNL     1       2.737   2.192  17.821  0.00  0.00    +0.000 C 
ATOM     17  O   UNL     1       3.975   2.744  17.386  0.00  0.00    +0.000 OA
ENDBRANCH  10  17
ENDBRANCH   1  14
BRANCH   6  18
ATOM     18  N   UNL     1      -0.411  11.746  20.776  0.00  0.00    +0.000 N 
ATOM     19  C   UNL     1      -1.630  12.137  20.237  0.00  0.00    +0.000 C 
ATOM     20  O   UNL     1      -2.305  11.497  19.436  0.00  0.00    +0.000 OA
ATOM     21  H   UNL     1       0.054  12.422  21.370  0.00  0.00    +0.000 HD
BRANCH  19  22
ATOM     22  C   UNL     1      -2.151  13.476  20.735  0.00  0.00    +0.000 C 
BRANCH  22  23
ATOM     23  C   UNL     1      -3.206  13.373  21.862  0.00  0.00    +0.000 C 
ATOM     24  C   UNL     1      -2.787  12.327  22.905  0.00  0.00    +0.000 C 
ATOM     25  C   UNL     1      -3.313  14.747  22.552  0.00  0.00    +0.000 C 
ATOM     26  C   UNL     1      -4.599  13.011  21.313  0.00  0.00    +0.000 C 
ENDBRANCH  22  23
ENDBRANCH  19  22
ENDBRANCH   6  18
TORSDOF 5
ENDMDL
MODEL 9
REMARK VINA RESULT:      -7.1      1.324      2.133
REMARK  Name = 
REMARK  9 active torsions:
REMARK  status: ('A' for Active; 'I' for Inactive)
REMARK    1  A    between atoms: C_1  and  O_2
REMARK    2  A    between atoms: O_2  and  C_3
REMARK    3  A    between atoms: C_7  and  C_8
REMARK    4  A    between atoms: C_13  and  N_14
REMARK    5  A    between atoms: C_15  and  C_17
REMARK    6  A    between atoms: C_17  and  C_18
REMARK    7  A    between atoms: C_18  and  C_19
REMARK    8  A    between atoms: C_18  and  C_20
REMARK    9  A    between atoms: C_18  and  C_21
REMARK                            x       y       z     vdW  Elec       q    Type
REMARK                         _______ _______ _______ _____ _____    ______ ____
ROOT
ATOM      1  C   UNL     1       3.923   6.424  18.120  0.00  0.00    +0.000 A 
ATOM      2  N   UNL     1       3.456   5.924  19.310  0.00  0.00    +0.000 NA
ATOM      3  C   UNL     1       2.575   6.810  19.690  0.00  0.00    +0.000 A 
ATOM      4  C   UNL     1       1.776   6.891  20.850  0.00  0.00    +0.000 A 
ATOM      5  C   UNL     1       0.952   7.938  21.014  0.00  0.00    +0.000 A 
ATOM      6  C   UNL     1       0.833   9.010  20.026  0.00  0.00    +0.000 A 
ATOM      7  C   UNL     1       1.609   8.923  18.923  0.00  0.00    +0.000 A 
ATOM      8  N   UNL     1       2.477   7.835  18.753  0.00  0.00    +0.000 N 
ATOM      9  N   UNL     1       3.343   7.576  17.736  0.00  0.00    +0.000 NA
ENDROOT
BRANCH   1  14
ATOM     10  C   UNL     1       5.728   4.519  15.420  0.00  0.00    +0.000 A 
ATOM     11  C   UNL     1       6.966   4.305  16.026  0.00  0.00    +0.000 A 
ATOM     12  C   UNL     1       7.229   4.800  17.304  0.00  0.00    +0.000 A 
ATOM     13  C   UNL     1       6.246   5.510  17.996  0.00  0.00    +0.000 A 
ATOM     14  C   UNL     1       4.996   5.731  17.409  0.00  0.00    +0.000 A 
ATOM     15  C   UNL     1       4.754   5.240  16.111  0.00  0.00    +0.000 A 
BRANCH  10  17
ATOM     16  C   UNL     1       6.678   4.123  13.273  0.00  0.00    +0.000 C 
ATOM     17  O   UNL     1       5.586   3.970  14.174  0.00  0.00    +0.000 OA
ENDBRANCH  10  17
ENDBRANCH   1  14
BRANCH   6  18
ATOM     18  N   UNL     1      -0.018  10.084  20.226  0.00  0.00    +0.000 N 
ATOM     19  C   UNL     1       0.266  11.280  20.874  0.00  0.00    +0.000 C 
ATOM     20  O   UNL     1       1.314  11.561  21.447  0.00  0.00    +0.000 OA
ATOM     21  H   UNL     1      -0.958   9.983  19.863  0.00  0.00    +0.000 HD
BRANCH  19  22
ATOM     22  C   UNL     1      -0.844  12.317  20.819  0.00  0.00    +0.000 C 
BRANCH  22  23
ATOM     23  C   UNL     1      -1.596  12.522  22.157  0.00  0.00    +0.000 C 
ATOM     24  C   UNL     1      -3.090  12.777  21.907  0.00  0.00    +0.000 C 
ATOM     25  C   UNL     1      -1.445  11.238  22.997  0.00  0.00    +0.000 C 
ATOM     26  C   UNL     1      -1.011  13.690  22.971  0.00  0.00    +0.000 C 
ENDBRANCH  22  23
ENDBRANCH  19  22
ENDBRANCH   6  18
TORSDOF 5
ENDMDL
