MODEL 1
REMARK VINA RESULT:      -8.7      0.000      0.000
REMARK  Name = 
REMARK  8 active torsions:
REMARK  status: ('A' for Active; 'I' for Inactive)
REMARK    1  A    between atoms: C_1  and  C_2
REMARK    2  A    between atoms: C_2  and  C_3
REMARK    3  A    between atoms: C_3  and  C_4
REMARK    4  A    between atoms: C_3  and  N_6
REMARK    5  A    between atoms: C_4  and  C_5
REMARK    6  A    between atoms: N_6  and  N_7
REMARK    7  A    between atoms: C_10  and  C_11
REMARK    8  A    between atoms: C_23  and  O_24
REMARK                            x       y       z     vdW  Elec       q    Type
REMARK                         _______ _______ _______ _____ _____    ______ ____
ROOT
ATOM      1  N   UNL     1       0.441   9.711  18.826  0.00  0.00    +0.000 N 
ATOM      2  C   UNL     1       1.501   8.908  18.421  0.00  0.00    +0.000 A 
ATOM      3  O   UNL     1       2.063   9.038  17.328  0.00  0.00    +0.000 OA
ATOM      4  C   UNL     1       1.887   7.778  19.319  0.00  0.00    +0.000 A 
ATOM      5  C   UNL     1       1.503   7.825  20.613  0.00  0.00    +0.000 A 
ATOM      6  C   UNL     1       0.702   8.966  21.121  0.00  0.00    +0.000 A 
ATOM      7  C   UNL     1       0.491   9.191  22.491  0.00  0.00    +0.000 A 
ATOM      8  C   UNL     1      -0.269  10.282  22.931  0.00  0.00    +0.000 A 
ATOM      9  C   UNL     1      -0.871  11.133  22.009  0.00  0.00    +0.000 A 
ATOM     10  C   UNL     1      -0.693  10.908  20.646  0.00  0.00    +0.000 A 
ATOM     11  C   UNL     1       0.120   9.854  20.199  0.00  0.00    +0.000 A 
ENDROOT
BRANCH   4  12
ATOM     12  C   UNL     1       2.621   6.605  18.672  0.00  0.00    +0.000 C 
ATOM     13  N   UNL     1       2.016   5.452  18.610  0.00  0.00    +0.000 NA
ATOM     14  S   UNL     1       2.897   4.162  18.115  0.00  0.00    +0.000 S 
ATOM     15  O   UNL     1       3.678   3.682  19.238  0.00  0.00    +0.000 OA
ATOM     16  O   UNL     1       2.013   3.269  17.390  0.00  0.00    +0.000 OA
ATOM     17  C   UNL     1       4.064   4.777  16.952  0.00  0.00    +0.000 A 
ATOM     18  C   UNL     1       4.575   3.979  15.918  0.00  0.00    +0.000 A 
ATOM     19  C   UNL     1       5.542   4.516  15.072  0.00  0.00    +0.000 A 
ATOM     20  C   UNL     1       5.978   5.831  15.257  0.00  0.00    +0.000 A 
ATOM     21  C   UNL     1       5.445   6.608  16.294  0.00  0.00    +0.000 A 
ATOM     22  C   UNL     1       4.493   6.075  17.168  0.00  0.00    +0.000 A 
ATOM     23  N   UNL     1       3.884   6.849  18.154  0.00  0.00    +0.000 N 
ATOM     24  H   UNL     1       4.441   7.594  18.578  0.00  0.00    +0.000 HD
ENDBRANCH   4  12
BRANCH   1  25
ATOM     25  N   UNL     1      -0.124  10.614  17.873  0.00  0.00    +0.000 N 
ATOM     26  H   UNL     1       0.326  10.390  16.979  0.00  0.00    +0.000 HD
BRANCH  25  27
ATOM     27  C   UNL     1      -1.585  10.413  17.712  0.00  0.00    +0.000 C 
BRANCH  27  29
ATOM     28  C   UNL     1      -3.615  11.731  18.578  0.00  0.00    +0.000 C 
ATOM     29  C   UNL     1      -2.356  11.752  17.720  0.00  0.00    +0.000 C 
ENDBRANCH  27  29
BRANCH  27  30
ATOM     30  C   UNL     1      -1.846   9.554  16.454  0.00  0.00    +0.000 C 
ATOM     31  C   UNL     1      -2.760  10.183  15.408  0.00  0.00    +0.000 C 
ENDBRANCH  27  30
ENDBRANCH  25  27
ENDBRANCH   1  25
BRANCH   5  32
ATOM     32  O   UNL     1       1.761   6.834  21.542  0.00  0.00    +0.000 OA
ATOM     33  H   UNL     1       1.748   5.965  21.091  0.00  0.00    +0.000 HD
ENDBRANCH   5  32
TORSDOF 6
ENDMDL
MODEL 2
REMARK VINA RESULT:      -8.4      2.570      7.908
REMARK  Name = 
REMARK  8 active torsions:
REMARK  status: ('A' for Active; 'I' for Inactive)
REMARK    1  A    between atoms: C_1  and  C_2
REMARK    2  A    between atoms: C_2  and  C_3
REMARK    3  A    between atoms: C_3  and  C_4
REMARK    4  A    between atoms: C_3  and  N_6
REMARK    5  A    between atoms: C_4  and  C_5
REMARK    6  A    between atoms: N_6  and  N_7
REMARK    7  A    between atoms: C_10  and  C_11
REMARK    8  A    between atoms: C_23  and  O_24
REMARK                            x       y       z     vdW  Elec       q    Type
REMARK                         _______ _______ _______ _____ _____    ______ ____
ROOT
ATOM      1  N   UNL     1       3.000   5.217  18.993  0.00  0.00    +0.000 N 
ATOM      2  C   UNL     1       2.569   6.208  19.866  0.00  0.00    +0.000 A 
ATOM      3  O   UNL     1       2.308   5.989  21.055  0.00  0.00    +0.000 OA
ATOM      4  C   UNL     1       2.314   7.564  19.292  0.00  0.00    +0.000 A 
ATOM      5  C   UNL     1       2.882   7.877  18.108  0.00  0.00    +0.000 A 
ATOM      6  C   UNL     1       3.723   6.889  17.390  0.00  0.00    +0.000 A 
ATOM      7  C   UNL     1       4.531   7.237  16.295  0.00  0.00    +0.000 A 
ATOM      8  C   UNL     1       5.314   6.274  15.645  0.00  0.00    +0.000 A 
ATOM      9  C   UNL     1       5.261   4.943  16.046  0.00  0.00    +0.000 A 
ATOM     10  C   UNL     1       4.444   4.576  17.112  0.00  0.00    +0.000 A 
ATOM     11  C   UNL     1       3.706   5.546  17.809  0.00  0.00    +0.000 A 
ENDROOT
BRANCH   4  12
ATOM     12  C   UNL     1       1.351   8.466  20.061  0.00  0.00    +0.000 C 
ATOM     13  N   UNL     1       1.400   8.460  21.363  0.00  0.00    +0.000 NA
ATOM     14  S   UNL     1       0.220   9.262  22.169  0.00  0.00    +0.000 S 
ATOM     15  O   UNL     1      -0.957   8.416  22.218  0.00  0.00    +0.000 OA
ATOM     16  O   UNL     1       0.797   9.804  23.384  0.00  0.00    +0.000 OA
ATOM     17  C   UNL     1      -0.223  10.633  21.161  0.00  0.00    +0.000 A 
ATOM     18  C   UNL     1      -0.732  11.823  21.704  0.00  0.00    +0.000 A 
ATOM     19  C   UNL     1      -1.118  12.843  20.839  0.00  0.00    +0.000 A 
ATOM     20  C   UNL     1      -0.985  12.675  19.458  0.00  0.00    +0.000 A 
ATOM     21  C   UNL     1      -0.466  11.479  18.943  0.00  0.00    +0.000 A 
ATOM     22  C   UNL     1      -0.100  10.435  19.797  0.00  0.00    +0.000 A 
ATOM     23  N   UNL     1       0.497   9.269  19.320  0.00  0.00    +0.000 N 
ATOM     24  H   UNL     1       0.219   8.945  18.391  0.00  0.00    +0.000 HD
ENDBRANCH   4  12
BRANCH   1  25
ATOM     25  N   UNL     1       2.985   3.862  19.449  0.00  0.00    +0.000 N 
ATOM     26  H   UNL     1       2.976   3.915  20.473  0.00  0.00    +0.000 HD
BRANCH  25  27
ATOM     27  C   UNL     1       1.760   3.143  19.019  0.00  0.00    +0.000 C 
BRANCH  27  29
ATOM     28  C   UNL     1       3.521   1.367  18.424  0.00  0.00    +0.000 C 
ATOM     29  C   UNL     1       2.094   1.863  18.220  0.00  0.00    +0.000 C 
ENDBRANCH  27  29
BRANCH  27  30
ATOM     30  C   UNL     1       0.860   2.888  20.249  0.00  0.00    +0.000 C 
ATOM     31  C   UNL     1       1.595   2.648  21.562  0.00  0.00    +0.000 C 
ENDBRANCH  27  30
ENDBRANCH  25  27
ENDBRANCH   1  25
BRANCH   5  32
ATOM     32  O   UNL     1       2.703   9.079  17.448  0.00  0.00    +0.000 OA
ATOM     33  H   UNL     1       1.754   9.321  17.480  0.00  0.00    +0.000 HD
ENDBRANCH   5  32
TORSDOF 6
ENDMDL
MODEL 3
REMARK VINA RESULT:      -8.4      1.594      2.211
REMARK  Name = 
REMARK  8 active torsions:
REMARK  status: ('A' for Active; 'I' for Inactive)
REMARK    1  A    between atoms: C_1  and  C_2
REMARK    2  A    between atoms: C_2  and  C_3
REMARK    3  A    between atoms: C_3  and  C_4
REMARK    4  A    between atoms: C_3  and  N_6
REMARK    5  A    between atoms: C_4  and  C_5
REMARK    6  A    between atoms: N_6  and  N_7
REMARK    7  A    between atoms: C_10  and  C_11
REMARK    8  A    between atoms: C_23  and  O_24
REMARK                            x       y       z     vdW  Elec       q    Type
REMARK                         _______ _______ _______ _____ _____    ______ ____
ROOT
ATOM      1  N   UNL     1       0.238  10.009  18.901  0.00  0.00    +0.000 N 
ATOM      2  C   UNL     1       1.337   9.289  18.449  0.00  0.00    +0.000 A 
ATOM      3  O   UNL     1       1.870   9.493  17.353  0.00  0.00    +0.000 OA
ATOM      4  C   UNL     1       1.808   8.152  19.299  0.00  0.00    +0.000 A 
ATOM      5  C   UNL     1       1.445   8.129  20.599  0.00  0.00    +0.000 A 
ATOM      6  C   UNL     1       0.584   9.198  21.162  0.00  0.00    +0.000 A 
ATOM      7  C   UNL     1       0.384   9.360  22.543  0.00  0.00    +0.000 A 
ATOM      8  C   UNL     1      -0.433  10.386  23.034  0.00  0.00    +0.000 A 
ATOM      9  C   UNL     1      -1.103  11.230  22.154  0.00  0.00    +0.000 A 
ATOM     10  C   UNL     1      -0.936  11.066  20.781  0.00  0.00    +0.000 A 
ATOM     11  C   UNL     1      -0.068  10.082  20.282  0.00  0.00    +0.000 A 
ENDROOT
BRANCH   4  12
ATOM     12  C   UNL     1       2.601   7.052  18.597  0.00  0.00    +0.000 C 
ATOM     13  N   UNL     1       3.894   7.182  18.502  0.00  0.00    +0.000 NA
ATOM     14  S   UNL     1       4.695   6.108  17.559  0.00  0.00    +0.000 S 
ATOM     15  O   UNL     1       4.561   6.522  16.176  0.00  0.00    +0.000 OA
ATOM     16  O   UNL     1       6.004   5.889  18.145  0.00  0.00    +0.000 OA
ATOM     17  C   UNL     1       3.820   4.588  17.687  0.00  0.00    +0.000 A 
ATOM     18  C   UNL     1       4.454   3.347  17.528  0.00  0.00    +0.000 A 
ATOM     19  C   UNL     1       3.685   2.189  17.583  0.00  0.00    +0.000 A 
ATOM     20  C   UNL     1       2.308   2.276  17.802  0.00  0.00    +0.000 A 
ATOM     21  C   UNL     1       1.700   3.528  17.965  0.00  0.00    +0.000 A 
ATOM     22  C   UNL     1       2.454   4.702  17.886  0.00  0.00    +0.000 A 
ATOM     23  N   UNL     1       1.894   5.954  18.128  0.00  0.00    +0.000 N 
ATOM     24  H   UNL     1       0.916   6.091  17.862  0.00  0.00    +0.000 HD
ENDBRANCH   4  12
BRANCH   1  25
ATOM     25  N   UNL     1      -0.399  10.909  17.991  0.00  0.00    +0.000 N 
ATOM     26  H   UNL     1       0.127  10.834  17.113  0.00  0.00    +0.000 HD
BRANCH  25  27
ATOM     27  C   UNL     1      -1.805  10.521  17.714  0.00  0.00    +0.000 C 
BRANCH  27  29
ATOM     28  C   UNL     1      -3.987  11.645  18.477  0.00  0.00    +0.000 C 
ATOM     29  C   UNL     1      -2.733  11.753  17.617  0.00  0.00    +0.000 C 
ENDBRANCH  27  29
BRANCH  27  30
ATOM     30  C   UNL     1      -1.847   9.613  16.465  0.00  0.00    +0.000 C 
ATOM     31  C   UNL     1      -2.995   9.879  15.499  0.00  0.00    +0.000 C 
ENDBRANCH  27  30
ENDBRANCH  25  27
ENDBRANCH   1  25
BRANCH   5  32
ATOM     32  O   UNL     1       1.780   7.123  21.487  0.00  0.00    +0.000 OA
ATOM     33  H   UNL     1       2.142   7.526  22.302  0.00  0.00    +0.000 HD
ENDBRANCH   5  32
TORSDOF 6
ENDMDL
MODEL 4
REMARK VINA RESULT:      -8.3      2.785      7.748
REMARK  Name = 
REMARK  8 active torsions:
REMARK  status: ('A' for Active; 'I' for Inactive)
REMARK    1  A    between atoms: C_1  and  C_2
REMARK    2  A    between atoms: C_2  and  C_3
REMARK    3  A    between atoms: C_3  and  C_4
REMARK    4  A    between atoms: C_3  and  N_6
REMARK    5  A    between atoms: C_4  and  C_5
REMARK    6  A    between atoms: N_6  and  N_7
REMARK    7  A    between atoms: C_10  and  C_11
REMARK    8  A    between atoms: C_23  and  O_24
REMARK                            x       y       z     vdW  Elec       q    Type
REMARK                         _______ _______ _______ _____ _____    ______ ____
ROOT
ATOM      1  N   UNL     1       4.079   5.759  17.972  0.00  0.00    +0.000 N 
ATOM      2  C   UNL     1       3.212   6.815  18.225  0.00  0.00    +0.000 A 
ATOM      3  O   UNL     1       3.324   7.921  17.684  0.00  0.00    +0.000 OA
ATOM      4  C   UNL     1       2.173   6.611  19.279  0.00  0.00    +0.000 A 
ATOM      5  C   UNL     1       1.853   5.348  19.631  0.00  0.00    +0.000 A 
ATOM      6  C   UNL     1       2.533   4.193  18.995  0.00  0.00    +0.000 A 
ATOM      7  C   UNL     1       2.073   2.873  19.135  0.00  0.00    +0.000 A 
ATOM      8  C   UNL     1       2.742   1.810  18.515  0.00  0.00    +0.000 A 
ATOM      9  C   UNL     1       3.907   2.043  17.791  0.00  0.00    +0.000 A 
ATOM     10  C   UNL     1       4.391   3.343  17.664  0.00  0.00    +0.000 A 
ATOM     11  C   UNL     1       3.691   4.421  18.228  0.00  0.00    +0.000 A 
ENDROOT
BRANCH   4  12
ATOM     12  C   UNL     1       1.611   7.868  19.943  0.00  0.00    +0.000 C 
ATOM     13  N   UNL     1       1.636   7.948  21.243  0.00  0.00    +0.000 NA
ATOM     14  S   UNL     1       0.835   9.195  21.940  0.00  0.00    +0.000 S 
ATOM     15  O   UNL     1      -0.575   8.860  21.997  0.00  0.00    +0.000 OA
ATOM     16  O   UNL     1       1.557   9.576  23.139  0.00  0.00    +0.000 OA
ATOM     17  C   UNL     1       0.957  10.547  20.822  0.00  0.00    +0.000 A 
ATOM     18  C   UNL     1       0.927  11.880  21.259  0.00  0.00    +0.000 A 
ATOM     19  C   UNL     1       0.967  12.898  20.310  0.00  0.00    +0.000 A 
ATOM     20  C   UNL     1       1.046  12.582  18.952  0.00  0.00    +0.000 A 
ATOM     21  C   UNL     1       1.082  11.243  18.543  0.00  0.00    +0.000 A 
ATOM     22  C   UNL     1       1.015  10.209  19.481  0.00  0.00    +0.000 A 
ATOM     23  N   UNL     1       1.134   8.870  19.112  0.00  0.00    +0.000 N 
ATOM     24  H   UNL     1       0.767   8.601  18.196  0.00  0.00    +0.000 HD
ENDBRANCH   4  12
BRANCH   1  25
ATOM     25  N   UNL     1       5.241   6.015  17.180  0.00  0.00    +0.000 N 
ATOM     26  H   UNL     1       4.963   6.737  16.506  0.00  0.00    +0.000 HD
BRANCH  25  27
ATOM     27  C   UNL     1       6.361   6.555  17.990  0.00  0.00    +0.000 C 
BRANCH  27  29
ATOM     28  C   UNL     1       7.809   4.463  17.626  0.00  0.00    +0.000 C 
ATOM     29  C   UNL     1       7.200   5.429  18.635  0.00  0.00    +0.000 C 
ENDBRANCH  27  29
BRANCH  27  30
ATOM     30  C   UNL     1       7.192   7.531  17.127  0.00  0.00    +0.000 C 
ATOM     31  C   UNL     1       8.066   8.510  17.900  0.00  0.00    +0.000 C 
ENDBRANCH  27  30
ENDBRANCH  25  27
ENDBRANCH   1  25
BRANCH   5  32
ATOM     32  O   UNL     1       0.938   5.016  20.613  0.00  0.00    +0.000 OA
ATOM     33  H   UNL     1       0.492   4.181  20.363  0.00  0.00    +0.000 HD
ENDBRANCH   5  32
TORSDOF 6
ENDMDL
MODEL 5
REMARK VINA RESULT:      -8.2      2.811      7.978
REMARK  Name = 
REMARK  8 active torsions:
REMARK  status: ('A' for Active; 'I' for Inactive)
REMARK    1  A    between atoms: C_1  and  C_2
REMARK    2  A    between atoms: C_2  and  C_3
REMARK    3  A    between atoms: C_3  and  C_4
REMARK    4  A    between atoms: C_3  and  N_6
REMARK    5  A    between atoms: C_4  and  C_5
REMARK    6  A    between atoms: N_6  and  N_7
REMARK    7  A    between atoms: C_10  and  C_11
REMARK    8  A    between atoms: C_23  and  O_24
REMARK                            x       y       z     vdW  Elec       q    Type
REMARK                         _______ _______ _______ _____ _____    ______ ____
ROOT
ATOM      1  N   UNL     1       2.379   6.273  19.965  0.00  0.00    +0.000 N 
ATOM      2  C   UNL     1       1.891   7.524  20.323  0.00  0.00    +0.000 A 
ATOM      3  O   UNL     1       1.460   7.779  21.453  0.00  0.00    +0.000 OA
ATOM      4  C   UNL     1       1.794   8.556  19.246  0.00  0.00    +0.000 A 
ATOM      5  C   UNL     1       2.534   8.389  18.129  0.00  0.00    +0.000 A 
ATOM      6  C   UNL     1       3.406   7.200  17.972  0.00  0.00    +0.000 A 
ATOM      7  C   UNL     1       4.374   7.100  16.958  0.00  0.00    +0.000 A 
ATOM      8  C   UNL     1       5.181   5.961  16.846  0.00  0.00    +0.000 A 
ATOM      9  C   UNL     1       4.998   4.886  17.710  0.00  0.00    +0.000 A 
ATOM     10  C   UNL     1       4.025   4.958  18.703  0.00  0.00    +0.000 A 
ATOM     11  C   UNL     1       3.256   6.122  18.863  0.00  0.00    +0.000 A 
ENDROOT
BRANCH   4  12
ATOM     12  C   UNL     1       0.788   9.685  19.464  0.00  0.00    +0.000 C 
ATOM     13  N   UNL     1      -0.019   9.994  18.489  0.00  0.00    +0.000 NA
ATOM     14  S   UNL     1      -0.933  11.343  18.663  0.00  0.00    +0.000 S 
ATOM     15  O   UNL     1      -0.115  12.495  18.340  0.00  0.00    +0.000 OA
ATOM     16  O   UNL     1      -2.197  11.116  17.988  0.00  0.00    +0.000 OA
ATOM     17  C   UNL     1      -1.290  11.480  20.379  0.00  0.00    +0.000 A 
ATOM     18  C   UNL     1      -2.453  12.108  20.850  0.00  0.00    +0.000 A 
ATOM     19  C   UNL     1      -2.638  12.233  22.224  0.00  0.00    +0.000 A 
ATOM     20  C   UNL     1      -1.679  11.728  23.106  0.00  0.00    +0.000 A 
ATOM     21  C   UNL     1      -0.530  11.099  22.609  0.00  0.00    +0.000 A 
ATOM     22  C   UNL     1      -0.316  10.990  21.232  0.00  0.00    +0.000 A 
ATOM     23  N   UNL     1       0.773  10.295  20.709  0.00  0.00    +0.000 N 
ATOM     24  H   UNL     1       1.643  10.311  21.247  0.00  0.00    +0.000 HD
ENDBRANCH   4  12
BRANCH   1  25
ATOM     25  N   UNL     1       2.225   5.198  20.894  0.00  0.00    +0.000 N 
ATOM     26  H   UNL     1       1.991   5.638  21.791  0.00  0.00    +0.000 HD
BRANCH  25  27
ATOM     27  C   UNL     1       1.106   4.296  20.524  0.00  0.00    +0.000 C 
BRANCH  27  29
ATOM     28  C   UNL     1       0.982   2.615  18.583  0.00  0.00    +0.000 C 
ATOM     29  C   UNL     1       1.021   4.081  18.996  0.00  0.00    +0.000 C 
ENDBRANCH  27  29
BRANCH  27  30
ATOM     30  C   UNL     1       1.221   2.982  21.329  0.00  0.00    +0.000 C 
ATOM     31  C   UNL     1       2.639   2.558  21.694  0.00  0.00    +0.000 C 
ENDBRANCH  27  30
ENDBRANCH  25  27
ENDBRANCH   1  25
BRANCH   5  32
ATOM     32  O   UNL     1       2.514   9.245  17.043  0.00  0.00    +0.000 OA
ATOM     33  H   UNL     1       2.887   8.781  16.265  0.00  0.00    +0.000 HD
ENDBRANCH   5  32
TORSDOF 6
ENDMDL
MODEL 6
REMARK VINA RESULT:      -8.0      1.446      1.977
REMARK  Name = 
REMARK  8 active torsions:
REMARK  status: ('A' for Active; 'I' for Inactive)
REMARK    1  A    between atoms: C_1  and  C_2
REMARK    2  A    between atoms: C_2  and  C_3
REMARK    3  A    between atoms: C_3  and  C_4
REMARK    4  A    between atoms: C_3  and  N_6
REMARK    5  A    between atoms: C_4  and  C_5
REMARK    6  A    between atoms: N_6  and  N_7
REMARK    7  A    between atoms: C_10  and  C_11
REMARK    8  A    between atoms: C_23  and  O_24
REMARK                            x       y       z     vdW  Elec       q    Type
REMARK                         _______ _______ _______ _____ _____    ______ ____
ROOT
ATOM      1  N   UNL     1       1.006   9.552  18.935  0.00  0.00    +0.000 N 
ATOM      2  C   UNL     1       2.033   8.705  18.536  0.00  0.00    +0.000 A 
ATOM      3  O   UNL     1       2.717   8.907  17.527  0.00  0.00    +0.000 OA
ATOM      4  C   UNL     1       2.226   7.446  19.318  0.00  0.00    +0.000 A 
ATOM      5  C   UNL     1       1.711   7.380  20.565  0.00  0.00    +0.000 A 
ATOM      6  C   UNL     1       0.957   8.524  21.132  0.00  0.00    +0.000 A 
ATOM      7  C   UNL     1       0.620   8.608  22.493  0.00  0.00    +0.000 A 
ATOM      8  C   UNL     1      -0.090   9.708  22.991  0.00  0.00    +0.000 A 
ATOM      9  C   UNL     1      -0.517  10.713  22.129  0.00  0.00    +0.000 A 
ATOM     10  C   UNL     1      -0.214  10.632  20.772  0.00  0.00    +0.000 A 
ATOM     11  C   UNL     1       0.552   9.565  20.277  0.00  0.00    +0.000 A 
ENDROOT
BRANCH   4  12
ATOM     12  C   UNL     1       2.925   6.292  18.603  0.00  0.00    +0.000 C 
ATOM     13  N   UNL     1       2.232   5.226  18.319  0.00  0.00    +0.000 NA
ATOM     14  S   UNL     1       3.047   3.922  17.754  0.00  0.00    +0.000 S 
ATOM     15  O   UNL     1       3.638   3.227  18.881  0.00  0.00    +0.000 OA
ATOM     16  O   UNL     1       2.183   3.224  16.821  0.00  0.00    +0.000 OA
ATOM     17  C   UNL     1       4.399   4.550  16.821  0.00  0.00    +0.000 A 
ATOM     18  C   UNL     1       4.961   3.838  15.751  0.00  0.00    +0.000 A 
ATOM     19  C   UNL     1       6.069   4.371  15.098  0.00  0.00    +0.000 A 
ATOM     20  C   UNL     1       6.595   5.599  15.507  0.00  0.00    +0.000 A 
ATOM     21  C   UNL     1       6.010   6.294  16.574  0.00  0.00    +0.000 A 
ATOM     22  C   UNL     1       4.914   5.759  17.257  0.00  0.00    +0.000 A 
ATOM     23  N   UNL     1       4.260   6.464  18.266  0.00  0.00    +0.000 N 
ATOM     24  H   UNL     1       4.825   7.088  18.846  0.00  0.00    +0.000 HD
ENDBRANCH   4  12
BRANCH   1  25
ATOM     25  N   UNL     1       0.623  10.609  18.052  0.00  0.00    +0.000 N 
ATOM     26  H   UNL     1      -0.402  10.577  18.010  0.00  0.00    +0.000 HD
BRANCH  25  27
ATOM     27  C   UNL     1       1.015  11.942  18.574  0.00  0.00    +0.000 C 
BRANCH  27  29
ATOM     28  C   UNL     1       2.713  13.844  18.245  0.00  0.00    +0.000 C 
ATOM     29  C   UNL     1       2.426  12.354  18.098  0.00  0.00    +0.000 C 
ENDBRANCH  27  29
BRANCH  27  30
ATOM     30  C   UNL     1      -0.082  12.971  18.224  0.00  0.00    +0.000 C 
ATOM     31  C   UNL     1      -1.484  12.401  18.044  0.00  0.00    +0.000 C 
ENDBRANCH  27  30
ENDBRANCH  25  27
ENDBRANCH   1  25
BRANCH   5  32
ATOM     32  O   UNL     1       1.785   6.268  21.383  0.00  0.00    +0.000 OA
ATOM     33  H   UNL     1       1.030   5.676  21.184  0.00  0.00    +0.000 HD
ENDBRANCH   5  32
TORSDOF 6
ENDMDL
MODEL 7
REMARK VINA RESULT:      -8.0      2.610      7.952
REMARK  Name = 
REMARK  8 active torsions:
REMARK  status: ('A' for Active; 'I' for Inactive)
REMARK    1  A    between atoms: C_1  and  C_2
REMARK    2  A    between atoms: C_2  and  C_3
REMARK    3  A    between atoms: C_3  and  C_4
REMARK    4  A    between atoms: C_3  and  N_6
REMARK    5  A    between atoms: C_4  and  C_5
REMARK    6  A    between atoms: N_6  and  N_7
REMARK    7  A    between atoms: C_10  and  C_11
REMARK    8  A    between atoms: C_23  and  O_24
REMARK                            x       y       z     vdW  Elec       q    Type
REMARK                         _______ _______ _______ _____ _____    ______ ____
ROOT
ATOM      1  N   UNL     1       2.663   5.050  18.864  0.00  0.00    +0.000 N 
ATOM      2  C   UNL     1       2.303   6.027  19.785  0.00  0.00    +0.000 A 
ATOM      3  O   UNL     1       1.931   5.764  20.933  0.00  0.00    +0.000 OA
ATOM      4  C   UNL     1       2.271   7.442  19.305  0.00  0.00    +0.000 A 
ATOM      5  C   UNL     1       2.959   7.757  18.187  0.00  0.00    +0.000 A 
ATOM      6  C   UNL     1       3.712   6.717  17.446  0.00  0.00    +0.000 A 
ATOM      7  C   UNL     1       4.637   7.027  16.435  0.00  0.00    +0.000 A 
ATOM      8  C   UNL     1       5.332   6.015  15.761  0.00  0.00    +0.000 A 
ATOM      9  C   UNL     1       5.076   4.678  16.051  0.00  0.00    +0.000 A 
ATOM     10  C   UNL     1       4.142   4.352  17.032  0.00  0.00    +0.000 A 
ATOM     11  C   UNL     1       3.490   5.363  17.756  0.00  0.00    +0.000 A 
ENDROOT
BRANCH   4  12
ATOM     12  C   UNL     1       1.381   8.411  20.081  0.00  0.00    +0.000 C 
ATOM     13  N   UNL     1       1.427   8.390  21.383  0.00  0.00    +0.000 NA
ATOM     14  S   UNL     1       0.313   9.275  22.195  0.00  0.00    +0.000 S 
ATOM     15  O   UNL     1      -0.927   8.525  22.235  0.00  0.00    +0.000 OA
ATOM     16  O   UNL     1       0.929   9.758  23.416  0.00  0.00    +0.000 OA
ATOM     17  C   UNL     1      -0.017  10.686  21.199  0.00  0.00    +0.000 A 
ATOM     18  C   UNL     1      -0.432  11.907  21.752  0.00  0.00    +0.000 A 
ATOM     19  C   UNL     1      -0.734  12.963  20.896  0.00  0.00    +0.000 A 
ATOM     20  C   UNL     1      -0.612  12.797  19.514  0.00  0.00    +0.000 A 
ATOM     21  C   UNL     1      -0.190  11.569  18.989  0.00  0.00    +0.000 A 
ATOM     22  C   UNL     1       0.091  10.491  19.833  0.00  0.00    +0.000 A 
ATOM     23  N   UNL     1       0.595   9.286  19.346  0.00  0.00    +0.000 N 
ATOM     24  H   UNL     1       0.294   8.993  18.414  0.00  0.00    +0.000 HD
ENDBRANCH   4  12
BRANCH   1  25
ATOM     25  N   UNL     1       2.437   3.682  19.209  0.00  0.00    +0.000 N 
ATOM     26  H   UNL     1       2.587   3.150  18.345  0.00  0.00    +0.000 HD
BRANCH  25  27
ATOM     27  C   UNL     1       3.410   3.194  20.219  0.00  0.00    +0.000 C 
BRANCH  27  29
ATOM     28  C   UNL     1       1.192   2.618  21.385  0.00  0.00    +0.000 C 
ATOM     29  C   UNL     1       2.708   2.717  21.511  0.00  0.00    +0.000 C 
ENDBRANCH  27  29
BRANCH  27  30
ATOM     30  C   UNL     1       4.319   2.122  19.576  0.00  0.00    +0.000 C 
ATOM     31  C   UNL     1       3.656   1.249  18.517  0.00  0.00    +0.000 C 
ENDBRANCH  27  30
ENDBRANCH  25  27
ENDBRANCH   1  25
BRANCH   5  32
ATOM     32  O   UNL     1       2.987   9.016  17.614  0.00  0.00    +0.000 OA
ATOM     33  H   UNL     1       3.808   9.473  17.891  0.00  0.00    +0.000 HD
ENDBRANCH   5  32
TORSDOF 6
ENDMDL
MODEL 8
REMARK VINA RESULT:      -7.9      2.601      7.996
REMARK  Name = 
REMARK  8 active torsions:
REMARK  status: ('A' for Active; 'I' for Inactive)
REMARK    1  A    between atoms: C_1  and  C_2
REMARK    2  A    between atoms: C_2  and  C_3
REMARK    3  A    between atoms: C_3  and  C_4
REMARK    4  A    between atoms: C_3  and  N_6
REMARK    5  A    between atoms: C_4  and  C_5
REMARK    6  A    between atoms: N_6  and  N_7
REMARK    7  A    between atoms: C_10  and  C_11
REMARK    8  A    between atoms: C_23  and  O_24
REMARK                            x       y       z     vdW  Elec       q    Type
REMARK                         _______ _______ _______ _____ _____    ______ ____
ROOT
ATOM      1  N   UNL     1       3.164   5.045  18.838  0.00  0.00    +0.000 N 
ATOM      2  C   UNL     1       2.788   6.197  19.519  0.00  0.00    +0.000 A 
ATOM      3  O   UNL     1       2.425   6.191  20.700  0.00  0.00    +0.000 OA
ATOM      4  C   UNL     1       2.726   7.468  18.734  0.00  0.00    +0.000 A 
ATOM      5  C   UNL     1       3.404   7.536  17.568  0.00  0.00    +0.000 A 
ATOM      6  C   UNL     1       4.176   6.370  17.074  0.00  0.00    +0.000 A 
ATOM      7  C   UNL     1       5.090   6.463  16.012  0.00  0.00    +0.000 A 
ATOM      8  C   UNL     1       5.802   5.337  15.577  0.00  0.00    +0.000 A 
ATOM      9  C   UNL     1       5.574   4.096  16.161  0.00  0.00    +0.000 A 
ATOM     10  C   UNL     1       4.650   3.981  17.198  0.00  0.00    +0.000 A 
ATOM     11  C   UNL     1       3.980   5.116  17.682  0.00  0.00    +0.000 A 
ENDROOT
BRANCH   4  12
ATOM     12  C   UNL     1       1.820   8.569  19.280  0.00  0.00    +0.000 C 
ATOM     13  N   UNL     1       0.985   9.148  18.464  0.00  0.00    +0.000 NA
ATOM     14  S   UNL     1       0.184  10.468  19.012  0.00  0.00    +0.000 S 
ATOM     15  O   UNL     1       1.066  11.615  18.910  0.00  0.00    +0.000 OA
ATOM     16  O   UNL     1      -1.128  10.483  18.394  0.00  0.00    +0.000 OA
ATOM     17  C   UNL     1      -0.067  10.214  20.734  0.00  0.00    +0.000 A 
ATOM     18  C   UNL     1      -1.153  10.780  21.419  0.00  0.00    +0.000 A 
ATOM     19  C   UNL     1      -1.252  10.585  22.794  0.00  0.00    +0.000 A 
ATOM     20  C   UNL     1      -0.286   9.830  23.464  0.00  0.00    +0.000 A 
ATOM     21  C   UNL     1       0.784   9.271  22.754  0.00  0.00    +0.000 A 
ATOM     22  C   UNL     1       0.914   9.480  21.378  0.00  0.00    +0.000 A 
ATOM     23  N   UNL     1       1.918   8.866  20.631  0.00  0.00    +0.000 N 
ATOM     24  H   UNL     1       2.815   8.703  21.095  0.00  0.00    +0.000 HD
ENDBRANCH   4  12
BRANCH   1  25
ATOM     25  N   UNL     1       2.967   3.785  19.484  0.00  0.00    +0.000 N 
ATOM     26  H   UNL     1       2.902   3.995  20.486  0.00  0.00    +0.000 HD
BRANCH  25  27
ATOM     27  C   UNL     1       1.696   3.139  19.069  0.00  0.00    +0.000 C 
BRANCH  27  29
ATOM     28  C   UNL     1       3.381   1.283  18.498  0.00  0.00    +0.000 C 
ATOM     29  C   UNL     1       1.940   1.771  18.394  0.00  0.00    +0.000 C 
ENDBRANCH  27  29
BRANCH  27  30
ATOM     30  C   UNL     1       0.740   3.071  20.281  0.00  0.00    +0.000 C 
ATOM     31  C   UNL     1       1.400   2.780  21.623  0.00  0.00    +0.000 C 
ENDBRANCH  27  30
ENDBRANCH  25  27
ENDBRANCH   1  25
BRANCH   5  32
ATOM     32  O   UNL     1       3.405   8.634  16.728  0.00  0.00    +0.000 OA
ATOM     33  H   UNL     1       3.325   9.448  17.267  0.00  0.00    +0.000 HD
ENDBRANCH   5  32
TORSDOF 6
ENDMDL
MODEL 9
REMARK VINA RESULT:      -7.9      2.932      8.100
REMARK  Name = 
REMARK  8 active torsions:
REMARK  status: ('A' for Active; 'I' for Inactive)
REMARK    1  A    between atoms: C_1  and  C_2
REMARK    2  A    between atoms: C_2  and  C_3
REMARK    3  A    between atoms: C_3  and  C_4
REMARK    4  A    between atoms: C_3  and  N_6
REMARK    5  A    between atoms: C_4  and  C_5
REMARK    6  A    between atoms: N_6  and  N_7
REMARK    7  A    between atoms: C_10  and  C_11
REMARK    8  A    between atoms: C_23  and  O_24
REMARK                            x       y       z     vdW  Elec       q    Type
REMARK                         _______ _______ _______ _____ _____    ______ ____
ROOT
ATOM      1  N   UNL     1       2.145   6.666  20.160  0.00  0.00    +0.000 N 
ATOM      2  C   UNL     1       1.618   7.916  20.463  0.00  0.00    +0.000 A 
ATOM      3  O   UNL     1       1.201   8.215  21.587  0.00  0.00    +0.000 OA
ATOM      4  C   UNL     1       1.460   8.884  19.335  0.00  0.00    +0.000 A 
ATOM      5  C   UNL     1       2.182   8.686  18.212  0.00  0.00    +0.000 A 
ATOM      6  C   UNL     1       3.095   7.522  18.098  0.00  0.00    +0.000 A 
ATOM      7  C   UNL     1       4.045   7.404  17.069  0.00  0.00    +0.000 A 
ATOM      8  C   UNL     1       4.892   6.291  16.999  0.00  0.00    +0.000 A 
ATOM      9  C   UNL     1       4.768   5.258  17.922  0.00  0.00    +0.000 A 
ATOM     10  C   UNL     1       3.813   5.346  18.932  0.00  0.00    +0.000 A 
ATOM     11  C   UNL     1       3.004   6.489  19.048  0.00  0.00    +0.000 A 
ENDROOT
BRANCH   4  12
ATOM     12  C   UNL     1       0.417   9.986  19.517  0.00  0.00    +0.000 C 
ATOM     13  N   UNL     1      -0.459  10.173  18.570  0.00  0.00    +0.000 NA
ATOM     14  S   UNL     1      -1.423  11.493  18.683  0.00  0.00    +0.000 S 
ATOM     15  O   UNL     1      -0.680  12.646  18.211  0.00  0.00    +0.000 OA
ATOM     16  O   UNL     1      -2.712  11.155  18.109  0.00  0.00    +0.000 OA
ATOM     17  C   UNL     1      -1.687  11.768  20.399  0.00  0.00    +0.000 A 
ATOM     18  C   UNL     1      -2.848  12.387  20.885  0.00  0.00    +0.000 A 
ATOM     19  C   UNL     1      -2.959  12.626  22.252  0.00  0.00    +0.000 A 
ATOM     20  C   UNL     1      -1.929  12.242  23.113  0.00  0.00    +0.000 A 
ATOM     21  C   UNL     1      -0.782  11.619  22.603  0.00  0.00    +0.000 A 
ATOM     22  C   UNL     1      -0.643  11.397  21.230  0.00  0.00    +0.000 A 
ATOM     23  N   UNL     1       0.445  10.704  20.703  0.00  0.00    +0.000 N 
ATOM     24  H   UNL     1       1.343  10.803  21.183  0.00  0.00    +0.000 HD
ENDBRANCH   4  12
BRANCH   1  25
ATOM     25  N   UNL     1       2.051   5.637  21.148  0.00  0.00    +0.000 N 
ATOM     26  H   UNL     1       1.146   5.778  21.609  0.00  0.00    +0.000 HD
BRANCH  25  27
ATOM     27  C   UNL     1       2.049   4.282  20.543  0.00  0.00    +0.000 C 
BRANCH  27  29
ATOM     28  C   UNL     1       3.635   2.295  20.925  0.00  0.00    +0.000 C 
ATOM     29  C   UNL     1       2.575   3.212  21.525  0.00  0.00    +0.000 C 
ENDBRANCH  27  29
BRANCH  27  30
ATOM     30  C   UNL     1       0.641   3.974  19.986  0.00  0.00    +0.000 C 
ATOM     31  C   UNL     1       0.571   2.840  18.970  0.00  0.00    +0.000 C 
ENDBRANCH  27  30
ENDBRANCH  25  27
ENDBRANCH   1  25
BRANCH   5  32
ATOM     32  O   UNL     1       2.108   9.481  17.084  0.00  0.00    +0.000 OA
ATOM     33  H   UNL     1       2.078  10.421  17.359  0.00  0.00    +0.000 HD
ENDBRANCH   5  32
TORSDOF 6
ENDMDL
