MODEL 1
REMARK VINA RESULT:      -7.7      0.000      0.000
REMARK  Name = 
REMARK  7 active torsions:
REMARK  status: ('A' for Active; 'I' for Inactive)
REMARK    1  A    between atoms: C_1  and  C_2
REMARK    2  A    between atoms: C_4  and  C_5
REMARK    3  A    between atoms: C_5  and  C_7
REMARK    4  A    between atoms: C_7  and  S_8
REMARK    5  A    between atoms: S_8  and  C_9
REMARK    6  A    between atoms: C_19  and  C_20
REMARK    7  A    between atoms: N_21  and  C_22
REMARK                            x       y       z     vdW  Elec       q    Type
REMARK                         _______ _______ _______ _____ _____    ______ ____
ROOT
ATOM      1  C   UNL     1       2.557   6.589  19.218  0.00  0.00    +0.000 C 
ATOM      2  O   UNL     1       2.661   6.530  17.991  0.00  0.00    +0.000 OA
ENDROOT
BRANCH   1   6
ATOM      3  C   UNL     1      -0.025   9.504  22.573  0.00  0.00    +0.000 C 
ATOM      4  C   UNL     1       0.652   9.008  21.344  0.00  0.00    +0.000 A 
ATOM      5  C   UNL     1       1.304   7.794  21.179  0.00  0.00    +0.000 A 
ATOM      6  C   UNL     1       1.830   7.717  19.856  0.00  0.00    +0.000 A 
ATOM      7  C   UNL     1       1.511   8.936  19.254  0.00  0.00    +0.000 A 
ATOM      8  C   UNL     1       1.810   9.431  17.873  0.00  0.00    +0.000 C 
ATOM      9  N   UNL     1       0.772   9.693  20.154  0.00  0.00    +0.000 N 
BRANCH   9  10
ATOM     10  C   UNL     1       0.204  10.988  19.775  0.00  0.00    +0.000 C 
ATOM     11  C   UNL     1      -1.202  11.088  19.209  0.00  0.00    +0.000 C 
ATOM     12  C   UNL     1      -0.864  11.793  20.480  0.00  0.00    +0.000 C 
ENDBRANCH   9  10
ENDBRANCH   1   6
BRANCH   1  13
ATOM     13  C   UNL     1       3.162   5.514  20.122  0.00  0.00    +0.000 C 
BRANCH  13  14
ATOM     14  S   UNL     1       3.753   4.056  19.155  0.00  0.00    +0.000 S 
BRANCH  14  15
ATOM     15  C   UNL     1       5.348   4.638  18.567  0.00  0.00    +0.000 A 
ATOM     16  N   UNL     1       6.160   5.115  19.529  0.00  0.00    +0.000 NA
ATOM     17  C   UNL     1       7.353   5.557  19.121  0.00  0.00    +0.000 A 
ATOM     18  N   UNL     1       7.802   5.571  17.864  0.00  0.00    +0.000 NA
ATOM     19  C   UNL     1       6.984   5.095  16.921  0.00  0.00    +0.000 A 
ATOM     20  C   UNL     1       7.438   5.107  15.609  0.00  0.00    +0.000 A 
ATOM     21  C   UNL     1       6.664   4.636  14.548  0.00  0.00    +0.000 A 
ATOM     22  C   UNL     1       5.397   4.129  14.802  0.00  0.00    +0.000 A 
ATOM     23  C   UNL     1       4.916   4.105  16.115  0.00  0.00    +0.000 A 
ATOM     24  C   UNL     1       5.703   4.592  17.199  0.00  0.00    +0.000 A 
ENDBRANCH  14  15
ENDBRANCH  13  14
ENDBRANCH   1  13
TORSDOF 5
ENDMDL
MODEL 2
REMARK VINA RESULT:      -7.5      1.724      2.770
REMARK  Name = 
REMARK  7 active torsions:
REMARK  status: ('A' for Active; 'I' for Inactive)
REMARK    1  A    between atoms: C_1  and  C_2
REMARK    2  A    between atoms: C_4  and  C_5
REMARK    3  A    between atoms: C_5  and  C_7
REMARK    4  A    between atoms: C_7  and  S_8
REMARK    5  A    between atoms: S_8  and  C_9
REMARK    6  A    between atoms: C_19  and  C_20
REMARK    7  A    between atoms: N_21  and  C_22
REMARK                            x       y       z     vdW  Elec       q    Type
REMARK                         _______ _______ _______ _____ _____    ______ ____
ROOT
ATOM      1  C   UNL     1       2.762   4.692  19.575  0.00  0.00    +0.000 C 
ATOM      2  O   UNL     1       3.353   4.083  20.470  0.00  0.00    +0.000 OA
ENDROOT
BRANCH   1   6
ATOM      3  C   UNL     1       0.433   8.807  21.591  0.00  0.00    +0.000 C 
ATOM      4  C   UNL     1       1.204   7.905  20.692  0.00  0.00    +0.000 A 
ATOM      5  C   UNL     1       1.493   6.564  20.900  0.00  0.00    +0.000 A 
ATOM      6  C   UNL     1       2.268   6.074  19.808  0.00  0.00    +0.000 A 
ATOM      7  C   UNL     1       2.469   7.172  18.968  0.00  0.00    +0.000 A 
ATOM      8  C   UNL     1       3.213   7.265  17.672  0.00  0.00    +0.000 C 
ATOM      9  N   UNL     1       1.793   8.263  19.499  0.00  0.00    +0.000 N 
BRANCH   9  10
ATOM     10  C   UNL     1       1.732   9.541  18.789  0.00  0.00    +0.000 C 
ATOM     11  C   UNL     1       0.476   9.965  18.050  0.00  0.00    +0.000 C 
ATOM     12  C   UNL     1       0.990  10.801  19.173  0.00  0.00    +0.000 C 
ENDBRANCH   9  10
ENDBRANCH   1   6
BRANCH   1  13
ATOM     13  C   UNL     1       2.521   4.057  18.205  0.00  0.00    +0.000 C 
BRANCH  13  14
ATOM     14  S   UNL     1       3.946   3.012  17.672  0.00  0.00    +0.000 S 
BRANCH  14  15
ATOM     15  C   UNL     1       4.992   4.221  16.852  0.00  0.00    +0.000 A 
ATOM     16  N   UNL     1       4.782   4.338  15.528  0.00  0.00    +0.000 NA
ATOM     17  C   UNL     1       5.547   5.229  14.891  0.00  0.00    +0.000 A 
ATOM     18  N   UNL     1       6.489   5.998  15.442  0.00  0.00    +0.000 NA
ATOM     19  C   UNL     1       6.686   5.869  16.757  0.00  0.00    +0.000 A 
ATOM     20  C   UNL     1       7.665   6.661  17.342  0.00  0.00    +0.000 A 
ATOM     21  C   UNL     1       7.952   6.604  18.706  0.00  0.00    +0.000 A 
ATOM     22  C   UNL     1       7.237   5.734  19.517  0.00  0.00    +0.000 A 
ATOM     23  C   UNL     1       6.245   4.927  18.953  0.00  0.00    +0.000 A 
ATOM     24  C   UNL     1       5.954   4.979  17.558  0.00  0.00    +0.000 A 
ENDBRANCH  14  15
ENDBRANCH  13  14
ENDBRANCH   1  13
TORSDOF 5
ENDMDL
MODEL 3
REMARK VINA RESULT:      -7.2      1.128      1.209
REMARK  Name = 
REMARK  7 active torsions:
REMARK  status: ('A' for Active; 'I' for Inactive)
REMARK    1  A    between atoms: C_1  and  C_2
REMARK    2  A    between atoms: C_4  and  C_5
REMARK    3  A    between atoms: C_5  and  C_7
REMARK    4  A    between atoms: C_7  and  S_8
REMARK    5  A    between atoms: S_8  and  C_9
REMARK    6  A    between atoms: C_19  and  C_20
REMARK    7  A    between atoms: N_21  and  C_22
REMARK                            x       y       z     vdW  Elec       q    Type
REMARK                         _______ _______ _______ _____ _____    ______ ____
ROOT
ATOM      1  C   UNL     1       2.531   5.466  19.838  0.00  0.00    +0.000 C 
ATOM      2  O   UNL     1       2.973   4.784  20.766  0.00  0.00    +0.000 OA
ENDROOT
BRANCH   1   6
ATOM      3  C   UNL     1       0.057   9.410  22.017  0.00  0.00    +0.000 C 
ATOM      4  C   UNL     1       0.821   8.561  21.063  0.00  0.00    +0.000 A 
ATOM      5  C   UNL     1       1.230   7.248  21.253  0.00  0.00    +0.000 A 
ATOM      6  C   UNL     1       1.950   6.807  20.103  0.00  0.00    +0.000 A 
ATOM      7  C   UNL     1       1.995   7.908  19.244  0.00  0.00    +0.000 A 
ATOM      8  C   UNL     1       2.622   8.044  17.892  0.00  0.00    +0.000 C 
ATOM      9  N   UNL     1       1.281   8.949  19.823  0.00  0.00    +0.000 N 
BRANCH   9  10
ATOM     10  C   UNL     1       1.063  10.211  19.114  0.00  0.00    +0.000 C 
ATOM     11  C   UNL     1      -0.201  10.443  18.305  0.00  0.00    +0.000 C 
ATOM     12  C   UNL     1       0.114  11.336  19.458  0.00  0.00    +0.000 C 
ENDBRANCH   9  10
ENDBRANCH   1   6
BRANCH   1  13
ATOM     13  C   UNL     1       2.566   4.964  18.394  0.00  0.00    +0.000 C 
BRANCH  13  14
ATOM     14  S   UNL     1       3.607   3.450  18.217  0.00  0.00    +0.000 S 
BRANCH  14  15
ATOM     15  C   UNL     1       5.216   4.161  17.852  0.00  0.00    +0.000 A 
ATOM     16  N   UNL     1       5.922   4.538  18.934  0.00  0.00    +0.000 NA
ATOM     17  C   UNL     1       7.122   5.072  18.693  0.00  0.00    +0.000 A 
ATOM     18  N   UNL     1       7.673   5.267  17.493  0.00  0.00    +0.000 NA
ATOM     19  C   UNL     1       6.960   4.889  16.429  0.00  0.00    +0.000 A 
ATOM     20  C   UNL     1       7.520   5.089  15.173  0.00  0.00    +0.000 A 
ATOM     21  C   UNL     1       6.859   4.733  13.998  0.00  0.00    +0.000 A 
ATOM     22  C   UNL     1       5.601   4.152  14.072  0.00  0.00    +0.000 A 
ATOM     23  C   UNL     1       5.015   3.938  15.323  0.00  0.00    +0.000 A 
ATOM     24  C   UNL     1       5.685   4.308  16.526  0.00  0.00    +0.000 A 
ENDBRANCH  14  15
ENDBRANCH  13  14
ENDBRANCH   1  13
TORSDOF 5
ENDMDL
MODEL 4
REMARK VINA RESULT:      -7.2      1.387      1.824
REMARK  Name = 
REMARK  7 active torsions:
REMARK  status: ('A' for Active; 'I' for Inactive)
REMARK    1  A    between atoms: C_1  and  C_2
REMARK    2  A    between atoms: C_4  and  C_5
REMARK    3  A    between atoms: C_5  and  C_7
REMARK    4  A    between atoms: C_7  and  S_8
REMARK    5  A    between atoms: S_8  and  C_9
REMARK    6  A    between atoms: C_19  and  C_20
REMARK    7  A    between atoms: N_21  and  C_22
REMARK                            x       y       z     vdW  Elec       q    Type
REMARK                         _______ _______ _______ _____ _____    ______ ____
ROOT
ATOM      1  C   UNL     1       2.024   4.345  19.834  0.00  0.00    +0.000 C 
ATOM      2  O   UNL     1       1.129   3.697  19.285  0.00  0.00    +0.000 OA
ENDROOT
BRANCH   1   6
ATOM      3  C   UNL     1       0.907   9.005  21.693  0.00  0.00    +0.000 C 
ATOM      4  C   UNL     1       1.369   7.896  20.815  0.00  0.00    +0.000 A 
ATOM      5  C   UNL     1       1.344   6.537  21.098  0.00  0.00    +0.000 A 
ATOM      6  C   UNL     1       1.893   5.816  19.998  0.00  0.00    +0.000 A 
ATOM      7  C   UNL     1       2.285   6.785  19.071  0.00  0.00    +0.000 A 
ATOM      8  C   UNL     1       2.927   6.624  17.729  0.00  0.00    +0.000 C 
ATOM      9  N   UNL     1       1.932   8.035  19.564  0.00  0.00    +0.000 N 
BRANCH   9  10
ATOM     10  C   UNL     1       2.124   9.249  18.771  0.00  0.00    +0.000 C 
ATOM     11  C   UNL     1       1.092   9.683  17.745  0.00  0.00    +0.000 C 
ATOM     12  C   UNL     1       1.415  10.579  18.892  0.00  0.00    +0.000 C 
ENDBRANCH   9  10
ENDBRANCH   1   6
BRANCH   1  13
ATOM     13  C   UNL     1       3.288   3.666  20.364  0.00  0.00    +0.000 C 
BRANCH  13  14
ATOM     14  S   UNL     1       4.220   2.805  19.023  0.00  0.00    +0.000 S 
BRANCH  14  15
ATOM     15  C   UNL     1       5.434   4.051  18.573  0.00  0.00    +0.000 A 
ATOM     16  N   UNL     1       5.968   4.716  19.614  0.00  0.00    +0.000 NA
ATOM     17  C   UNL     1       6.873   5.650  19.310  0.00  0.00    +0.000 A 
ATOM     18  N   UNL     1       7.285   5.980  18.084  0.00  0.00    +0.000 NA
ATOM     19  C   UNL     1       6.745   5.312  17.061  0.00  0.00    +0.000 A 
ATOM     20  C   UNL     1       7.161   5.650  15.780  0.00  0.00    +0.000 A 
ATOM     21  C   UNL     1       6.659   5.016  14.643  0.00  0.00    +0.000 A 
ATOM     22  C   UNL     1       5.715   4.009  14.784  0.00  0.00    +0.000 A 
ATOM     23  C   UNL     1       5.279   3.650  16.063  0.00  0.00    +0.000 A 
ATOM     24  C   UNL     1       5.786   4.301  17.226  0.00  0.00    +0.000 A 
ENDBRANCH  14  15
ENDBRANCH  13  14
ENDBRANCH   1  13
TORSDOF 5
ENDMDL
MODEL 5
REMARK VINA RESULT:      -7.2      2.382      3.419
REMARK  Name = 
REMARK  7 active torsions:
REMARK  status: ('A' for Active; 'I' for Inactive)
REMARK    1  A    between atoms: C_1  and  C_2
REMARK    2  A    between atoms: C_4  and  C_5
REMARK    3  A    between atoms: C_5  and  C_7
REMARK    4  A    between atoms: C_7  and  S_8
REMARK    5  A    between atoms: S_8  and  C_9
REMARK    6  A    between atoms: C_19  and  C_20
REMARK    7  A    between atoms: N_21  and  C_22
REMARK                            x       y       z     vdW  Elec       q    Type
REMARK                         _______ _______ _______ _____ _____    ______ ____
ROOT
ATOM      1  C   UNL     1       1.435   9.096  18.843  0.00  0.00    +0.000 C 
ATOM      2  O   UNL     1       1.250   9.462  17.679  0.00  0.00    +0.000 OA
ENDROOT
BRANCH   1   6
ATOM      3  C   UNL     1      -0.997  10.399  23.179  0.00  0.00    +0.000 C 
ATOM      4  C   UNL     1      -0.246  10.457  21.896  0.00  0.00    +0.000 A 
ATOM      5  C   UNL     1       0.156   9.385  21.112  0.00  0.00    +0.000 A 
ATOM      6  C   UNL     1       0.864   9.871  19.974  0.00  0.00    +0.000 A 
ATOM      7  C   UNL     1       0.910  11.259  20.126  0.00  0.00    +0.000 A 
ATOM      8  C   UNL     1       1.527  12.301  19.245  0.00  0.00    +0.000 C 
ATOM      9  N   UNL     1       0.207  11.601  21.274  0.00  0.00    +0.000 N 
BRANCH   9  10
ATOM     10  C   UNL     1      -0.008  12.999  21.649  0.00  0.00    +0.000 C 
ATOM     11  C   UNL     1      -1.319  13.699  21.333  0.00  0.00    +0.000 C 
ATOM     12  C   UNL     1      -0.878  13.559  22.751  0.00  0.00    +0.000 C 
ENDBRANCH   9  10
ENDBRANCH   1   6
BRANCH   1  13
ATOM     13  C   UNL     1       2.247   7.840  19.162  0.00  0.00    +0.000 C 
BRANCH  13  14
ATOM     14  S   UNL     1       3.190   7.239  17.693  0.00  0.00    +0.000 S 
BRANCH  14  15
ATOM     15  C   UNL     1       3.927   5.730  18.331  0.00  0.00    +0.000 A 
ATOM     16  N   UNL     1       5.236   5.828  18.629  0.00  0.00    +0.000 NA
ATOM     17  C   UNL     1       5.812   4.721  19.104  0.00  0.00    +0.000 A 
ATOM     18  N   UNL     1       5.215   3.543  19.303  0.00  0.00    +0.000 NA
ATOM     19  C   UNL     1       3.917   3.462  19.002  0.00  0.00    +0.000 A 
ATOM     20  C   UNL     1       3.285   2.241  19.200  0.00  0.00    +0.000 A 
ATOM     21  C   UNL     1       1.932   2.048  18.917  0.00  0.00    +0.000 A 
ATOM     22  C   UNL     1       1.181   3.106  18.424  0.00  0.00    +0.000 A 
ATOM     23  C   UNL     1       1.793   4.345  18.216  0.00  0.00    +0.000 A 
ATOM     24  C   UNL     1       3.177   4.543  18.499  0.00  0.00    +0.000 A 
ENDBRANCH  14  15
ENDBRANCH  13  14
ENDBRANCH   1  13
TORSDOF 5
ENDMDL
MODEL 6
REMARK VINA RESULT:      -7.1      1.730      8.050
REMARK  Name = 
REMARK  7 active torsions:
REMARK  status: ('A' for Active; 'I' for Inactive)
REMARK    1  A    between atoms: C_1  and  C_2
REMARK    2  A    between atoms: C_4  and  C_5
REMARK    3  A    between atoms: C_5  and  C_7
REMARK    4  A    between atoms: C_7  and  S_8
REMARK    5  A    between atoms: S_8  and  C_9
REMARK    6  A    between atoms: C_19  and  C_20
REMARK    7  A    between atoms: N_21  and  C_22
REMARK                            x       y       z     vdW  Elec       q    Type
REMARK                         _______ _______ _______ _____ _____    ______ ____
ROOT
ATOM      1  C   UNL     1       2.354   4.943  19.761  0.00  0.00    +0.000 C 
ATOM      2  O   UNL     1       1.529   4.029  19.696  0.00  0.00    +0.000 OA
ENDROOT
BRANCH   1   6
ATOM      3  C   UNL     1       7.280   5.449  18.386  0.00  0.00    +0.000 C 
ATOM      4  C   UNL     1       5.834   5.097  18.397  0.00  0.00    +0.000 A 
ATOM      5  C   UNL     1       4.915   5.368  19.400  0.00  0.00    +0.000 A 
ATOM      6  C   UNL     1       3.641   4.847  19.026  0.00  0.00    +0.000 A 
ATOM      7  C   UNL     1       3.839   4.221  17.793  0.00  0.00    +0.000 A 
ATOM      8  C   UNL     1       2.865   3.496  16.918  0.00  0.00    +0.000 C 
ATOM      9  N   UNL     1       5.162   4.409  17.410  0.00  0.00    +0.000 N 
BRANCH   9  10
ATOM     10  C   UNL     1       5.651   3.952  16.109  0.00  0.00    +0.000 C 
ATOM     11  C   UNL     1       5.546   4.838  14.880  0.00  0.00    +0.000 C 
ATOM     12  C   UNL     1       6.887   4.391  15.357  0.00  0.00    +0.000 C 
ENDBRANCH   9  10
ENDBRANCH   1   6
BRANCH   1  13
ATOM     13  C   UNL     1       2.086   6.199  20.592  0.00  0.00    +0.000 C 
BRANCH  13  14
ATOM     14  S   UNL     1       1.946   7.706  19.534  0.00  0.00    +0.000 S 
BRANCH  14  15
ATOM     15  C   UNL     1       1.098   8.842  20.637  0.00  0.00    +0.000 A 
ATOM     16  N   UNL     1       1.337   8.636  21.946  0.00  0.00    +0.000 NA
ATOM     17  C   UNL     1       0.718   9.465  22.791  0.00  0.00    +0.000 A 
ATOM     18  N   UNL     1      -0.108  10.460  22.459  0.00  0.00    +0.000 NA
ATOM     19  C   UNL     1      -0.335  10.651  21.156  0.00  0.00    +0.000 A 
ATOM     20  C   UNL     1      -1.195  11.681  20.797  0.00  0.00    +0.000 A 
ATOM     21  C   UNL     1      -1.502  11.964  19.466  0.00  0.00    +0.000 A 
ATOM     22  C   UNL     1      -0.931  11.201  18.458  0.00  0.00    +0.000 A 
ATOM     23  C   UNL     1      -0.062  10.158  18.792  0.00  0.00    +0.000 A 
ATOM     24  C   UNL     1       0.248   9.863  20.152  0.00  0.00    +0.000 A 
ENDBRANCH  14  15
ENDBRANCH  13  14
ENDBRANCH   1  13
TORSDOF 5
ENDMDL
MODEL 7
REMARK VINA RESULT:      -7.0      0.961      1.112
REMARK  Name = 
REMARK  7 active torsions:
REMARK  status: ('A' for Active; 'I' for Inactive)
REMARK    1  A    between atoms: C_1  and  C_2
REMARK    2  A    between atoms: C_4  and  C_5
REMARK    3  A    between atoms: C_5  and  C_7
REMARK    4  A    between atoms: C_7  and  S_8
REMARK    5  A    between atoms: S_8  and  C_9
REMARK    6  A    between atoms: C_19  and  C_20
REMARK    7  A    between atoms: N_21  and  C_22
REMARK                            x       y       z     vdW  Elec       q    Type
REMARK                         _______ _______ _______ _____ _____    ______ ____
ROOT
ATOM      1  C   UNL     1       2.205   7.568  19.280  0.00  0.00    +0.000 C 
ATOM      2  O   UNL     1       2.582   7.967  18.176  0.00  0.00    +0.000 OA
ENDROOT
BRANCH   1   6
ATOM      3  C   UNL     1      -0.183   9.564  23.371  0.00  0.00    +0.000 C 
ATOM      4  C   UNL     1       0.326   9.334  21.991  0.00  0.00    +0.000 A 
ATOM      5  C   UNL     1       1.150   8.302  21.564  0.00  0.00    +0.000 A 
ATOM      6  C   UNL     1       1.416   8.456  20.172  0.00  0.00    +0.000 A 
ATOM      7  C   UNL     1       0.764   9.632  19.793  0.00  0.00    +0.000 A 
ATOM      8  C   UNL     1       0.692  10.301  18.456  0.00  0.00    +0.000 C 
ATOM      9  N   UNL     1       0.083  10.133  20.895  0.00  0.00    +0.000 N 
BRANCH   9  10
ATOM     10  C   UNL     1      -0.781  11.310  20.787  0.00  0.00    +0.000 C 
ATOM     11  C   UNL     1      -0.464  12.583  21.551  0.00  0.00    +0.000 C 
ATOM     12  C   UNL     1      -0.521  12.610  20.061  0.00  0.00    +0.000 C 
ENDBRANCH   9  10
ENDBRANCH   1   6
BRANCH   1  13
ATOM     13  C   UNL     1       2.530   6.155  19.769  0.00  0.00    +0.000 C 
BRANCH  13  14
ATOM     14  S   UNL     1       2.817   4.991  18.365  0.00  0.00    +0.000 S 
BRANCH  14  15
ATOM     15  C   UNL     1       4.610   5.000  18.251  0.00  0.00    +0.000 A 
ATOM     16  N   UNL     1       5.245   5.228  19.417  0.00  0.00    +0.000 NA
ATOM     17  C   UNL     1       6.579   5.242  19.363  0.00  0.00    +0.000 A 
ATOM     18  N   UNL     1       7.327   5.058  18.272  0.00  0.00    +0.000 NA
ATOM     19  C   UNL     1       6.683   4.834  17.124  0.00  0.00    +0.000 A 
ATOM     20  C   UNL     1       7.449   4.644  15.982  0.00  0.00    +0.000 A 
ATOM     21  C   UNL     1       6.877   4.406  14.732  0.00  0.00    +0.000 A 
ATOM     22  C   UNL     1       5.495   4.348  14.615  0.00  0.00    +0.000 A 
ATOM     23  C   UNL     1       4.700   4.534  15.750  0.00  0.00    +0.000 A 
ATOM     24  C   UNL     1       5.283   4.785  17.027  0.00  0.00    +0.000 A 
ENDBRANCH  14  15
ENDBRANCH  13  14
ENDBRANCH   1  13
TORSDOF 5
ENDMDL
MODEL 8
REMARK VINA RESULT:      -7.0      2.431      8.707
REMARK  Name = 
REMARK  7 active torsions:
REMARK  status: ('A' for Active; 'I' for Inactive)
REMARK    1  A    between atoms: C_1  and  C_2
REMARK    2  A    between atoms: C_4  and  C_5
REMARK    3  A    between atoms: C_5  and  C_7
REMARK    4  A    between atoms: C_7  and  S_8
REMARK    5  A    between atoms: S_8  and  C_9
REMARK    6  A    between atoms: C_19  and  C_20
REMARK    7  A    between atoms: N_21  and  C_22
REMARK                            x       y       z     vdW  Elec       q    Type
REMARK                         _______ _______ _______ _____ _____    ______ ____
ROOT
ATOM      1  C   UNL     1       2.659   7.877  18.036  0.00  0.00    +0.000 C 
ATOM      2  O   UNL     1       2.590   8.624  17.057  0.00  0.00    +0.000 OA
ENDROOT
BRANCH   1   6
ATOM      3  C   UNL     1       6.506   4.479  17.773  0.00  0.00    +0.000 C 
ATOM      4  C   UNL     1       5.152   5.096  17.818  0.00  0.00    +0.000 A 
ATOM      5  C   UNL     1       4.852   6.445  17.947  0.00  0.00    +0.000 A 
ATOM      6  C   UNL     1       3.436   6.613  17.964  0.00  0.00    +0.000 A 
ATOM      7  C   UNL     1       2.904   5.324  17.885  0.00  0.00    +0.000 A 
ATOM      8  C   UNL     1       1.476   4.874  17.867  0.00  0.00    +0.000 C 
ATOM      9  N   UNL     1       3.952   4.420  17.764  0.00  0.00    +0.000 N 
BRANCH   9  10
ATOM     10  C   UNL     1       3.709   2.992  17.560  0.00  0.00    +0.000 C 
ATOM     11  C   UNL     1       3.862   2.003  18.702  0.00  0.00    +0.000 C 
ATOM     12  C   UNL     1       2.540   2.156  18.029  0.00  0.00    +0.000 C 
ENDBRANCH   9  10
ENDBRANCH   1   6
BRANCH   1  13
ATOM     13  C   UNL     1       1.956   8.221  19.351  0.00  0.00    +0.000 C 
BRANCH  13  14
ATOM     14  S   UNL     1       0.909   9.733  19.195  0.00  0.00    +0.000 S 
BRANCH  14  15
ATOM     15  C   UNL     1       0.371   9.975  20.892  0.00  0.00    +0.000 A 
ATOM     16  N   UNL     1       0.998   9.197  21.795  0.00  0.00    +0.000 NA
ATOM     17  C   UNL     1       0.618   9.353  23.065  0.00  0.00    +0.000 A 
ATOM     18  N   UNL     1      -0.317  10.195  23.512  0.00  0.00    +0.000 NA
ATOM     19  C   UNL     1      -0.930  10.959  22.604  0.00  0.00    +0.000 A 
ATOM     20  C   UNL     1      -1.907  11.837  23.056  0.00  0.00    +0.000 A 
ATOM     21  C   UNL     1      -2.609  12.678  22.191  0.00  0.00    +0.000 A 
ATOM     22  C   UNL     1      -2.326  12.649  20.833  0.00  0.00    +0.000 A 
ATOM     23  C   UNL     1      -1.347  11.775  20.353  0.00  0.00    +0.000 A 
ATOM     24  C   UNL     1      -0.633  10.910  21.233  0.00  0.00    +0.000 A 
ENDBRANCH  14  15
ENDBRANCH  13  14
ENDBRANCH   1  13
TORSDOF 5
ENDMDL
MODEL 9
REMARK VINA RESULT:      -7.0      2.762      8.534
REMARK  Name = 
REMARK  7 active torsions:
REMARK  status: ('A' for Active; 'I' for Inactive)
REMARK    1  A    between atoms: C_1  and  C_2
REMARK    2  A    between atoms: C_4  and  C_5
REMARK    3  A    between atoms: C_5  and  C_7
REMARK    4  A    between atoms: C_7  and  S_8
REMARK    5  A    between atoms: S_8  and  C_9
REMARK    6  A    between atoms: C_19  and  C_20
REMARK    7  A    between atoms: N_21  and  C_22
REMARK                            x       y       z     vdW  Elec       q    Type
REMARK                         _______ _______ _______ _____ _____    ______ ____
ROOT
ATOM      1  C   UNL     1       1.962   7.963  19.697  0.00  0.00    +0.000 C 
ATOM      2  O   UNL     1       1.490   7.956  20.837  0.00  0.00    +0.000 OA
ENDROOT
BRANCH   1   6
ATOM      3  C   UNL     1       4.678   4.724  16.773  0.00  0.00    +0.000 C 
ATOM      4  C   UNL     1       3.771   5.286  17.810  0.00  0.00    +0.000 A 
ATOM      5  C   UNL     1       3.483   6.625  18.035  0.00  0.00    +0.000 A 
ATOM      6  C   UNL     1       2.580   6.736  19.133  0.00  0.00    +0.000 A 
ATOM      7  C   UNL     1       2.374   5.429  19.583  0.00  0.00    +0.000 A 
ATOM      8  C   UNL     1       1.528   4.925  20.710  0.00  0.00    +0.000 C 
ATOM      9  N   UNL     1       3.074   4.562  18.754  0.00  0.00    +0.000 N 
BRANCH   9  10
ATOM     10  C   UNL     1       2.974   3.110  18.911  0.00  0.00    +0.000 C 
ATOM     11  C   UNL     1       1.909   2.316  18.174  0.00  0.00    +0.000 C 
ATOM     12  C   UNL     1       3.351   2.025  17.928  0.00  0.00    +0.000 C 
ENDBRANCH   9  10
ENDBRANCH   1   6
BRANCH   1  13
ATOM     13  C   UNL     1       1.926   9.221  18.828  0.00  0.00    +0.000 C 
BRANCH  13  14
ATOM     14  S   UNL     1       0.550   9.170  17.599  0.00  0.00    +0.000 S 
BRANCH  14  15
ATOM     15  C   UNL     1      -0.641  10.288  18.347  0.00  0.00    +0.000 A 
ATOM     16  N   UNL     1      -0.235  10.850  19.500  0.00  0.00    +0.000 NA
ATOM     17  C   UNL     1      -1.101  11.685  20.081  0.00  0.00    +0.000 A 
ATOM     18  N   UNL     1      -2.316  12.002  19.628  0.00  0.00    +0.000 NA
ATOM     19  C   UNL     1      -2.705  11.435  18.483  0.00  0.00    +0.000 A 
ATOM     20  C   UNL     1      -3.969  11.754  18.003  0.00  0.00    +0.000 A 
ATOM     21  C   UNL     1      -4.473  11.216  16.819  0.00  0.00    +0.000 A 
ATOM     22  C   UNL     1      -3.692  10.335  16.084  0.00  0.00    +0.000 A 
ATOM     23  C   UNL     1      -2.416   9.998  16.544  0.00  0.00    +0.000 A 
ATOM     24  C   UNL     1      -1.901  10.542  17.758  0.00  0.00    +0.000 A 
ENDBRANCH  14  15
ENDBRANCH  13  14
ENDBRANCH   1  13
TORSDOF 5
ENDMDL
