MODEL 1
REMARK VINA RESULT:      -7.5      0.000      0.000
REMARK  Name = 
REMARK  8 active torsions:
REMARK  status: ('A' for Active; 'I' for Inactive)
REMARK    1  A    between atoms: C_2  and  C_3
REMARK    2  A    between atoms: C_3  and  N_4
REMARK    3  A    between atoms: C_5  and  C_7
REMARK    4  A    between atoms: C_7  and  C_8
REMARK    5  A    between atoms: C_7  and  N_15
REMARK    6  A    between atoms: C_8  and  C_9
REMARK    7  A    between atoms: N_15  and  S_16
REMARK    8  A    between atoms: S_16  and  C_19
REMARK                            x       y       z     vdW  Elec       q    Type
REMARK                         _______ _______ _______ _____ _____    ______ ____
ROOT
ATOM      1  C   UNL     1       4.489   4.648  16.927  0.00  0.00    +0.000 C 
ENDROOT
BRANCH   1   3
ATOM      2  N   UNL     1       5.552   3.878  14.858  0.00  0.00    +0.000 N 
ATOM      3  C   UNL     1       5.165   4.990  15.590  0.00  0.00    +0.000 C 
ATOM      4  O   UNL     1       5.341   6.133  15.179  0.00  0.00    +0.000 OA
ATOM      5  H   UNL     1       5.729   3.017  15.362  0.00  0.00    +0.000 HD
BRANCH   2   6
ATOM      6  C   UNL     1       6.194   4.016  13.576  0.00  0.00    +0.000 C 
ATOM      7  C   UNL     1       5.326   3.998  12.326  0.00  0.00    +0.000 C 
ATOM      8  C   UNL     1       6.233   2.843  12.617  0.00  0.00    +0.000 C 
BRANCH   6  10
ATOM      9  N   UNL     1       8.234   5.647  13.546  0.00  0.00    +0.000 NA
ATOM     10  C   UNL     1       7.311   4.940  13.564  0.00  0.00    +0.000 C 
ENDBRANCH   6  10
ENDBRANCH   2   6
ENDBRANCH   1   3
BRANCH   1  11
ATOM     11  N   UNL     1       4.806   3.303  17.457  0.00  0.00    +0.000 NA
ATOM     12  H   UNL     1       5.571   3.259  18.127  0.00  0.00    +0.000 HD
BRANCH  11  13
ATOM     13  S   UNL     1       3.584   2.193  17.774  0.00  0.00    +0.000 S 
ATOM     14  O   UNL     1       2.641   2.150  16.685  0.00  0.00    +0.000 OA
ATOM     15  O   UNL     1       4.246   0.989  18.231  0.00  0.00    +0.000 OA
BRANCH  13  16
ATOM     16  C   UNL     1       2.759   2.868  19.204  0.00  0.00    +0.000 A 
ATOM     17  C   UNL     1       3.205   2.416  20.460  0.00  0.00    +0.000 A 
ATOM     18  C   UNL     1       2.478   2.701  21.616  0.00  0.00    +0.000 A 
ATOM     19  C   UNL     1       1.301   3.434  21.530  0.00  0.00    +0.000 A 
ATOM     20  C   UNL     1       0.872   3.917  20.293  0.00  0.00    +0.000 A 
ATOM     21  C   UNL     1       1.600   3.644  19.124  0.00  0.00    +0.000 A 
ATOM     22 CL   UNL     1       0.992   4.370  17.684  0.00  0.00    +0.000 Cl
ENDBRANCH  13  16
ENDBRANCH  11  13
ENDBRANCH   1  11
BRANCH   1  23
ATOM     23  C   UNL     1       4.798   5.754  17.973  0.00  0.00    +0.000 C 
BRANCH  23  24
ATOM     24  C   UNL     1       3.694   6.717  18.355  0.00  0.00    +0.000 A 
ATOM     25  C   UNL     1       3.278   7.724  17.469  0.00  0.00    +0.000 A 
ATOM     26  C   UNL     1       2.273   8.625  17.828  0.00  0.00    +0.000 A 
ATOM     27  C   UNL     1       1.655   8.523  19.071  0.00  0.00    +0.000 A 
ATOM     28  C   UNL     1       2.038   7.513  19.951  0.00  0.00    +0.000 A 
ATOM     29  C   UNL     1       3.050   6.615  19.597  0.00  0.00    +0.000 A 
ENDBRANCH  23  24
ENDBRANCH   1  23
TORSDOF 8
ENDMDL
MODEL 2
REMARK VINA RESULT:      -7.4      1.082      1.688
REMARK  Name = 
REMARK  8 active torsions:
REMARK  status: ('A' for Active; 'I' for Inactive)
REMARK    1  A    between atoms: C_2  and  C_3
REMARK    2  A    between atoms: C_3  and  N_4
REMARK    3  A    between atoms: C_5  and  C_7
REMARK    4  A    between atoms: C_7  and  C_8
REMARK    5  A    between atoms: C_7  and  N_15
REMARK    6  A    between atoms: C_8  and  C_9
REMARK    7  A    between atoms: N_15  and  S_16
REMARK    8  A    between atoms: S_16  and  C_19
REMARK                            x       y       z     vdW  Elec       q    Type
REMARK                         _______ _______ _______ _____ _____    ______ ____
ROOT
ATOM      1  C   UNL     1       4.370   4.798  16.900  0.00  0.00    +0.000 C 
ENDROOT
BRANCH   1   3
ATOM      2  N   UNL     1       5.492   3.950  14.895  0.00  0.00    +0.000 N 
ATOM      3  C   UNL     1       5.110   5.089  15.585  0.00  0.00    +0.000 C 
ATOM      4  O   UNL     1       5.336   6.217  15.156  0.00  0.00    +0.000 OA
ATOM      5  H   UNL     1       5.622   3.095  15.424  0.00  0.00    +0.000 HD
BRANCH   2   6
ATOM      6  C   UNL     1       6.189   4.038  13.636  0.00  0.00    +0.000 C 
ATOM      7  C   UNL     1       5.370   4.055  12.355  0.00  0.00    +0.000 C 
ATOM      8  C   UNL     1       6.200   2.855  12.690  0.00  0.00    +0.000 C 
BRANCH   6  10
ATOM      9  N   UNL     1       8.265   5.624  13.665  0.00  0.00    +0.000 NA
ATOM     10  C   UNL     1       7.355   4.900  13.661  0.00  0.00    +0.000 C 
ENDBRANCH   6  10
ENDBRANCH   2   6
ENDBRANCH   1   3
BRANCH   1  11
ATOM     11  N   UNL     1       4.600   3.446  17.456  0.00  0.00    +0.000 NA
ATOM     12  H   UNL     1       5.247   3.393  18.240  0.00  0.00    +0.000 HD
BRANCH  11  13
ATOM     13  S   UNL     1       3.345   2.332  17.558  0.00  0.00    +0.000 S 
ATOM     14  O   UNL     1       2.359   2.583  16.537  0.00  0.00    +0.000 OA
ATOM     15  O   UNL     1       3.972   1.034  17.682  0.00  0.00    +0.000 OA
BRANCH  13  16
ATOM     16  C   UNL     1       2.606   2.671  19.146  0.00  0.00    +0.000 A 
ATOM     17  C   UNL     1       1.308   3.214  19.134  0.00  0.00    +0.000 A 
ATOM     18  C   UNL     1       0.742   3.726  20.300  0.00  0.00    +0.000 A 
ATOM     19  C   UNL     1       1.464   3.704  21.488  0.00  0.00    +0.000 A 
ATOM     20  C   UNL     1       2.737   3.134  21.516  0.00  0.00    +0.000 A 
ATOM     21  C   UNL     1       3.313   2.607  20.349  0.00  0.00    +0.000 A 
ATOM     22 CL   UNL     1       4.857   1.866  20.552  0.00  0.00    +0.000 Cl
ENDBRANCH  13  16
ENDBRANCH  11  13
ENDBRANCH   1  11
BRANCH   1  23
ATOM     23  C   UNL     1       4.697   5.901  17.944  0.00  0.00    +0.000 C 
BRANCH  23  24
ATOM     24  C   UNL     1       3.575   6.798  18.425  0.00  0.00    +0.000 A 
ATOM     25  C   UNL     1       2.950   6.569  19.661  0.00  0.00    +0.000 A 
ATOM     26  C   UNL     1       1.902   7.383  20.097  0.00  0.00    +0.000 A 
ATOM     27  C   UNL     1       1.475   8.450  19.312  0.00  0.00    +0.000 A 
ATOM     28  C   UNL     1       2.103   8.707  18.096  0.00  0.00    +0.000 A 
ATOM     29  C   UNL     1       3.146   7.888  17.654  0.00  0.00    +0.000 A 
ENDBRANCH  23  24
ENDBRANCH   1  23
TORSDOF 8
ENDMDL
MODEL 3
REMARK VINA RESULT:      -7.4      3.365      6.417
REMARK  Name = 
REMARK  8 active torsions:
REMARK  status: ('A' for Active; 'I' for Inactive)
REMARK    1  A    between atoms: C_2  and  C_3
REMARK    2  A    between atoms: C_3  and  N_4
REMARK    3  A    between atoms: C_5  and  C_7
REMARK    4  A    between atoms: C_7  and  C_8
REMARK    5  A    between atoms: C_7  and  N_15
REMARK    6  A    between atoms: C_8  and  C_9
REMARK    7  A    between atoms: N_15  and  S_16
REMARK    8  A    between atoms: S_16  and  C_19
REMARK                            x       y       z     vdW  Elec       q    Type
REMARK                         _______ _______ _______ _____ _____    ______ ____
ROOT
ATOM      1  C   UNL     1       3.041   7.362  18.218  0.00  0.00    +0.000 C 
ENDROOT
BRANCH   1   3
ATOM      2  N   UNL     1       1.513   9.016  19.184  0.00  0.00    +0.000 N 
ATOM      3  C   UNL     1       2.165   8.611  18.030  0.00  0.00    +0.000 C 
ATOM      4  O   UNL     1       2.052   9.220  16.971  0.00  0.00    +0.000 OA
ATOM      5  H   UNL     1       1.335   8.318  19.898  0.00  0.00    +0.000 HD
BRANCH   2   6
ATOM      6  C   UNL     1       0.657  10.175  19.190  0.00  0.00    +0.000 C 
ATOM      7  C   UNL     1      -0.604  10.139  20.039  0.00  0.00    +0.000 C 
ATOM      8  C   UNL     1      -0.713  10.109  18.546  0.00  0.00    +0.000 C 
BRANCH   6  10
ATOM      9  N   UNL     1       1.922  12.458  19.076  0.00  0.00    +0.000 NA
ATOM     10  C   UNL     1       1.366  11.440  19.151  0.00  0.00    +0.000 C 
ENDBRANCH   6  10
ENDBRANCH   2   6
ENDBRANCH   1   3
BRANCH   1  11
ATOM     11  N   UNL     1       4.484   7.572  17.967  0.00  0.00    +0.000 NA
ATOM     12  H   UNL     1       5.050   7.781  18.787  0.00  0.00    +0.000 HD
BRANCH  11  13
ATOM     13  S   UNL     1       5.300   6.660  16.815  0.00  0.00    +0.000 S 
ATOM     14  O   UNL     1       4.657   6.774  15.530  0.00  0.00    +0.000 OA
ATOM     15  O   UNL     1       6.703   6.977  16.974  0.00  0.00    +0.000 OA
BRANCH  13  16
ATOM     16  C   UNL     1       5.110   4.983  17.390  0.00  0.00    +0.000 A 
ATOM     17  C   UNL     1       4.327   4.128  16.592  0.00  0.00    +0.000 A 
ATOM     18  C   UNL     1       3.929   2.879  17.068  0.00  0.00    +0.000 A 
ATOM     19  C   UNL     1       4.305   2.472  18.343  0.00  0.00    +0.000 A 
ATOM     20  C   UNL     1       5.112   3.299  19.126  0.00  0.00    +0.000 A 
ATOM     21  C   UNL     1       5.526   4.554  18.653  0.00  0.00    +0.000 A 
ATOM     22 CL   UNL     1       6.582   5.430  19.697  0.00  0.00    +0.000 Cl
ENDBRANCH  13  16
ENDBRANCH  11  13
ENDBRANCH   1  11
BRANCH   1  23
ATOM     23  C   UNL     1       2.795   6.752  19.625  0.00  0.00    +0.000 C 
BRANCH  23  24
ATOM     24  C   UNL     1       2.142   5.388  19.718  0.00  0.00    +0.000 A 
ATOM     25  C   UNL     1       2.175   4.655  20.915  0.00  0.00    +0.000 A 
ATOM     26  C   UNL     1       1.591   3.389  20.998  0.00  0.00    +0.000 A 
ATOM     27  C   UNL     1       0.948   2.844  19.890  0.00  0.00    +0.000 A 
ATOM     28  C   UNL     1       0.883   3.570  18.703  0.00  0.00    +0.000 A 
ATOM     29  C   UNL     1       1.475   4.834  18.616  0.00  0.00    +0.000 A 
ENDBRANCH  23  24
ENDBRANCH   1  23
TORSDOF 8
ENDMDL
MODEL 4
REMARK VINA RESULT:      -7.3      2.415      3.471
REMARK  Name = 
REMARK  8 active torsions:
REMARK  status: ('A' for Active; 'I' for Inactive)
REMARK    1  A    between atoms: C_2  and  C_3
REMARK    2  A    between atoms: C_3  and  N_4
REMARK    3  A    between atoms: C_5  and  C_7
REMARK    4  A    between atoms: C_7  and  C_8
REMARK    5  A    between atoms: C_7  and  N_15
REMARK    6  A    between atoms: C_8  and  C_9
REMARK    7  A    between atoms: N_15  and  S_16
REMARK    8  A    between atoms: S_16  and  C_19
REMARK                            x       y       z     vdW  Elec       q    Type
REMARK                         _______ _______ _______ _____ _____    ______ ____
ROOT
ATOM      1  C   UNL     1       3.192   6.959  17.262  0.00  0.00    +0.000 C 
ENDROOT
BRANCH   1   3
ATOM      2  N   UNL     1       5.435   6.261  17.959  0.00  0.00    +0.000 N 
ATOM      3  C   UNL     1       4.680   6.781  16.920  0.00  0.00    +0.000 C 
ATOM      4  O   UNL     1       5.173   7.051  15.829  0.00  0.00    +0.000 OA
ATOM      5  H   UNL     1       5.098   6.400  18.906  0.00  0.00    +0.000 HD
BRANCH   2   6
ATOM      6  C   UNL     1       6.847   6.022  17.808  0.00  0.00    +0.000 C 
ATOM      7  C   UNL     1       7.719   6.019  19.055  0.00  0.00    +0.000 C 
ATOM      8  C   UNL     1       7.839   7.139  18.068  0.00  0.00    +0.000 C 
BRANCH   6  10
ATOM      9  N   UNL     1       7.483   4.279  15.968  0.00  0.00    +0.000 NA
ATOM     10  C   UNL     1       7.180   5.041  16.793  0.00  0.00    +0.000 C 
ENDBRANCH   6  10
ENDBRANCH   2   6
ENDBRANCH   1   3
BRANCH   1  11
ATOM     11  N   UNL     1       2.653   5.970  18.222  0.00  0.00    +0.000 NA
ATOM     12  H   UNL     1       2.010   6.336  18.921  0.00  0.00    +0.000 HD
BRANCH  11  13
ATOM     13  S   UNL     1       2.277   4.408  17.729  0.00  0.00    +0.000 S 
ATOM     14  O   UNL     1       0.968   4.367  17.128  0.00  0.00    +0.000 OA
ATOM     15  O   UNL     1       3.438   3.924  17.014  0.00  0.00    +0.000 OA
BRANCH  13  16
ATOM     16  C   UNL     1       2.223   3.484  19.253  0.00  0.00    +0.000 A 
ATOM     17  C   UNL     1       0.952   3.285  19.825  0.00  0.00    +0.000 A 
ATOM     18  C   UNL     1       0.826   2.785  21.120  0.00  0.00    +0.000 A 
ATOM     19  C   UNL     1       1.964   2.482  21.858  0.00  0.00    +0.000 A 
ATOM     20  C   UNL     1       3.226   2.642  21.286  0.00  0.00    +0.000 A 
ATOM     21  C   UNL     1       3.365   3.136  19.979  0.00  0.00    +0.000 A 
ATOM     22 CL   UNL     1       4.979   3.206  19.378  0.00  0.00    +0.000 Cl
ENDBRANCH  13  16
ENDBRANCH  11  13
ENDBRANCH   1  11
BRANCH   1  23
ATOM     23  C   UNL     1       2.931   8.413  17.742  0.00  0.00    +0.000 C 
BRANCH  23  24
ATOM     24  C   UNL     1       1.929   8.639  18.856  0.00  0.00    +0.000 A 
ATOM     25  C   UNL     1       2.008   7.910  20.053  0.00  0.00    +0.000 A 
ATOM     26  C   UNL     1       1.074   8.103  21.073  0.00  0.00    +0.000 A 
ATOM     27  C   UNL     1       0.056   9.040  20.920  0.00  0.00    +0.000 A 
ATOM     28  C   UNL     1      -0.019   9.791  19.748  0.00  0.00    +0.000 A 
ATOM     29  C   UNL     1       0.911   9.593  18.723  0.00  0.00    +0.000 A 
ENDBRANCH  23  24
ENDBRANCH   1  23
TORSDOF 8
ENDMDL
MODEL 5
REMARK VINA RESULT:      -7.2      3.956      6.362
REMARK  Name = 
REMARK  8 active torsions:
REMARK  status: ('A' for Active; 'I' for Inactive)
REMARK    1  A    between atoms: C_2  and  C_3
REMARK    2  A    between atoms: C_3  and  N_4
REMARK    3  A    between atoms: C_5  and  C_7
REMARK    4  A    between atoms: C_7  and  C_8
REMARK    5  A    between atoms: C_7  and  N_15
REMARK    6  A    between atoms: C_8  and  C_9
REMARK    7  A    between atoms: N_15  and  S_16
REMARK    8  A    between atoms: S_16  and  C_19
REMARK                            x       y       z     vdW  Elec       q    Type
REMARK                         _______ _______ _______ _____ _____    ______ ____
ROOT
ATOM      1  C   UNL     1       2.776   6.536  18.075  0.00  0.00    +0.000 C 
ENDROOT
BRANCH   1   3
ATOM      2  N   UNL     1       2.564   4.160  18.630  0.00  0.00    +0.000 N 
ATOM      3  C   UNL     1       2.626   5.444  19.146  0.00  0.00    +0.000 C 
ATOM      4  O   UNL     1       2.582   5.664  20.352  0.00  0.00    +0.000 OA
ATOM      5  H   UNL     1       2.239   4.046  17.676  0.00  0.00    +0.000 HD
BRANCH   2   6
ATOM      6  C   UNL     1       2.432   3.014  19.494  0.00  0.00    +0.000 C 
ATOM      7  C   UNL     1       1.353   1.990  19.179  0.00  0.00    +0.000 C 
ATOM      8  C   UNL     1       1.212   2.870  20.382  0.00  0.00    +0.000 C 
BRANCH   6  10
ATOM      9  N   UNL     1       4.709   2.044  20.330  0.00  0.00    +0.000 NA
ATOM     10  C   UNL     1       3.692   2.486  19.981  0.00  0.00    +0.000 C 
ENDBRANCH   6  10
ENDBRANCH   2   6
ENDBRANCH   1   3
BRANCH   1  11
ATOM     11  N   UNL     1       2.884   7.914  18.603  0.00  0.00    +0.000 NA
ATOM     12  H   UNL     1       3.829   8.280  18.697  0.00  0.00    +0.000 HD
BRANCH  11  13
ATOM     13  S   UNL     1       1.758   9.089  18.181  0.00  0.00    +0.000 S 
ATOM     14  O   UNL     1       2.413  10.240  17.614  0.00  0.00    +0.000 OA
ATOM     15  O   UNL     1       0.712   8.398  17.457  0.00  0.00    +0.000 OA
BRANCH  13  16
ATOM     16  C   UNL     1       1.038   9.566  19.741  0.00  0.00    +0.000 A 
ATOM     17  C   UNL     1       1.360   8.767  20.854  0.00  0.00    +0.000 A 
ATOM     18  C   UNL     1       0.672   8.915  22.058  0.00  0.00    +0.000 A 
ATOM     19  C   UNL     1      -0.346   9.856  22.162  0.00  0.00    +0.000 A 
ATOM     20  C   UNL     1      -0.646  10.677  21.074  0.00  0.00    +0.000 A 
ATOM     21  C   UNL     1       0.047  10.543  19.861  0.00  0.00    +0.000 A 
ATOM     22 CL   UNL     1      -0.379  11.676  18.633  0.00  0.00    +0.000 Cl
ENDBRANCH  13  16
ENDBRANCH  11  13
ENDBRANCH   1  11
BRANCH   1  23
ATOM     23  C   UNL     1       3.967   6.196  17.137  0.00  0.00    +0.000 C 
BRANCH  23  24
ATOM     24  C   UNL     1       5.375   6.312  17.684  0.00  0.00    +0.000 A 
ATOM     25  C   UNL     1       6.268   7.267  17.174  0.00  0.00    +0.000 A 
ATOM     26  C   UNL     1       7.573   7.363  17.663  0.00  0.00    +0.000 A 
ATOM     27  C   UNL     1       8.000   6.518  18.683  0.00  0.00    +0.000 A 
ATOM     28  C   UNL     1       7.117   5.583  19.219  0.00  0.00    +0.000 A 
ATOM     29  C   UNL     1       5.813   5.480  18.725  0.00  0.00    +0.000 A 
ENDBRANCH  23  24
ENDBRANCH   1  23
TORSDOF 8
ENDMDL
MODEL 6
REMARK VINA RESULT:      -7.2      3.339      6.432
REMARK  Name = 
REMARK  8 active torsions:
REMARK  status: ('A' for Active; 'I' for Inactive)
REMARK    1  A    between atoms: C_2  and  C_3
REMARK    2  A    between atoms: C_3  and  N_4
REMARK    3  A    between atoms: C_5  and  C_7
REMARK    4  A    between atoms: C_7  and  C_8
REMARK    5  A    between atoms: C_7  and  N_15
REMARK    6  A    between atoms: C_8  and  C_9
REMARK    7  A    between atoms: N_15  and  S_16
REMARK    8  A    between atoms: S_16  and  C_19
REMARK                            x       y       z     vdW  Elec       q    Type
REMARK                         _______ _______ _______ _____ _____    ______ ____
ROOT
ATOM      1  C   UNL     1       3.041   7.365  18.227  0.00  0.00    +0.000 C 
ENDROOT
BRANCH   1   3
ATOM      2  N   UNL     1       1.362   8.876  19.175  0.00  0.00    +0.000 N 
ATOM      3  C   UNL     1       2.167   8.620  18.076  0.00  0.00    +0.000 C 
ATOM      4  O   UNL     1       2.176   9.352  17.091  0.00  0.00    +0.000 OA
ATOM      5  H   UNL     1       1.111   8.095  19.771  0.00  0.00    +0.000 HD
BRANCH   2   6
ATOM      6  C   UNL     1       0.484  10.018  19.206  0.00  0.00    +0.000 C 
ATOM      7  C   UNL     1       1.075  11.377  19.548  0.00  0.00    +0.000 C 
ATOM      8  C   UNL     1       0.167  10.695  20.524  0.00  0.00    +0.000 C 
BRANCH   6  10
ATOM      9  N   UNL     1      -1.400  10.002  17.396  0.00  0.00    +0.000 NA
ATOM     10  C   UNL     1      -0.544  10.007  18.183  0.00  0.00    +0.000 C 
ENDBRANCH   6  10
ENDBRANCH   2   6
ENDBRANCH   1   3
BRANCH   1  11
ATOM     11  N   UNL     1       4.478   7.571  17.939  0.00  0.00    +0.000 NA
ATOM     12  H   UNL     1       5.063   7.796  18.742  0.00  0.00    +0.000 HD
BRANCH  11  13
ATOM     13  S   UNL     1       5.268   6.639  16.785  0.00  0.00    +0.000 S 
ATOM     14  O   UNL     1       4.597   6.730  15.513  0.00  0.00    +0.000 OA
ATOM     15  O   UNL     1       6.674   6.960  16.906  0.00  0.00    +0.000 OA
BRANCH  13  16
ATOM     16  C   UNL     1       5.094   4.972  17.394  0.00  0.00    +0.000 A 
ATOM     17  C   UNL     1       4.289   4.105  16.633  0.00  0.00    +0.000 A 
ATOM     18  C   UNL     1       3.903   2.865  17.141  0.00  0.00    +0.000 A 
ATOM     19  C   UNL     1       4.313   2.480  18.412  0.00  0.00    +0.000 A 
ATOM     20  C   UNL     1       5.141   3.319  19.158  0.00  0.00    +0.000 A 
ATOM     21  C   UNL     1       5.543   4.566  18.653  0.00  0.00    +0.000 A 
ATOM     22 CL   UNL     1       6.627   5.458  19.653  0.00  0.00    +0.000 Cl
ENDBRANCH  13  16
ENDBRANCH  11  13
ENDBRANCH   1  11
BRANCH   1  23
ATOM     23  C   UNL     1       2.830   6.740  19.633  0.00  0.00    +0.000 C 
BRANCH  23  24
ATOM     24  C   UNL     1       2.157   5.387  19.730  0.00  0.00    +0.000 A 
ATOM     25  C   UNL     1       1.505   4.826  18.621  0.00  0.00    +0.000 A 
ATOM     26  C   UNL     1       0.867   3.587  18.714  0.00  0.00    +0.000 A 
ATOM     27  C   UNL     1       0.887   2.881  19.912  0.00  0.00    +0.000 A 
ATOM     28  C   UNL     1       1.553   3.411  21.015  0.00  0.00    +0.000 A 
ATOM     29  C   UNL     1       2.185   4.655  20.926  0.00  0.00    +0.000 A 
ENDBRANCH  23  24
ENDBRANCH   1  23
TORSDOF 8
ENDMDL
MODEL 7
REMARK VINA RESULT:      -7.1      0.747      1.189
REMARK  Name = 
REMARK  8 active torsions:
REMARK  status: ('A' for Active; 'I' for Inactive)
REMARK    1  A    between atoms: C_2  and  C_3
REMARK    2  A    between atoms: C_3  and  N_4
REMARK    3  A    between atoms: C_5  and  C_7
REMARK    4  A    between atoms: C_7  and  C_8
REMARK    5  A    between atoms: C_7  and  N_15
REMARK    6  A    between atoms: C_8  and  C_9
REMARK    7  A    between atoms: N_15  and  S_16
REMARK    8  A    between atoms: S_16  and  C_19
REMARK                            x       y       z     vdW  Elec       q    Type
REMARK                         _______ _______ _______ _____ _____    ______ ____
ROOT
ATOM      1  C   UNL     1       5.026   4.326  16.779  0.00  0.00    +0.000 C 
ENDROOT
BRANCH   1   3
ATOM      2  N   UNL     1       5.431   4.218  14.366  0.00  0.00    +0.000 N 
ATOM      3  C   UNL     1       6.014   4.125  15.619  0.00  0.00    +0.000 C 
ATOM      4  O   UNL     1       7.214   3.917  15.766  0.00  0.00    +0.000 OA
ATOM      5  H   UNL     1       4.440   4.021  14.287  0.00  0.00    +0.000 HD
BRANCH   2   6
ATOM      6  C   UNL     1       6.214   4.064  13.166  0.00  0.00    +0.000 C 
ATOM      7  C   UNL     1       5.491   3.756  11.864  0.00  0.00    +0.000 C 
ATOM      8  C   UNL     1       6.337   2.703  12.510  0.00  0.00    +0.000 C 
BRANCH   6  10
ATOM      9  N   UNL     1       8.249   5.698  13.040  0.00  0.00    +0.000 NA
ATOM     10  C   UNL     1       7.344   4.968  13.071  0.00  0.00    +0.000 C 
ENDBRANCH   6  10
ENDBRANCH   2   6
ENDBRANCH   1   3
BRANCH   1  11
ATOM     11  N   UNL     1       4.969   3.209  17.748  0.00  0.00    +0.000 NA
ATOM     12  H   UNL     1       5.403   3.384  18.652  0.00  0.00    +0.000 HD
BRANCH  11  13
ATOM     13  S   UNL     1       3.612   2.222  17.845  0.00  0.00    +0.000 S 
ATOM     14  O   UNL     1       2.769   2.402  16.690  0.00  0.00    +0.000 OA
ATOM     15  O   UNL     1       4.098   0.909  18.212  0.00  0.00    +0.000 OA
BRANCH  13  16
ATOM     16  C   UNL     1       2.742   2.837  19.276  0.00  0.00    +0.000 A 
ATOM     17  C   UNL     1       3.199   2.392  20.530  0.00  0.00    +0.000 A 
ATOM     18  C   UNL     1       2.449   2.626  21.682  0.00  0.00    +0.000 A 
ATOM     19  C   UNL     1       1.238   3.301  21.595  0.00  0.00    +0.000 A 
ATOM     20  C   UNL     1       0.796   3.777  20.360  0.00  0.00    +0.000 A 
ATOM     21  C   UNL     1       1.546   3.555  19.195  0.00  0.00    +0.000 A 
ATOM     22 CL   UNL     1       0.915   4.268  17.757  0.00  0.00    +0.000 Cl
ENDBRANCH  13  16
ENDBRANCH  11  13
ENDBRANCH   1  11
BRANCH   1  23
ATOM     23  C   UNL     1       5.315   5.677  17.490  0.00  0.00    +0.000 C 
BRANCH  23  24
ATOM     24  C   UNL     1       4.146   6.477  18.026  0.00  0.00    +0.000 A 
ATOM     25  C   UNL     1       3.605   6.202  19.292  0.00  0.00    +0.000 A 
ATOM     26  C   UNL     1       2.515   6.926  19.780  0.00  0.00    +0.000 A 
ATOM     27  C   UNL     1       1.960   7.949  19.017  0.00  0.00    +0.000 A 
ATOM     28  C   UNL     1       2.502   8.253  17.770  0.00  0.00    +0.000 A 
ATOM     29  C   UNL     1       3.588   7.523  17.277  0.00  0.00    +0.000 A 
ENDBRANCH  23  24
ENDBRANCH   1  23
TORSDOF 8
ENDMDL
MODEL 8
REMARK VINA RESULT:      -7.1      1.747      2.680
REMARK  Name = 
REMARK  8 active torsions:
REMARK  status: ('A' for Active; 'I' for Inactive)
REMARK    1  A    between atoms: C_2  and  C_3
REMARK    2  A    between atoms: C_3  and  N_4
REMARK    3  A    between atoms: C_5  and  C_7
REMARK    4  A    between atoms: C_7  and  C_8
REMARK    5  A    between atoms: C_7  and  N_15
REMARK    6  A    between atoms: C_8  and  C_9
REMARK    7  A    between atoms: N_15  and  S_16
REMARK    8  A    between atoms: S_16  and  C_19
REMARK                            x       y       z     vdW  Elec       q    Type
REMARK                         _______ _______ _______ _____ _____    ______ ____
ROOT
ATOM      1  C   UNL     1       4.750   4.358  16.171  0.00  0.00    +0.000 C 
ENDROOT
BRANCH   1   3
ATOM      2  N   UNL     1       5.384   4.133  13.816  0.00  0.00    +0.000 N 
ATOM      3  C   UNL     1       5.848   4.127  15.121  0.00  0.00    +0.000 C 
ATOM      4  O   UNL     1       7.035   3.967  15.390  0.00  0.00    +0.000 OA
ATOM      5  H   UNL     1       4.410   3.900  13.657  0.00  0.00    +0.000 HD
BRANCH   2   6
ATOM      6  C   UNL     1       6.281   3.940  12.705  0.00  0.00    +0.000 C 
ATOM      7  C   UNL     1       5.699   3.488  11.374  0.00  0.00    +0.000 C 
ATOM      8  C   UNL     1       6.542   2.545  12.174  0.00  0.00    +0.000 C 
BRANCH   6  10
ATOM      9  N   UNL     1       8.204   5.706  12.609  0.00  0.00    +0.000 NA
ATOM     10  C   UNL     1       7.360   4.906  12.635  0.00  0.00    +0.000 C 
ENDBRANCH   6  10
ENDBRANCH   2   6
ENDBRANCH   1   3
BRANCH   1  11
ATOM     11  N   UNL     1       4.734   3.379  17.280  0.00  0.00    +0.000 NA
ATOM     12  H   UNL     1       5.315   3.610  18.084  0.00  0.00    +0.000 HD
BRANCH  11  13
ATOM     13  S   UNL     1       3.321   2.570  17.696  0.00  0.00    +0.000 S 
ATOM     14  O   UNL     1       2.254   2.915  16.791  0.00  0.00    +0.000 OA
ATOM     15  O   UNL     1       3.698   1.189  17.907  0.00  0.00    +0.000 OA
BRANCH  13  16
ATOM     16  C   UNL     1       2.920   3.218  19.308  0.00  0.00    +0.000 A 
ATOM     17  C   UNL     1       3.089   2.344  20.398  0.00  0.00    +0.000 A 
ATOM     18  C   UNL     1       2.587   2.673  21.657  0.00  0.00    +0.000 A 
ATOM     19  C   UNL     1       1.910   3.873  21.840  0.00  0.00    +0.000 A 
ATOM     20  C   UNL     1       1.771   4.762  20.773  0.00  0.00    +0.000 A 
ATOM     21  C   UNL     1       2.280   4.445  19.504  0.00  0.00    +0.000 A 
ATOM     22 CL   UNL     1       2.102   5.670  18.304  0.00  0.00    +0.000 Cl
ENDBRANCH  13  16
ENDBRANCH  11  13
ENDBRANCH   1  11
BRANCH   1  23
ATOM     23  C   UNL     1       4.828   5.815  16.704  0.00  0.00    +0.000 C 
BRANCH  23  24
ATOM     24  C   UNL     1       6.060   6.238  17.476  0.00  0.00    +0.000 A 
ATOM     25  C   UNL     1       6.525   5.480  18.562  0.00  0.00    +0.000 A 
ATOM     26  C   UNL     1       7.649   5.879  19.288  0.00  0.00    +0.000 A 
ATOM     27  C   UNL     1       8.339   7.033  18.927  0.00  0.00    +0.000 A 
ATOM     28  C   UNL     1       7.907   7.782  17.835  0.00  0.00    +0.000 A 
ATOM     29  C   UNL     1       6.775   7.388  17.113  0.00  0.00    +0.000 A 
ENDBRANCH  23  24
ENDBRANCH   1  23
TORSDOF 8
ENDMDL
MODEL 9
REMARK VINA RESULT:      -7.0      3.164      6.575
REMARK  Name = 
REMARK  8 active torsions:
REMARK  status: ('A' for Active; 'I' for Inactive)
REMARK    1  A    between atoms: C_2  and  C_3
REMARK    2  A    between atoms: C_3  and  N_4
REMARK    3  A    between atoms: C_5  and  C_7
REMARK    4  A    between atoms: C_7  and  C_8
REMARK    5  A    between atoms: C_7  and  N_15
REMARK    6  A    between atoms: C_8  and  C_9
REMARK    7  A    between atoms: N_15  and  S_16
REMARK    8  A    between atoms: S_16  and  C_19
REMARK                            x       y       z     vdW  Elec       q    Type
REMARK                         _______ _______ _______ _____ _____    ______ ____
ROOT
ATOM      1  C   UNL     1       3.408   6.323  18.137  0.00  0.00    +0.000 C 
ENDROOT
BRANCH   1   3
ATOM      2  N   UNL     1       1.864   7.991  19.052  0.00  0.00    +0.000 N 
ATOM      3  C   UNL     1       2.951   7.788  18.217  0.00  0.00    +0.000 C 
ATOM      4  O   UNL     1       3.495   8.713  17.620  0.00  0.00    +0.000 OA
ATOM      5  H   UNL     1       1.241   7.209  19.218  0.00  0.00    +0.000 HD
BRANCH   2   6
ATOM      6  C   UNL     1       1.311   9.306  19.250  0.00  0.00    +0.000 C 
ATOM      7  C   UNL     1       0.198   9.772  18.323  0.00  0.00    +0.000 C 
ATOM      8  C   UNL     1       1.555  10.395  18.225  0.00  0.00    +0.000 C 
BRANCH   6  10
ATOM      9  N   UNL     1       1.047  10.013  21.751  0.00  0.00    +0.000 NA
ATOM     10  C   UNL     1       1.189   9.698  20.641  0.00  0.00    +0.000 C 
ENDBRANCH   6  10
ENDBRANCH   2   6
ENDBRANCH   1   3
BRANCH   1  11
ATOM     11  N   UNL     1       4.187   5.850  19.302  0.00  0.00    +0.000 NA
ATOM     12  H   UNL     1       3.645   5.612  20.131  0.00  0.00    +0.000 HD
BRANCH  11  13
ATOM     13  S   UNL     1       5.542   4.878  19.095  0.00  0.00    +0.000 S 
ATOM     14  O   UNL     1       6.689   5.460  19.746  0.00  0.00    +0.000 OA
ATOM     15  O   UNL     1       5.118   3.529  19.404  0.00  0.00    +0.000 OA
BRANCH  13  16
ATOM     16  C   UNL     1       5.821   4.910  17.334  0.00  0.00    +0.000 A 
ATOM     17  C   UNL     1       5.289   3.839  16.593  0.00  0.00    +0.000 A 
ATOM     18  C   UNL     1       5.648   3.651  15.259  0.00  0.00    +0.000 A 
ATOM     19  C   UNL     1       6.543   4.525  14.653  0.00  0.00    +0.000 A 
ATOM     20  C   UNL     1       7.047   5.610  15.371  0.00  0.00    +0.000 A 
ATOM     21  C   UNL     1       6.685   5.814  16.712  0.00  0.00    +0.000 A 
ATOM     22 CL   UNL     1       7.325   7.237  17.445  0.00  0.00    +0.000 Cl
ENDBRANCH  13  16
ENDBRANCH  11  13
ENDBRANCH   1  11
BRANCH   1  23
ATOM     23  C   UNL     1       2.185   5.404  17.864  0.00  0.00    +0.000 C 
BRANCH  23  24
ATOM     24  C   UNL     1       1.874   4.300  18.853  0.00  0.00    +0.000 A 
ATOM     25  C   UNL     1       1.878   2.954  18.454  0.00  0.00    +0.000 A 
ATOM     26  C   UNL     1       1.572   1.936  19.360  0.00  0.00    +0.000 A 
ATOM     27  C   UNL     1       1.276   2.246  20.684  0.00  0.00    +0.000 A 
ATOM     28  C   UNL     1       1.295   3.575  21.103  0.00  0.00    +0.000 A 
ATOM     29  C   UNL     1       1.593   4.596  20.195  0.00  0.00    +0.000 A 
ENDBRANCH  23  24
ENDBRANCH   1  23
TORSDOF 8
ENDMDL
