MODEL 1
REMARK VINA RESULT:      -8.4      0.000      0.000
REMARK  Name = 
REMARK  6 active torsions:
REMARK  status: ('A' for Active; 'I' for Inactive)
REMARK    1  A    between atoms: N_3  and  C_4
REMARK    2  A    between atoms: C_4  and  C_5
REMARK    3  A    between atoms: CA_6  and  C_7
REMARK    4  A    between atoms: C_7  and  OXT_9
REMARK    5  A    between atoms: N_19  and  S_20
REMARK    6  A    between atoms: S_20  and  C_23
REMARK                            x       y       z     vdW  Elec       q    Type
REMARK                         _______ _______ _______ _____ _____    ______ ____
ROOT
ATOM      1  C   UNL     1       2.470   6.619  17.799  0.00  0.00    +0.000 C 
ENDROOT
BRANCH   1   2
ATOM      2  C   UNL     1       2.110   6.889  19.235  0.00  0.00    +0.000 A 
ATOM      3  CA  UNL     1       2.137   6.013  20.328  0.00  0.00    +0.000 A 
ATOM      4  N   UNL     1       1.541   6.665  21.383  0.00  0.00    +0.000 N 
ATOM      5  C   UNL     1       1.220   7.954  21.059  0.00  0.00    +0.000 A 
ATOM      6  C   UNL     1       0.603   8.937  21.848  0.00  0.00    +0.000 A 
ATOM      7  C   UNL     1       0.382  10.192  21.277  0.00  0.00    +0.000 A 
ATOM      8 CL   UNL     1      -0.400  11.412  22.206  0.00  0.00    +0.000 Cl
ATOM      9  C   UNL     1       0.797  10.476  19.985  0.00  0.00    +0.000 A 
ATOM     10  C   UNL     1       1.422   9.479  19.232  0.00  0.00    +0.000 A 
ATOM     11 CL   UNL     1       2.050   9.860  17.688  0.00  0.00    +0.000 Cl
ATOM     12  C   UNL     1       1.618   8.166  19.736  0.00  0.00    +0.000 A 
ATOM     13  H   UNL     1       1.373   6.233  22.284  0.00  0.00    +0.000 HD
BRANCH   3  14
ATOM     14  C   UNL     1       2.557   4.644  20.498  0.00  0.00    +0.000 C 
ATOM     15  O   UNL     1       3.576   4.166  20.028  0.00  0.00    +0.000 OA
BRANCH  14  16
ATOM     16  OXT UNL     1       1.687   3.921  21.240  0.00  0.00    +0.000 OA
ATOM     17  HXT UNL     1       1.217   4.477  21.893  0.00  0.00    +0.000 HD
ENDBRANCH  14  16
ENDBRANCH   3  14
ENDBRANCH   1   2
BRANCH   1  20
ATOM     18  O   UNL     1       4.843   7.094  16.446  0.00  0.00    +0.000 OA
ATOM     19  C   UNL     1       4.708   6.034  17.035  0.00  0.00    +0.000 C 
ATOM     20  N   UNL     1       3.556   5.671  17.672  0.00  0.00    +0.000 N 
ATOM     21  N   UNL     1       5.715   5.097  17.163  0.00  0.00    +0.000 N 
ATOM     22  H   UNL     1       3.555   4.799  18.177  0.00  0.00    +0.000 HD
ATOM     23  H   UNL     1       5.620   4.274  17.745  0.00  0.00    +0.000 HD
BRANCH  21  24
ATOM     24  S   UNL     1       7.204   5.196  16.424  0.00  0.00    +0.000 S 
ATOM     25  O   UNL     1       7.538   6.607  16.448  0.00  0.00    +0.000 OA
ATOM     26  O   UNL     1       8.090   4.225  17.025  0.00  0.00    +0.000 OA
BRANCH  24  27
ATOM     27  C   UNL     1       6.908   4.752  14.731  0.00  0.00    +0.000 A 
ATOM     28  C   UNL     1       7.739   5.248  13.720  0.00  0.00    +0.000 A 
ATOM     29  C   UNL     1       7.527   4.849  12.400  0.00  0.00    +0.000 A 
ATOM     30  C   UNL     1       6.496   3.957  12.094  0.00  0.00    +0.000 A 
ATOM     31  C   UNL     1       5.680   3.452  13.106  0.00  0.00    +0.000 A 
ATOM     32  C   UNL     1       5.891   3.840  14.429  0.00  0.00    +0.000 A 
ENDBRANCH  24  27
ENDBRANCH  21  24
ENDBRANCH   1  20
TORSDOF 6
ENDMDL
MODEL 2
REMARK VINA RESULT:      -8.4      2.792      4.551
REMARK  Name = 
REMARK  6 active torsions:
REMARK  status: ('A' for Active; 'I' for Inactive)
REMARK    1  A    between atoms: N_3  and  C_4
REMARK    2  A    between atoms: C_4  and  C_5
REMARK    3  A    between atoms: CA_6  and  C_7
REMARK    4  A    between atoms: C_7  and  OXT_9
REMARK    5  A    between atoms: N_19  and  S_20
REMARK    6  A    between atoms: S_20  and  C_23
REMARK                            x       y       z     vdW  Elec       q    Type
REMARK                         _______ _______ _______ _____ _____    ______ ____
ROOT
ATOM      1  C   UNL     1       1.295   8.269  21.062  0.00  0.00    +0.000 C 
ENDROOT
BRANCH   1   2
ATOM      2  C   UNL     1       0.799   9.558  20.462  0.00  0.00    +0.000 A 
ATOM      3  CA  UNL     1       0.980  10.051  19.164  0.00  0.00    +0.000 A 
ATOM      4  N   UNL     1       0.509  11.344  19.153  0.00  0.00    +0.000 N 
ATOM      5  C   UNL     1      -0.060  11.680  20.350  0.00  0.00    +0.000 A 
ATOM      6  C   UNL     1      -0.647  12.893  20.741  0.00  0.00    +0.000 A 
ATOM      7  C   UNL     1      -1.162  12.985  22.035  0.00  0.00    +0.000 A 
ATOM      8 CL   UNL     1      -1.862  14.469  22.558  0.00  0.00    +0.000 Cl
ATOM      9  C   UNL     1      -1.136  11.899  22.897  0.00  0.00    +0.000 A 
ATOM     10  C   UNL     1      -0.558  10.701  22.472  0.00  0.00    +0.000 A 
ATOM     11 CL   UNL     1      -0.638   9.323  23.480  0.00  0.00    +0.000 Cl
ATOM     12  C   UNL     1       0.039  10.566  21.189  0.00  0.00    +0.000 A 
ATOM     13  H   UNL     1       0.577  11.957  18.349  0.00  0.00    +0.000 HD
BRANCH   3  14
ATOM     14  C   UNL     1       1.599   9.522  17.974  0.00  0.00    +0.000 C 
ATOM     15  O   UNL     1       1.571   8.349  17.639  0.00  0.00    +0.000 OA
BRANCH  14  16
ATOM     16  OXT UNL     1       2.236  10.472  17.252  0.00  0.00    +0.000 OA
ATOM     17  HXT UNL     1       2.395  10.183  16.332  0.00  0.00    +0.000 HD
ENDBRANCH  14  16
ENDBRANCH   3  14
ENDBRANCH   1   2
BRANCH   1  20
ATOM     18  O   UNL     1       1.492   5.543  20.603  0.00  0.00    +0.000 OA
ATOM     19  C   UNL     1       2.274   6.288  20.038  0.00  0.00    +0.000 C 
ATOM     20  N   UNL     1       2.309   7.637  20.247  0.00  0.00    +0.000 N 
ATOM     21  N   UNL     1       3.186   5.865  19.090  0.00  0.00    +0.000 N 
ATOM     22  H   UNL     1       2.954   8.180  19.695  0.00  0.00    +0.000 HD
ATOM     23  H   UNL     1       3.752   6.510  18.554  0.00  0.00    +0.000 HD
BRANCH  21  24
ATOM     24  S   UNL     1       3.459   4.274  18.680  0.00  0.00    +0.000 S 
ATOM     25  O   UNL     1       3.843   3.630  19.921  0.00  0.00    +0.000 OA
ATOM     26  O   UNL     1       2.329   3.785  17.922  0.00  0.00    +0.000 OA
BRANCH  24  27
ATOM     27  C   UNL     1       4.895   4.307  17.636  0.00  0.00    +0.000 A 
ATOM     28  C   UNL     1       4.768   4.094  16.260  0.00  0.00    +0.000 A 
ATOM     29  C   UNL     1       5.898   4.175  15.446  0.00  0.00    +0.000 A 
ATOM     30  C   UNL     1       7.144   4.471  16.003  0.00  0.00    +0.000 A 
ATOM     31  C   UNL     1       7.266   4.698  17.373  0.00  0.00    +0.000 A 
ATOM     32  C   UNL     1       6.139   4.627  18.192  0.00  0.00    +0.000 A 
ENDBRANCH  24  27
ENDBRANCH  21  24
ENDBRANCH   1  20
TORSDOF 6
ENDMDL
MODEL 3
REMARK VINA RESULT:      -8.2      0.707      1.171
REMARK  Name = 
REMARK  6 active torsions:
REMARK  status: ('A' for Active; 'I' for Inactive)
REMARK    1  A    between atoms: N_3  and  C_4
REMARK    2  A    between atoms: C_4  and  C_5
REMARK    3  A    between atoms: CA_6  and  C_7
REMARK    4  A    between atoms: C_7  and  OXT_9
REMARK    5  A    between atoms: N_19  and  S_20
REMARK    6  A    between atoms: S_20  and  C_23
REMARK                            x       y       z     vdW  Elec       q    Type
REMARK                         _______ _______ _______ _____ _____    ______ ____
ROOT
ATOM      1  C   UNL     1       2.260   5.453  17.854  0.00  0.00    +0.000 C 
ENDROOT
BRANCH   1   2
ATOM      2  C   UNL     1       2.121   5.961  19.264  0.00  0.00    +0.000 A 
ATOM      3  CA  UNL     1       2.247   5.257  20.469  0.00  0.00    +0.000 A 
ATOM      4  N   UNL     1       1.846   6.104  21.476  0.00  0.00    +0.000 N 
ATOM      5  C   UNL     1       1.562   7.353  20.997  0.00  0.00    +0.000 A 
ATOM      6  C   UNL     1       1.122   8.489  21.694  0.00  0.00    +0.000 A 
ATOM      7  C   UNL     1       0.901   9.660  20.966  0.00  0.00    +0.000 A 
ATOM      8 CL   UNL     1       0.332  11.064  21.784  0.00  0.00    +0.000 Cl
ATOM      9  C   UNL     1       1.148   9.715  19.602  0.00  0.00    +0.000 A 
ATOM     10  C   UNL     1       1.600   8.570  18.942  0.00  0.00    +0.000 A 
ATOM     11 CL   UNL     1       2.028   8.666  17.290  0.00  0.00    +0.000 Cl
ATOM     12  C   UNL     1       1.783   7.334  19.617  0.00  0.00    +0.000 A 
ATOM     13  H   UNL     1       1.778   5.825  22.447  0.00  0.00    +0.000 HD
BRANCH   3  14
ATOM     14  C   UNL     1       2.602   3.898  20.797  0.00  0.00    +0.000 C 
ATOM     15  O   UNL     1       3.314   3.182  20.114  0.00  0.00    +0.000 OA
BRANCH  14  16
ATOM     16  OXT UNL     1       2.049   3.482  21.959  0.00  0.00    +0.000 OA
ATOM     17  HXT UNL     1       2.583   3.752  22.732  0.00  0.00    +0.000 HD
ENDBRANCH  14  16
ENDBRANCH   3  14
ENDBRANCH   1   2
BRANCH   1  20
ATOM     18  O   UNL     1       4.533   6.495  16.658  0.00  0.00    +0.000 OA
ATOM     19  C   UNL     1       4.576   5.361  17.104  0.00  0.00    +0.000 C 
ATOM     20  N   UNL     1       3.495   4.728  17.649  0.00  0.00    +0.000 N 
ATOM     21  N   UNL     1       5.728   4.599  17.151  0.00  0.00    +0.000 N 
ATOM     22  H   UNL     1       3.638   3.811  18.040  0.00  0.00    +0.000 HD
ATOM     23  H   UNL     1       5.768   3.704  17.620  0.00  0.00    +0.000 HD
BRANCH  21  24
ATOM     24  S   UNL     1       7.187   5.044  16.484  0.00  0.00    +0.000 S 
ATOM     25  O   UNL     1       7.225   6.489  16.603  0.00  0.00    +0.000 OA
ATOM     26  O   UNL     1       8.234   4.236  17.066  0.00  0.00    +0.000 OA
BRANCH  24  27
ATOM     27  C   UNL     1       7.041   4.661  14.757  0.00  0.00    +0.000 A 
ATOM     28  C   UNL     1       6.104   3.718  14.324  0.00  0.00    +0.000 A 
ATOM     29  C   UNL     1       5.964   3.466  12.959  0.00  0.00    +0.000 A 
ATOM     30  C   UNL     1       6.752   4.155  12.034  0.00  0.00    +0.000 A 
ATOM     31  C   UNL     1       7.675   5.106  12.467  0.00  0.00    +0.000 A 
ATOM     32  C   UNL     1       7.814   5.370  13.830  0.00  0.00    +0.000 A 
ENDBRANCH  24  27
ENDBRANCH  21  24
ENDBRANCH   1  20
TORSDOF 6
ENDMDL
MODEL 4
REMARK VINA RESULT:      -7.9      4.019      8.105
REMARK  Name = 
REMARK  6 active torsions:
REMARK  status: ('A' for Active; 'I' for Inactive)
REMARK    1  A    between atoms: N_3  and  C_4
REMARK    2  A    between atoms: C_4  and  C_5
REMARK    3  A    between atoms: CA_6  and  C_7
REMARK    4  A    between atoms: C_7  and  OXT_9
REMARK    5  A    between atoms: N_19  and  S_20
REMARK    6  A    between atoms: S_20  and  C_23
REMARK                            x       y       z     vdW  Elec       q    Type
REMARK                         _______ _______ _______ _____ _____    ______ ____
ROOT
ATOM      1  C   UNL     1       2.674   6.451  20.366  0.00  0.00    +0.000 C 
ENDROOT
BRANCH   1   2
ATOM      2  C   UNL     1       2.982   5.185  19.612  0.00  0.00    +0.000 A 
ATOM      3  CA  UNL     1       2.702   3.860  19.967  0.00  0.00    +0.000 A 
ATOM      4  N   UNL     1       3.343   3.052  19.057  0.00  0.00    +0.000 N 
ATOM      5  C   UNL     1       3.942   3.787  18.071  0.00  0.00    +0.000 A 
ATOM      6  C   UNL     1       4.691   3.345  16.970  0.00  0.00    +0.000 A 
ATOM      7  C   UNL     1       5.202   4.306  16.096  0.00  0.00    +0.000 A 
ATOM      8 CL   UNL     1       6.151   3.802  14.751  0.00  0.00    +0.000 Cl
ATOM      9  C   UNL     1       4.944   5.656  16.284  0.00  0.00    +0.000 A 
ATOM     10  C   UNL     1       4.182   6.061  17.382  0.00  0.00    +0.000 A 
ATOM     11 CL   UNL     1       3.753   7.708  17.547  0.00  0.00    +0.000 Cl
ATOM     12  C   UNL     1       3.688   5.135  18.339  0.00  0.00    +0.000 A 
ATOM     13  H   UNL     1       3.358   2.041  19.119  0.00  0.00    +0.000 HD
BRANCH   3  14
ATOM     14  C   UNL     1       2.001   3.250  21.071  0.00  0.00    +0.000 C 
ATOM     15  O   UNL     1       2.528   2.865  22.102  0.00  0.00    +0.000 OA
BRANCH  14  16
ATOM     16  OXT UNL     1       0.672   3.135  20.844  0.00  0.00    +0.000 OA
ATOM     17  HXT UNL     1       0.157   3.778  21.370  0.00  0.00    +0.000 HD
ENDBRANCH  14  16
ENDBRANCH   3  14
ENDBRANCH   1   2
BRANCH   1  20
ATOM     18  O   UNL     1       1.479   8.732  21.393  0.00  0.00    +0.000 OA
ATOM     19  C   UNL     1       1.317   8.468  20.214  0.00  0.00    +0.000 C 
ATOM     20  N   UNL     1       1.802   7.335  19.625  0.00  0.00    +0.000 N 
ATOM     21  N   UNL     1       0.664   9.302  19.326  0.00  0.00    +0.000 N 
ATOM     22  H   UNL     1       1.664   7.229  18.632  0.00  0.00    +0.000 HD
ATOM     23  H   UNL     1       0.632   9.118  18.331  0.00  0.00    +0.000 HD
BRANCH  21  24
ATOM     24  S   UNL     1      -0.121  10.708  19.747  0.00  0.00    +0.000 S 
ATOM     25  O   UNL     1      -0.666  10.450  21.066  0.00  0.00    +0.000 OA
ATOM     26  O   UNL     1       0.771  11.825  19.532  0.00  0.00    +0.000 OA
BRANCH  24  27
ATOM     27  C   UNL     1      -1.491  10.826  18.624  0.00  0.00    +0.000 A 
ATOM     28  C   UNL     1      -1.545  10.005  17.494  0.00  0.00    +0.000 A 
ATOM     29  C   UNL     1      -2.653  10.071  16.649  0.00  0.00    +0.000 A 
ATOM     30  C   UNL     1      -3.701  10.949  16.935  0.00  0.00    +0.000 A 
ATOM     31  C   UNL     1      -3.653  11.755  18.072  0.00  0.00    +0.000 A 
ATOM     32  C   UNL     1      -2.552  11.688  18.926  0.00  0.00    +0.000 A 
ENDBRANCH  24  27
ENDBRANCH  21  24
ENDBRANCH   1  20
TORSDOF 6
ENDMDL
MODEL 5
REMARK VINA RESULT:      -7.8      4.499      8.248
REMARK  Name = 
REMARK  6 active torsions:
REMARK  status: ('A' for Active; 'I' for Inactive)
REMARK    1  A    between atoms: N_3  and  C_4
REMARK    2  A    between atoms: C_4  and  C_5
REMARK    3  A    between atoms: CA_6  and  C_7
REMARK    4  A    between atoms: C_7  and  OXT_9
REMARK    5  A    between atoms: N_19  and  S_20
REMARK    6  A    between atoms: S_20  and  C_23
REMARK                            x       y       z     vdW  Elec       q    Type
REMARK                         _______ _______ _______ _____ _____    ______ ____
ROOT
ATOM      1  C   UNL     1       3.212   8.246  17.654  0.00  0.00    +0.000 C 
ENDROOT
BRANCH   1   2
ATOM      2  C   UNL     1       3.474   6.780  17.873  0.00  0.00    +0.000 A 
ATOM      3  CA  UNL     1       4.263   5.905  17.117  0.00  0.00    +0.000 A 
ATOM      4  N   UNL     1       4.037   4.637  17.598  0.00  0.00    +0.000 N 
ATOM      5  C   UNL     1       3.219   4.656  18.693  0.00  0.00    +0.000 A 
ATOM      6  C   UNL     1       2.750   3.582  19.466  0.00  0.00    +0.000 A 
ATOM      7  C   UNL     1       1.914   3.867  20.547  0.00  0.00    +0.000 A 
ATOM      8 CL   UNL     1       1.296   2.572  21.498  0.00  0.00    +0.000 Cl
ATOM      9  C   UNL     1       1.589   5.175  20.877  0.00  0.00    +0.000 A 
ATOM     10  C   UNL     1       2.085   6.221  20.096  0.00  0.00    +0.000 A 
ATOM     11 CL   UNL     1       1.794   7.837  20.572  0.00  0.00    +0.000 Cl
ATOM     12  C   UNL     1       2.888   5.990  18.947  0.00  0.00    +0.000 A 
ATOM     13  H   UNL     1       4.438   3.803  17.186  0.00  0.00    +0.000 HD
BRANCH   3  14
ATOM     14  C   UNL     1       5.121   6.075  15.969  0.00  0.00    +0.000 C 
ATOM     15  O   UNL     1       5.063   7.014  15.192  0.00  0.00    +0.000 OA
BRANCH  14  16
ATOM     16  OXT UNL     1       6.010   5.066  15.830  0.00  0.00    +0.000 OA
ATOM     17  HXT UNL     1       6.576   5.187  15.041  0.00  0.00    +0.000 HD
ENDBRANCH  14  16
ENDBRANCH   3  14
ENDBRANCH   1   2
BRANCH   1  20
ATOM     18  O   UNL     1       2.191  10.621  18.656  0.00  0.00    +0.000 OA
ATOM     19  C   UNL     1       1.416   9.801  18.194  0.00  0.00    +0.000 C 
ATOM     20  N   UNL     1       1.805   8.573  17.740  0.00  0.00    +0.000 N 
ATOM     21  N   UNL     1       0.063  10.031  18.036  0.00  0.00    +0.000 N 
ATOM     22  H   UNL     1       1.101   7.983  17.326  0.00  0.00    +0.000 HD
ATOM     23  H   UNL     1      -0.546   9.383  17.554  0.00  0.00    +0.000 HD
BRANCH  21  24
ATOM     24  S   UNL     1      -0.738  11.388  18.576  0.00  0.00    +0.000 S 
ATOM     25  O   UNL     1      -0.904  11.180  20.001  0.00  0.00    +0.000 OA
ATOM     26  O   UNL     1      -0.054  12.562  18.084  0.00  0.00    +0.000 OA
BRANCH  24  27
ATOM     27  C   UNL     1      -2.351  11.296  17.838  0.00  0.00    +0.000 A 
ATOM     28  C   UNL     1      -3.479  11.690  18.565  0.00  0.00    +0.000 A 
ATOM     29  C   UNL     1      -4.733  11.662  17.954  0.00  0.00    +0.000 A 
ATOM     30  C   UNL     1      -4.857  11.248  16.626  0.00  0.00    +0.000 A 
ATOM     31  C   UNL     1      -3.728  10.871  15.899  0.00  0.00    +0.000 A 
ATOM     32  C   UNL     1      -2.470  10.905  16.500  0.00  0.00    +0.000 A 
ENDBRANCH  24  27
ENDBRANCH  21  24
ENDBRANCH   1  20
TORSDOF 6
ENDMDL
MODEL 6
REMARK VINA RESULT:      -7.7      4.499      8.209
REMARK  Name = 
REMARK  6 active torsions:
REMARK  status: ('A' for Active; 'I' for Inactive)
REMARK    1  A    between atoms: N_3  and  C_4
REMARK    2  A    between atoms: C_4  and  C_5
REMARK    3  A    between atoms: CA_6  and  C_7
REMARK    4  A    between atoms: C_7  and  OXT_9
REMARK    5  A    between atoms: N_19  and  S_20
REMARK    6  A    between atoms: S_20  and  C_23
REMARK                            x       y       z     vdW  Elec       q    Type
REMARK                         _______ _______ _______ _____ _____    ______ ____
ROOT
ATOM      1  C   UNL     1       3.238   8.296  17.667  0.00  0.00    +0.000 C 
ENDROOT
BRANCH   1   2
ATOM      2  C   UNL     1       3.511   6.833  17.893  0.00  0.00    +0.000 A 
ATOM      3  CA  UNL     1       4.331   5.968  17.158  0.00  0.00    +0.000 A 
ATOM      4  N   UNL     1       4.108   4.697  17.633  0.00  0.00    +0.000 N 
ATOM      5  C   UNL     1       3.260   4.706  18.706  0.00  0.00    +0.000 A 
ATOM      6  C   UNL     1       2.784   3.626  19.466  0.00  0.00    +0.000 A 
ATOM      7  C   UNL     1       1.916   3.901  20.525  0.00  0.00    +0.000 A 
ATOM      8 CL   UNL     1       1.289   2.599  21.459  0.00  0.00    +0.000 Cl
ATOM      9  C   UNL     1       1.567   5.205  20.846  0.00  0.00    +0.000 A 
ATOM     10  C   UNL     1       2.070   6.257  20.079  0.00  0.00    +0.000 A 
ATOM     11 CL   UNL     1       1.748   7.869  20.547  0.00  0.00    +0.000 Cl
ATOM     12  C   UNL     1       2.906   6.036  18.952  0.00  0.00    +0.000 A 
ATOM     13  H   UNL     1       4.529   3.868  17.232  0.00  0.00    +0.000 HD
BRANCH   3  14
ATOM     14  C   UNL     1       5.217   6.149  16.034  0.00  0.00    +0.000 C 
ATOM     15  O   UNL     1       5.113   5.567  14.967  0.00  0.00    +0.000 OA
BRANCH  14  16
ATOM     16  OXT UNL     1       6.202   7.041  16.286  0.00  0.00    +0.000 OA
ATOM     17  HXT UNL     1       6.241   7.281  17.233  0.00  0.00    +0.000 HD
ENDBRANCH  14  16
ENDBRANCH   3  14
ENDBRANCH   1   2
BRANCH   1  20
ATOM     18  O   UNL     1       2.184  10.641  18.705  0.00  0.00    +0.000 OA
ATOM     19  C   UNL     1       1.422   9.825  18.214  0.00  0.00    +0.000 C 
ATOM     20  N   UNL     1       1.827   8.610  17.740  0.00  0.00    +0.000 N 
ATOM     21  N   UNL     1       0.069  10.048  18.041  0.00  0.00    +0.000 N 
ATOM     22  H   UNL     1       1.134   8.024  17.303  0.00  0.00    +0.000 HD
ATOM     23  H   UNL     1      -0.527   9.406  17.536  0.00  0.00    +0.000 HD
BRANCH  21  24
ATOM     24  S   UNL     1      -0.750  11.387  18.598  0.00  0.00    +0.000 S 
ATOM     25  O   UNL     1      -0.999  11.114  20.000  0.00  0.00    +0.000 OA
ATOM     26  O   UNL     1      -0.031  12.575  18.201  0.00  0.00    +0.000 OA
BRANCH  24  27
ATOM     27  C   UNL     1      -2.319  11.346  17.767  0.00  0.00    +0.000 A 
ATOM     28  C   UNL     1      -2.404  10.882  16.450  0.00  0.00    +0.000 A 
ATOM     29  C   UNL     1      -3.650  10.806  15.828  0.00  0.00    +0.000 A 
ATOM     30  C   UNL     1      -4.803  11.186  16.519  0.00  0.00    +0.000 A 
ATOM     31  C   UNL     1      -4.718  11.632  17.837  0.00  0.00    +0.000 A 
ATOM     32  C   UNL     1      -3.476  11.703  18.469  0.00  0.00    +0.000 A 
ENDBRANCH  24  27
ENDBRANCH  21  24
ENDBRANCH   1  20
TORSDOF 6
ENDMDL
MODEL 7
REMARK VINA RESULT:      -7.7      3.798      8.045
REMARK  Name = 
REMARK  6 active torsions:
REMARK  status: ('A' for Active; 'I' for Inactive)
REMARK    1  A    between atoms: N_3  and  C_4
REMARK    2  A    between atoms: C_4  and  C_5
REMARK    3  A    between atoms: CA_6  and  C_7
REMARK    4  A    between atoms: C_7  and  OXT_9
REMARK    5  A    between atoms: N_19  and  S_20
REMARK    6  A    between atoms: S_20  and  C_23
REMARK                            x       y       z     vdW  Elec       q    Type
REMARK                         _______ _______ _______ _____ _____    ______ ____
ROOT
ATOM      1  C   UNL     1       3.057   5.827  19.779  0.00  0.00    +0.000 C 
ENDROOT
BRANCH   1   2
ATOM      2  C   UNL     1       3.482   4.784  18.781  0.00  0.00    +0.000 A 
ATOM      3  CA  UNL     1       3.289   3.398  18.820  0.00  0.00    +0.000 A 
ATOM      4  N   UNL     1       4.018   2.857  17.787  0.00  0.00    +0.000 N 
ATOM      5  C   UNL     1       4.594   3.830  17.019  0.00  0.00    +0.000 A 
ATOM      6  C   UNL     1       5.411   3.695  15.885  0.00  0.00    +0.000 A 
ATOM      7  C   UNL     1       5.880   4.858  15.272  0.00  0.00    +0.000 A 
ATOM      8 CL   UNL     1       6.908   4.729  13.897  0.00  0.00    +0.000 Cl
ATOM      9  C   UNL     1       5.517   6.112  15.739  0.00  0.00    +0.000 A 
ATOM     10  C   UNL     1       4.690   6.212  16.860  0.00  0.00    +0.000 A 
ATOM     11 CL   UNL     1       4.135   7.749  17.363  0.00  0.00    +0.000 Cl
ATOM     12  C   UNL     1       4.233   5.066  17.564  0.00  0.00    +0.000 A 
ATOM     13  H   UNL     1       4.105   1.861  17.625  0.00  0.00    +0.000 HD
BRANCH   3  14
ATOM     14  C   UNL     1       2.597   2.513  19.726  0.00  0.00    +0.000 C 
ATOM     15  O   UNL     1       2.653   2.582  20.943  0.00  0.00    +0.000 OA
BRANCH  14  16
ATOM     16  OXT UNL     1       1.870   1.573  19.081  0.00  0.00    +0.000 OA
ATOM     17  HXT UNL     1       2.265   1.337  18.218  0.00  0.00    +0.000 HD
ENDBRANCH  14  16
ENDBRANCH   3  14
ENDBRANCH   1   2
BRANCH   1  20
ATOM     18  O   UNL     1       1.904   7.934  21.164  0.00  0.00    +0.000 OA
ATOM     19  C   UNL     1       1.728   7.861  19.959  0.00  0.00    +0.000 C 
ATOM     20  N   UNL     1       2.191   6.829  19.195  0.00  0.00    +0.000 N 
ATOM     21  N   UNL     1       1.079   8.832  19.220  0.00  0.00    +0.000 N 
ATOM     22  H   UNL     1       2.044   6.881  18.199  0.00  0.00    +0.000 HD
ATOM     23  H   UNL     1       1.037   8.807  18.210  0.00  0.00    +0.000 HD
BRANCH  21  24
ATOM     24  S   UNL     1       0.318  10.165  19.866  0.00  0.00    +0.000 S 
ATOM     25  O   UNL     1      -0.217   9.710  21.134  0.00  0.00    +0.000 OA
ATOM     26  O   UNL     1       1.223  11.291  19.816  0.00  0.00    +0.000 OA
BRANCH  24  27
ATOM     27  C   UNL     1      -1.062  10.473  18.792  0.00  0.00    +0.000 A 
ATOM     28  C   UNL     1      -2.018  11.434  19.136  0.00  0.00    +0.000 A 
ATOM     29  C   UNL     1      -3.068  11.703  18.257  0.00  0.00    +0.000 A 
ATOM     30  C   UNL     1      -3.158  11.019  17.042  0.00  0.00    +0.000 A 
ATOM     31  C   UNL     1      -2.194  10.073  16.695  0.00  0.00    +0.000 A 
ATOM     32  C   UNL     1      -1.137   9.805  17.564  0.00  0.00    +0.000 A 
ENDBRANCH  24  27
ENDBRANCH  21  24
ENDBRANCH   1  20
TORSDOF 6
ENDMDL
MODEL 8
REMARK VINA RESULT:      -7.7      0.988      1.082
REMARK  Name = 
REMARK  6 active torsions:
REMARK  status: ('A' for Active; 'I' for Inactive)
REMARK    1  A    between atoms: N_3  and  C_4
REMARK    2  A    between atoms: C_4  and  C_5
REMARK    3  A    between atoms: CA_6  and  C_7
REMARK    4  A    between atoms: C_7  and  OXT_9
REMARK    5  A    between atoms: N_19  and  S_20
REMARK    6  A    between atoms: S_20  and  C_23
REMARK                            x       y       z     vdW  Elec       q    Type
REMARK                         _______ _______ _______ _____ _____    ______ ____
ROOT
ATOM      1  C   UNL     1       2.683   7.501  17.546  0.00  0.00    +0.000 C 
ENDROOT
BRANCH   1   2
ATOM      2  C   UNL     1       2.252   7.489  18.988  0.00  0.00    +0.000 A 
ATOM      3  CA  UNL     1       2.294   6.435  19.909  0.00  0.00    +0.000 A 
ATOM      4  N   UNL     1       1.618   6.852  21.032  0.00  0.00    +0.000 N 
ATOM      5  C   UNL     1       1.227   8.158  20.925  0.00  0.00    +0.000 A 
ATOM      6  C   UNL     1       0.518   8.947  21.844  0.00  0.00    +0.000 A 
ATOM      7  C   UNL     1       0.238  10.269  21.494  0.00  0.00    +0.000 A 
ATOM      8 CL   UNL     1      -0.656  11.257  22.584  0.00  0.00    +0.000 Cl
ATOM      9  C   UNL     1       0.683  10.803  20.293  0.00  0.00    +0.000 A 
ATOM     10  C   UNL     1       1.399   9.995  19.408  0.00  0.00    +0.000 A 
ATOM     11 CL   UNL     1       2.059  10.681  17.988  0.00  0.00    +0.000 Cl
ATOM     12  C   UNL     1       1.660   8.625  19.681  0.00  0.00    +0.000 A 
ATOM     13  H   UNL     1       1.444   6.257  21.833  0.00  0.00    +0.000 HD
BRANCH   3  14
ATOM     14  C   UNL     1       2.795   5.083  19.856  0.00  0.00    +0.000 C 
ATOM     15  O   UNL     1       3.899   4.736  20.242  0.00  0.00    +0.000 OA
BRANCH  14  16
ATOM     16  OXT UNL     1       1.905   4.219  19.317  0.00  0.00    +0.000 OA
ATOM     17  HXT UNL     1       2.321   3.365  19.087  0.00  0.00    +0.000 HD
ENDBRANCH  14  16
ENDBRANCH   3  14
ENDBRANCH   1   2
BRANCH   1  20
ATOM     18  O   UNL     1       3.678   4.998  16.893  0.00  0.00    +0.000 OA
ATOM     19  C   UNL     1       4.460   5.927  17.002  0.00  0.00    +0.000 C 
ATOM     20  N   UNL     1       4.085   7.182  17.387  0.00  0.00    +0.000 N 
ATOM     21  N   UNL     1       5.807   5.832  16.707  0.00  0.00    +0.000 N 
ATOM     22  H   UNL     1       4.793   7.900  17.397  0.00  0.00    +0.000 HD
ATOM     23  H   UNL     1       6.420   6.638  16.700  0.00  0.00    +0.000 HD
BRANCH  21  24
ATOM     24  S   UNL     1       6.593   4.421  16.303  0.00  0.00    +0.000 S 
ATOM     25  O   UNL     1       7.919   4.557  16.872  0.00  0.00    +0.000 OA
ATOM     26  O   UNL     1       5.756   3.299  16.662  0.00  0.00    +0.000 OA
BRANCH  24  27
ATOM     27  C   UNL     1       6.769   4.480  14.537  0.00  0.00    +0.000 A 
ATOM     28  C   UNL     1       7.702   5.343  13.953  0.00  0.00    +0.000 A 
ATOM     29  C   UNL     1       7.866   5.340  12.568  0.00  0.00    +0.000 A 
ATOM     30  C   UNL     1       7.107   4.478  11.773  0.00  0.00    +0.000 A 
ATOM     31  C   UNL     1       6.189   3.607  12.360  0.00  0.00    +0.000 A 
ATOM     32  C   UNL     1       6.025   3.598  13.745  0.00  0.00    +0.000 A 
ENDBRANCH  24  27
ENDBRANCH  21  24
ENDBRANCH   1  20
TORSDOF 6
ENDMDL
MODEL 9
REMARK VINA RESULT:      -7.6      3.354      4.885
REMARK  Name = 
REMARK  6 active torsions:
REMARK  status: ('A' for Active; 'I' for Inactive)
REMARK    1  A    between atoms: N_3  and  C_4
REMARK    2  A    between atoms: C_4  and  C_5
REMARK    3  A    between atoms: CA_6  and  C_7
REMARK    4  A    between atoms: C_7  and  OXT_9
REMARK    5  A    between atoms: N_19  and  S_20
REMARK    6  A    between atoms: S_20  and  C_23
REMARK                            x       y       z     vdW  Elec       q    Type
REMARK                         _______ _______ _______ _____ _____    ______ ____
ROOT
ATOM      1  C   UNL     1       1.053   9.716  19.377  0.00  0.00    +0.000 C 
ENDROOT
BRANCH   1   2
ATOM      2  C   UNL     1       0.630  10.659  20.471  0.00  0.00    +0.000 A 
ATOM      3  CA  UNL     1      -0.003  10.369  21.686  0.00  0.00    +0.000 A 
ATOM      4  N   UNL     1      -0.353  11.570  22.257  0.00  0.00    +0.000 N 
ATOM      5  C   UNL     1       0.109  12.627  21.523  0.00  0.00    +0.000 A 
ATOM      6  C   UNL     1      -0.038  14.002  21.763  0.00  0.00    +0.000 A 
ATOM      7  C   UNL     1       0.535  14.892  20.851  0.00  0.00    +0.000 A 
ATOM      8 CL   UNL     1       0.348  16.585  21.097  0.00  0.00    +0.000 Cl
ATOM      9  C   UNL     1       1.265  14.434  19.765  0.00  0.00    +0.000 A 
ATOM     10  C   UNL     1       1.406  13.059  19.564  0.00  0.00    +0.000 A 
ATOM     11 CL   UNL     1       2.410  12.491  18.303  0.00  0.00    +0.000 Cl
ATOM     12  C   UNL     1       0.793  12.106  20.421  0.00  0.00    +0.000 A 
ATOM     13  H   UNL     1      -0.884  11.648  23.117  0.00  0.00    +0.000 HD
BRANCH   3  14
ATOM     14  C   UNL     1      -0.397   9.144  22.338  0.00  0.00    +0.000 C 
ATOM     15  O   UNL     1      -0.784   8.142  21.758  0.00  0.00    +0.000 OA
BRANCH  14  16
ATOM     16  OXT UNL     1      -0.301   9.217  23.685  0.00  0.00    +0.000 OA
ATOM     17  HXT UNL     1      -0.454  10.126  24.011  0.00  0.00    +0.000 HD
ENDBRANCH  14  16
ENDBRANCH   3  14
ENDBRANCH   1   2
BRANCH   1  20
ATOM     18  O   UNL     1       2.119   7.679  17.828  0.00  0.00    +0.000 OA
ATOM     19  C   UNL     1       2.158   7.572  19.042  0.00  0.00    +0.000 C 
ATOM     20  N   UNL     1       1.601   8.482  19.894  0.00  0.00    +0.000 N 
ATOM     21  N   UNL     1       2.807   6.543  19.698  0.00  0.00    +0.000 N 
ATOM     22  H   UNL     1       1.730   8.337  20.883  0.00  0.00    +0.000 HD
ATOM     23  H   UNL     1       2.921   6.527  20.704  0.00  0.00    +0.000 HD
BRANCH  21  24
ATOM     24  S   UNL     1       3.502   5.229  18.949  0.00  0.00    +0.000 S 
ATOM     25  O   UNL     1       3.625   4.228  19.991  0.00  0.00    +0.000 OA
ATOM     26  O   UNL     1       2.768   4.937  17.739  0.00  0.00    +0.000 OA
BRANCH  24  27
ATOM     27  C   UNL     1       5.145   5.754  18.527  0.00  0.00    +0.000 A 
ATOM     28  C   UNL     1       5.348   6.626  17.452  0.00  0.00    +0.000 A 
ATOM     29  C   UNL     1       6.639   7.072  17.165  0.00  0.00    +0.000 A 
ATOM     30  C   UNL     1       7.716   6.653  17.950  0.00  0.00    +0.000 A 
ATOM     31  C   UNL     1       7.508   5.796  19.030  0.00  0.00    +0.000 A 
ATOM     32  C   UNL     1       6.219   5.353  19.328  0.00  0.00    +0.000 A 
ENDBRANCH  24  27
ENDBRANCH  21  24
ENDBRANCH   1  20
TORSDOF 6
ENDMDL
