MODEL 1
REMARK VINA RESULT:      -8.4      0.000      0.000
REMARK  Name = 
REMARK  7 active torsions:
REMARK  status: ('A' for Active; 'I' for Inactive)
REMARK    1  A    between atoms: C_1  and  C_2
REMARK    2  A    between atoms: C_6  and  N_7
REMARK    3  A    between atoms: N_7  and  S_8
REMARK    4  A    between atoms: S_8  and  C_11
REMARK    5  A    between atoms: C_14  and  C_15
REMARK    6  A    between atoms: C_18  and  C_19
REMARK    7  A    between atoms: C_25  and  C_26
REMARK                            x       y       z     vdW  Elec       q    Type
REMARK                         _______ _______ _______ _____ _____    ______ ____
ROOT
ATOM      1  C   UNL     1       2.454   4.698  18.886  0.00  0.00    +0.000 A 
ATOM      2  C   UNL     1       2.088   4.727  20.232  0.00  0.00    +0.000 A 
ATOM      3  C   UNL     1       1.767   5.947  20.835  0.00  0.00    +0.000 A 
ATOM      4  C   UNL     1       1.823   7.150  20.111  0.00  0.00    +0.000 A 
ATOM      5  C   UNL     1       2.249   7.103  18.773  0.00  0.00    +0.000 A 
ATOM      6  C   UNL     1       2.568   5.887  18.159  0.00  0.00    +0.000 A 
ENDROOT
BRANCH   4   7
ATOM      7  C   UNL     1       1.425   8.403  20.737  0.00  0.00    +0.000 A 
ATOM      8  C   UNL     1       1.387   8.896  22.025  0.00  0.00    +0.000 A 
ATOM      9  N   UNL     1       0.884  10.171  22.037  0.00  0.00    +0.000 NA
ATOM     10  C   UNL     1       0.620  10.418  20.768  0.00  0.00    +0.000 A 
ATOM     11  O   UNL     1       0.926   9.385  19.923  0.00  0.00    +0.000 OA
BRANCH  10  12
ATOM     12  C   UNL     1       0.019  11.736  20.306  0.00  0.00    +0.000 C 
ATOM     13  C   UNL     1      -1.346  11.716  19.649  0.00  0.00    +0.000 C 
ATOM     14  C   UNL     1      -1.203  12.266  21.027  0.00  0.00    +0.000 C 
ENDBRANCH  10  12
ENDBRANCH   4   7
BRANCH   1  15
ATOM     15  S   UNL     1       2.834   3.143  18.115  0.00  0.00    +0.000 S 
ATOM     16  O   UNL     1       2.392   3.191  16.739  0.00  0.00    +0.000 OA
ATOM     17  O   UNL     1       2.385   2.097  19.011  0.00  0.00    +0.000 OA
BRANCH  15  18
ATOM     18  N   UNL     1       4.521   3.101  18.175  0.00  0.00    +0.000 N 
ATOM     19  H   UNL     1       4.871   2.152  18.294  0.00  0.00    +0.000 HD
BRANCH  18  25
ATOM     20  C   UNL     1       7.491   7.108  17.503  0.00  0.00    +0.000 C 
ATOM     21  C   UNL     1       6.702   5.926  17.001  0.00  0.00    +0.000 A 
ATOM     22  C   UNL     1       6.653   5.688  15.619  0.00  0.00    +0.000 A 
ATOM     23  C   UNL     1       5.938   4.607  15.108  0.00  0.00    +0.000 A 
ATOM     24  C   UNL     1       5.258   3.756  15.973  0.00  0.00    +0.000 A 
ATOM     25  C   UNL     1       5.282   3.981  17.352  0.00  0.00    +0.000 A 
ATOM     26  C   UNL     1       6.009   5.063  17.888  0.00  0.00    +0.000 A 
ATOM     27  C   UNL     1       6.067   5.331  19.370  0.00  0.00    +0.000 C 
ENDBRANCH  18  25
ENDBRANCH  15  18
ENDBRANCH   1  15
TORSDOF 5
ENDMDL
MODEL 2
REMARK VINA RESULT:      -8.3      2.437      7.847
REMARK  Name = 
REMARK  7 active torsions:
REMARK  status: ('A' for Active; 'I' for Inactive)
REMARK    1  A    between atoms: C_1  and  C_2
REMARK    2  A    between atoms: C_6  and  N_7
REMARK    3  A    between atoms: N_7  and  S_8
REMARK    4  A    between atoms: S_8  and  C_11
REMARK    5  A    between atoms: C_14  and  C_15
REMARK    6  A    between atoms: C_18  and  C_19
REMARK    7  A    between atoms: C_25  and  C_26
REMARK                            x       y       z     vdW  Elec       q    Type
REMARK                         _______ _______ _______ _____ _____    ______ ____
ROOT
ATOM      1  C   UNL     1       3.131   4.890  19.175  0.00  0.00    +0.000 A 
ATOM      2  C   UNL     1       4.458   5.301  19.303  0.00  0.00    +0.000 A 
ATOM      3  C   UNL     1       5.332   5.160  18.221  0.00  0.00    +0.000 A 
ATOM      4  C   UNL     1       4.901   4.596  17.008  0.00  0.00    +0.000 A 
ATOM      5  C   UNL     1       3.576   4.138  16.922  0.00  0.00    +0.000 A 
ATOM      6  C   UNL     1       2.691   4.278  17.998  0.00  0.00    +0.000 A 
ENDROOT
BRANCH   4   7
ATOM      7  C   UNL     1       5.808   4.515  15.872  0.00  0.00    +0.000 A 
ATOM      8  C   UNL     1       7.146   4.769  15.656  0.00  0.00    +0.000 A 
ATOM      9  N   UNL     1       7.474   4.535  14.345  0.00  0.00    +0.000 NA
ATOM     10  C   UNL     1       6.335   4.159  13.797  0.00  0.00    +0.000 A 
ATOM     11  O   UNL     1       5.280   4.123  14.670  0.00  0.00    +0.000 OA
BRANCH  10  12
ATOM     12  C   UNL     1       6.220   3.809  12.322  0.00  0.00    +0.000 C 
ATOM     13  C   UNL     1       6.062   2.352  11.937  0.00  0.00    +0.000 C 
ATOM     14  C   UNL     1       4.899   3.275  11.806  0.00  0.00    +0.000 C 
ENDBRANCH  10  12
ENDBRANCH   4   7
BRANCH   1  15
ATOM     15  S   UNL     1       2.014   5.096  20.541  0.00  0.00    +0.000 S 
ATOM     16  O   UNL     1       2.440   4.233  21.619  0.00  0.00    +0.000 OA
ATOM     17  O   UNL     1       0.667   5.027  20.011  0.00  0.00    +0.000 OA
BRANCH  15  18
ATOM     18  N   UNL     1       2.250   6.712  20.972  0.00  0.00    +0.000 N 
ATOM     19  H   UNL     1       3.147   6.852  21.435  0.00  0.00    +0.000 HD
BRANCH  18  25
ATOM     20  C   UNL     1      -0.646  10.706  19.978  0.00  0.00    +0.000 C 
ATOM     21  C   UNL     1       0.383   9.670  19.602  0.00  0.00    +0.000 A 
ATOM     22  C   UNL     1       0.896   9.674  18.296  0.00  0.00    +0.000 A 
ATOM     23  C   UNL     1       1.849   8.737  17.903  0.00  0.00    +0.000 A 
ATOM     24  C   UNL     1       2.295   7.781  18.810  0.00  0.00    +0.000 A 
ATOM     25  C   UNL     1       1.789   7.750  20.112  0.00  0.00    +0.000 A 
ATOM     26  C   UNL     1       0.833   8.697  20.531  0.00  0.00    +0.000 A 
ATOM     27  C   UNL     1       0.271   8.701  21.930  0.00  0.00    +0.000 C 
ENDBRANCH  18  25
ENDBRANCH  15  18
ENDBRANCH   1  15
TORSDOF 5
ENDMDL
MODEL 3
REMARK VINA RESULT:      -8.2      0.599      1.330
REMARK  Name = 
REMARK  7 active torsions:
REMARK  status: ('A' for Active; 'I' for Inactive)
REMARK    1  A    between atoms: C_1  and  C_2
REMARK    2  A    between atoms: C_6  and  N_7
REMARK    3  A    between atoms: N_7  and  S_8
REMARK    4  A    between atoms: S_8  and  C_11
REMARK    5  A    between atoms: C_14  and  C_15
REMARK    6  A    between atoms: C_18  and  C_19
REMARK    7  A    between atoms: C_25  and  C_26
REMARK                            x       y       z     vdW  Elec       q    Type
REMARK                         _______ _______ _______ _____ _____    ______ ____
ROOT
ATOM      1  C   UNL     1       2.424   4.628  18.895  0.00  0.00    +0.000 A 
ATOM      2  C   UNL     1       2.497   5.804  18.149  0.00  0.00    +0.000 A 
ATOM      3  C   UNL     1       2.170   7.025  18.748  0.00  0.00    +0.000 A 
ATOM      4  C   UNL     1       1.754   7.086  20.089  0.00  0.00    +0.000 A 
ATOM      5  C   UNL     1       1.634   5.882  20.804  0.00  0.00    +0.000 A 
ATOM      6  C   UNL     1       1.963   4.656  20.214  0.00  0.00    +0.000 A 
ENDROOT
BRANCH   4   7
ATOM      7  C   UNL     1       1.478   8.371  20.714  0.00  0.00    +0.000 A 
ATOM      8  C   UNL     1       1.368   8.837  22.007  0.00  0.00    +0.000 A 
ATOM      9  N   UNL     1       1.062  10.174  22.012  0.00  0.00    +0.000 NA
ATOM     10  C   UNL     1       0.984  10.484  20.733  0.00  0.00    +0.000 A 
ATOM     11  O   UNL     1       1.227   9.435  19.888  0.00  0.00    +0.000 OA
BRANCH  10  12
ATOM     12  C   UNL     1       0.643  11.888  20.258  0.00  0.00    +0.000 C 
ATOM     13  C   UNL     1       1.726  12.946  20.299  0.00  0.00    +0.000 C 
ATOM     14  C   UNL     1       1.288  12.396  18.984  0.00  0.00    +0.000 C 
ENDBRANCH  10  12
ENDBRANCH   4   7
BRANCH   1  15
ATOM     15  S   UNL     1       2.868   3.082  18.140  0.00  0.00    +0.000 S 
ATOM     16  O   UNL     1       2.436   3.102  16.761  0.00  0.00    +0.000 OA
ATOM     17  O   UNL     1       2.451   2.027  19.042  0.00  0.00    +0.000 OA
BRANCH  15  18
ATOM     18  N   UNL     1       4.554   3.104  18.214  0.00  0.00    +0.000 N 
ATOM     19  H   UNL     1       4.939   2.171  18.349  0.00  0.00    +0.000 HD
BRANCH  18  25
ATOM     20  C   UNL     1       7.420   7.182  17.516  0.00  0.00    +0.000 C 
ATOM     21  C   UNL     1       6.658   5.979  17.021  0.00  0.00    +0.000 A 
ATOM     22  C   UNL     1       6.608   5.736  15.640  0.00  0.00    +0.000 A 
ATOM     23  C   UNL     1       5.917   4.637  15.135  0.00  0.00    +0.000 A 
ATOM     24  C   UNL     1       5.263   3.771  16.006  0.00  0.00    +0.000 A 
ATOM     25  C   UNL     1       5.289   4.000  17.384  0.00  0.00    +0.000 A 
ATOM     26  C   UNL     1       5.992   5.101  17.914  0.00  0.00    +0.000 A 
ATOM     27  C   UNL     1       6.051   5.375  19.395  0.00  0.00    +0.000 C 
ENDBRANCH  18  25
ENDBRANCH  15  18
ENDBRANCH   1  15
TORSDOF 5
ENDMDL
MODEL 4
REMARK VINA RESULT:      -8.2      4.249      7.032
REMARK  Name = 
REMARK  7 active torsions:
REMARK  status: ('A' for Active; 'I' for Inactive)
REMARK    1  A    between atoms: C_1  and  C_2
REMARK    2  A    between atoms: C_6  and  N_7
REMARK    3  A    between atoms: N_7  and  S_8
REMARK    4  A    between atoms: S_8  and  C_11
REMARK    5  A    between atoms: C_14  and  C_15
REMARK    6  A    between atoms: C_18  and  C_19
REMARK    7  A    between atoms: C_25  and  C_26
REMARK                            x       y       z     vdW  Elec       q    Type
REMARK                         _______ _______ _______ _____ _____    ______ ____
ROOT
ATOM      1  C   UNL     1       6.820   6.189  17.900  0.00  0.00    +0.000 A 
ATOM      2  C   UNL     1       7.853   6.240  18.836  0.00  0.00    +0.000 A 
ATOM      3  C   UNL     1       8.545   7.438  19.037  0.00  0.00    +0.000 A 
ATOM      4  C   UNL     1       8.229   8.591  18.299  0.00  0.00    +0.000 A 
ATOM      5  C   UNL     1       7.224   8.500  17.321  0.00  0.00    +0.000 A 
ATOM      6  C   UNL     1       6.522   7.307  17.115  0.00  0.00    +0.000 A 
ENDROOT
BRANCH   4   7
ATOM      7  C   UNL     1       8.917   9.846  18.565  0.00  0.00    +0.000 A 
ATOM      8  C   UNL     1       9.458  10.858  17.801  0.00  0.00    +0.000 A 
ATOM      9  N   UNL     1      10.022  11.818  18.602  0.00  0.00    +0.000 NA
ATOM     10  C   UNL     1       9.822  11.364  19.824  0.00  0.00    +0.000 A 
ATOM     11  O   UNL     1       9.154  10.170  19.875  0.00  0.00    +0.000 OA
BRANCH  10  12
ATOM     12  C   UNL     1      10.306  12.113  21.056  0.00  0.00    +0.000 C 
ATOM     13  C   UNL     1       9.910  13.566  21.219  0.00  0.00    +0.000 C 
ATOM     14  C   UNL     1       9.286  12.533  22.094  0.00  0.00    +0.000 C 
ENDBRANCH  10  12
ENDBRANCH   4   7
BRANCH   1  15
ATOM     15  S   UNL     1       5.923   4.673  17.666  0.00  0.00    +0.000 S 
ATOM     16  O   UNL     1       5.965   3.919  18.898  0.00  0.00    +0.000 OA
ATOM     17  O   UNL     1       6.372   4.095  16.416  0.00  0.00    +0.000 OA
BRANCH  15  18
ATOM     18  N   UNL     1       4.350   5.215  17.378  0.00  0.00    +0.000 N 
ATOM     19  H   UNL     1       4.086   5.106  16.401  0.00  0.00    +0.000 HD
BRANCH  18  25
ATOM     20  C   UNL     1       0.554   2.561  19.346  0.00  0.00    +0.000 C 
ATOM     21  C   UNL     1       1.485   3.745  19.314  0.00  0.00    +0.000 A 
ATOM     22  C   UNL     1       1.324   4.754  20.277  0.00  0.00    +0.000 A 
ATOM     23  C   UNL     1       2.161   5.867  20.288  0.00  0.00    +0.000 A 
ATOM     24  C   UNL     1       3.166   5.988  19.333  0.00  0.00    +0.000 A 
ATOM     25  C   UNL     1       3.336   5.002  18.357  0.00  0.00    +0.000 A 
ATOM     26  C   UNL     1       2.506   3.864  18.337  0.00  0.00    +0.000 A 
ATOM     27  C   UNL     1       2.666   2.775  17.306  0.00  0.00    +0.000 C 
ENDBRANCH  18  25
ENDBRANCH  15  18
ENDBRANCH   1  15
TORSDOF 5
ENDMDL
MODEL 5
REMARK VINA RESULT:      -8.1      4.172      6.876
REMARK  Name = 
REMARK  7 active torsions:
REMARK  status: ('A' for Active; 'I' for Inactive)
REMARK    1  A    between atoms: C_1  and  C_2
REMARK    2  A    between atoms: C_6  and  N_7
REMARK    3  A    between atoms: N_7  and  S_8
REMARK    4  A    between atoms: S_8  and  C_11
REMARK    5  A    between atoms: C_14  and  C_15
REMARK    6  A    between atoms: C_18  and  C_19
REMARK    7  A    between atoms: C_25  and  C_26
REMARK                            x       y       z     vdW  Elec       q    Type
REMARK                         _______ _______ _______ _____ _____    ______ ____
ROOT
ATOM      1  C   UNL     1       6.791   6.153  17.876  0.00  0.00    +0.000 A 
ATOM      2  C   UNL     1       7.834   6.206  18.800  0.00  0.00    +0.000 A 
ATOM      3  C   UNL     1       8.507   7.413  19.015  0.00  0.00    +0.000 A 
ATOM      4  C   UNL     1       8.161   8.573  18.301  0.00  0.00    +0.000 A 
ATOM      5  C   UNL     1       7.146   8.481  17.334  0.00  0.00    +0.000 A 
ATOM      6  C   UNL     1       6.463   7.279  17.116  0.00  0.00    +0.000 A 
ENDROOT
BRANCH   4   7
ATOM      7  C   UNL     1       8.830   9.834  18.581  0.00  0.00    +0.000 A 
ATOM      8  C   UNL     1       9.711  10.295  19.537  0.00  0.00    +0.000 A 
ATOM      9  N   UNL     1      10.003  11.618  19.325  0.00  0.00    +0.000 NA
ATOM     10  C   UNL     1       9.291  11.931  18.260  0.00  0.00    +0.000 A 
ATOM     11  O   UNL     1       8.555  10.893  17.755  0.00  0.00    +0.000 OA
BRANCH  10  12
ATOM     12  C   UNL     1       9.292  13.331  17.666  0.00  0.00    +0.000 C 
ATOM     13  C   UNL     1       8.150  14.263  18.014  0.00  0.00    +0.000 C 
ATOM     14  C   UNL     1       9.501  14.510  18.594  0.00  0.00    +0.000 C 
ENDBRANCH  10  12
ENDBRANCH   4   7
BRANCH   1  15
ATOM     15  S   UNL     1       5.918   4.626  17.627  0.00  0.00    +0.000 S 
ATOM     16  O   UNL     1       5.966   3.862  18.853  0.00  0.00    +0.000 OA
ATOM     17  O   UNL     1       6.381   4.064  16.374  0.00  0.00    +0.000 OA
BRANCH  15  18
ATOM     18  N   UNL     1       4.338   5.145  17.336  0.00  0.00    +0.000 N 
ATOM     19  H   UNL     1       4.067   5.005  16.364  0.00  0.00    +0.000 HD
BRANCH  18  25
ATOM     20  C   UNL     1       0.580   2.518  19.410  0.00  0.00    +0.000 C 
ATOM     21  C   UNL     1       1.501   3.708  19.337  0.00  0.00    +0.000 A 
ATOM     22  C   UNL     1       1.339   4.743  20.272  0.00  0.00    +0.000 A 
ATOM     23  C   UNL     1       2.167   5.863  20.244  0.00  0.00    +0.000 A 
ATOM     24  C   UNL     1       3.163   5.964  19.278  0.00  0.00    +0.000 A 
ATOM     25  C   UNL     1       3.334   4.953  18.329  0.00  0.00    +0.000 A 
ATOM     26  C   UNL     1       2.513   3.807  18.348  0.00  0.00    +0.000 A 
ATOM     27  C   UNL     1       2.674   2.691  17.348  0.00  0.00    +0.000 C 
ENDBRANCH  18  25
ENDBRANCH  15  18
ENDBRANCH   1  15
TORSDOF 5
ENDMDL
MODEL 6
REMARK VINA RESULT:      -8.1      2.555      8.825
REMARK  Name = 
REMARK  7 active torsions:
REMARK  status: ('A' for Active; 'I' for Inactive)
REMARK    1  A    between atoms: C_1  and  C_2
REMARK    2  A    between atoms: C_6  and  N_7
REMARK    3  A    between atoms: N_7  and  S_8
REMARK    4  A    between atoms: S_8  and  C_11
REMARK    5  A    between atoms: C_14  and  C_15
REMARK    6  A    between atoms: C_18  and  C_19
REMARK    7  A    between atoms: C_25  and  C_26
REMARK                            x       y       z     vdW  Elec       q    Type
REMARK                         _______ _______ _______ _____ _____    ______ ____
ROOT
ATOM      1  C   UNL     1       1.284   9.133  19.699  0.00  0.00    +0.000 A 
ATOM      2  C   UNL     1       1.700   9.146  18.368  0.00  0.00    +0.000 A 
ATOM      3  C   UNL     1       2.300   8.009  17.819  0.00  0.00    +0.000 A 
ATOM      4  C   UNL     1       2.508   6.854  18.592  0.00  0.00    +0.000 A 
ATOM      5  C   UNL     1       2.133   6.884  19.946  0.00  0.00    +0.000 A 
ATOM      6  C   UNL     1       1.528   8.016  20.503  0.00  0.00    +0.000 A 
ENDROOT
BRANCH   4   7
ATOM      7  C   UNL     1       3.077   5.659  17.988  0.00  0.00    +0.000 A 
ATOM      8  C   UNL     1       2.769   4.315  17.976  0.00  0.00    +0.000 A 
ATOM      9  N   UNL     1       3.690   3.616  17.239  0.00  0.00    +0.000 NA
ATOM     10  C   UNL     1       4.536   4.543  16.831  0.00  0.00    +0.000 A 
ATOM     11  O   UNL     1       4.222   5.808  17.249  0.00  0.00    +0.000 OA
BRANCH  10  12
ATOM     12  C   UNL     1       5.752   4.213  15.980  0.00  0.00    +0.000 C 
ATOM     13  C   UNL     1       5.621   4.295  14.473  0.00  0.00    +0.000 C 
ATOM     14  C   UNL     1       6.411   5.331  15.198  0.00  0.00    +0.000 C 
ENDBRANCH  10  12
ENDBRANCH   4   7
BRANCH   1  15
ATOM     15  S   UNL     1       0.495  10.569  20.386  0.00  0.00    +0.000 S 
ATOM     16  O   UNL     1       1.499  11.377  21.041  0.00  0.00    +0.000 OA
ATOM     17  O   UNL     1      -0.684  10.114  21.095  0.00  0.00    +0.000 OA
BRANCH  15  18
ATOM     18  N   UNL     1      -0.079  11.368  19.014  0.00  0.00    +0.000 N 
ATOM     19  H   UNL     1       0.637  11.446  18.294  0.00  0.00    +0.000 HD
BRANCH  18  25
ATOM     20  C   UNL     1      -5.007  12.382  19.148  0.00  0.00    +0.000 C 
ATOM     21  C   UNL     1      -3.810  11.618  18.644  0.00  0.00    +0.000 A 
ATOM     22  C   UNL     1      -4.014  10.579  17.722  0.00  0.00    +0.000 A 
ATOM     23  C   UNL     1      -2.939   9.845  17.228  0.00  0.00    +0.000 A 
ATOM     24  C   UNL     1      -1.647  10.136  17.654  0.00  0.00    +0.000 A 
ATOM     25  C   UNL     1      -1.421  11.157  18.581  0.00  0.00    +0.000 A 
ATOM     26  C   UNL     1      -2.496  11.918  19.084  0.00  0.00    +0.000 A 
ATOM     27  C   UNL     1      -2.290  13.033  20.077  0.00  0.00    +0.000 C 
ENDBRANCH  18  25
ENDBRANCH  15  18
ENDBRANCH   1  15
TORSDOF 5
ENDMDL
MODEL 7
REMARK VINA RESULT:      -8.1      3.044      8.896
REMARK  Name = 
REMARK  7 active torsions:
REMARK  status: ('A' for Active; 'I' for Inactive)
REMARK    1  A    between atoms: C_1  and  C_2
REMARK    2  A    between atoms: C_6  and  N_7
REMARK    3  A    between atoms: N_7  and  S_8
REMARK    4  A    between atoms: S_8  and  C_11
REMARK    5  A    between atoms: C_14  and  C_15
REMARK    6  A    between atoms: C_18  and  C_19
REMARK    7  A    between atoms: C_25  and  C_26
REMARK                            x       y       z     vdW  Elec       q    Type
REMARK                         _______ _______ _______ _____ _____    ______ ____
ROOT
ATOM      1  C   UNL     1       1.033   9.645  19.223  0.00  0.00    +0.000 A 
ATOM      2  C   UNL     1       1.693   9.497  18.003  0.00  0.00    +0.000 A 
ATOM      3  C   UNL     1       2.499   8.376  17.784  0.00  0.00    +0.000 A 
ATOM      4  C   UNL     1       2.669   7.399  18.780  0.00  0.00    +0.000 A 
ATOM      5  C   UNL     1       2.041   7.598  20.021  0.00  0.00    +0.000 A 
ATOM      6  C   UNL     1       1.229   8.715  20.248  0.00  0.00    +0.000 A 
ENDROOT
BRANCH   4   7
ATOM      7  C   UNL     1       3.461   6.207  18.512  0.00  0.00    +0.000 A 
ATOM      8  C   UNL     1       4.073   5.235  19.276  0.00  0.00    +0.000 A 
ATOM      9  N   UNL     1       4.723   4.333  18.474  0.00  0.00    +0.000 NA
ATOM     10  C   UNL     1       4.502   4.779  17.253  0.00  0.00    +0.000 A 
ATOM     11  O   UNL     1       3.740   5.916  17.203  0.00  0.00    +0.000 OA
BRANCH  10  12
ATOM     12  C   UNL     1       5.061   4.084  16.022  0.00  0.00    +0.000 C 
ATOM     13  C   UNL     1       5.659   4.937  14.921  0.00  0.00    +0.000 C 
ATOM     14  C   UNL     1       6.558   4.122  15.787  0.00  0.00    +0.000 C 
ENDBRANCH  10  12
ENDBRANCH   4   7
BRANCH   1  15
ATOM     15  S   UNL     1      -0.013  11.056  19.489  0.00  0.00    +0.000 S 
ATOM     16  O   UNL     1       0.183  11.986  18.400  0.00  0.00    +0.000 OA
ATOM     17  O   UNL     1       0.159  11.466  20.868  0.00  0.00    +0.000 OA
BRANCH  15  18
ATOM     18  N   UNL     1      -1.562  10.389  19.402  0.00  0.00    +0.000 N 
ATOM     19  H   UNL     1      -2.042  10.431  20.300  0.00  0.00    +0.000 HD
BRANCH  18  25
ATOM     20  C   UNL     1      -5.490  12.364  16.953  0.00  0.00    +0.000 C 
ATOM     21  C   UNL     1      -4.255  11.506  17.031  0.00  0.00    +0.000 A 
ATOM     22  C   UNL     1      -3.864  10.784  15.893  0.00  0.00    +0.000 A 
ATOM     23  C   UNL     1      -2.728   9.977  15.916  0.00  0.00    +0.000 A 
ATOM     24  C   UNL     1      -1.973   9.878  17.080  0.00  0.00    +0.000 A 
ATOM     25  C   UNL     1      -2.350  10.578  18.230  0.00  0.00    +0.000 A 
ATOM     26  C   UNL     1      -3.490  11.407  18.222  0.00  0.00    +0.000 A 
ATOM     27  C   UNL     1      -3.922  12.184  19.439  0.00  0.00    +0.000 C 
ENDBRANCH  18  25
ENDBRANCH  15  18
ENDBRANCH   1  15
TORSDOF 5
ENDMDL
MODEL 8
REMARK VINA RESULT:      -8.0      2.531      3.911
REMARK  Name = 
REMARK  7 active torsions:
REMARK  status: ('A' for Active; 'I' for Inactive)
REMARK    1  A    between atoms: C_1  and  C_2
REMARK    2  A    between atoms: C_6  and  N_7
REMARK    3  A    between atoms: N_7  and  S_8
REMARK    4  A    between atoms: S_8  and  C_11
REMARK    5  A    between atoms: C_14  and  C_15
REMARK    6  A    between atoms: C_18  and  C_19
REMARK    7  A    between atoms: C_25  and  C_26
REMARK                            x       y       z     vdW  Elec       q    Type
REMARK                         _______ _______ _______ _____ _____    ______ ____
ROOT
ATOM      1  C   UNL     1       4.377   5.842  18.149  0.00  0.00    +0.000 A 
ATOM      2  C   UNL     1       3.774   5.911  19.404  0.00  0.00    +0.000 A 
ATOM      3  C   UNL     1       2.814   6.895  19.657  0.00  0.00    +0.000 A 
ATOM      4  C   UNL     1       2.457   7.830  18.670  0.00  0.00    +0.000 A 
ATOM      5  C   UNL     1       3.118   7.776  17.432  0.00  0.00    +0.000 A 
ATOM      6  C   UNL     1       4.077   6.791  17.168  0.00  0.00    +0.000 A 
ENDROOT
BRANCH   4   7
ATOM      7  C   UNL     1       1.411   8.808  18.929  0.00  0.00    +0.000 A 
ATOM      8  C   UNL     1       0.951   9.494  20.034  0.00  0.00    +0.000 A 
ATOM      9  N   UNL     1      -0.109  10.296  19.696  0.00  0.00    +0.000 NA
ATOM     10  C   UNL     1      -0.274  10.073  18.406  0.00  0.00    +0.000 A 
ATOM     11  O   UNL     1       0.617   9.179  17.875  0.00  0.00    +0.000 OA
BRANCH  10  12
ATOM     12  C   UNL     1      -1.370  10.751  17.600  0.00  0.00    +0.000 C 
ATOM     13  C   UNL     1      -2.681  10.018  17.405  0.00  0.00    +0.000 C 
ATOM     14  C   UNL     1      -2.628  11.194  18.318  0.00  0.00    +0.000 C 
ENDBRANCH  10  12
ENDBRANCH   4   7
BRANCH   1  15
ATOM     15  S   UNL     1       5.576   4.572  17.821  0.00  0.00    +0.000 S 
ATOM     16  O   UNL     1       6.487   4.498  18.940  0.00  0.00    +0.000 OA
ATOM     17  O   UNL     1       6.060   4.775  16.470  0.00  0.00    +0.000 OA
BRANCH  15  18
ATOM     18  N   UNL     1       4.628   3.175  17.758  0.00  0.00    +0.000 N 
ATOM     19  H   UNL     1       5.193   2.331  17.832  0.00  0.00    +0.000 HD
BRANCH  18  25
ATOM     20  C   UNL     1       1.601   2.315  21.686  0.00  0.00    +0.000 C 
ATOM     21  C   UNL     1       1.861   2.732  20.261  0.00  0.00    +0.000 A 
ATOM     22  C   UNL     1       0.769   3.081  19.452  0.00  0.00    +0.000 A 
ATOM     23  C   UNL     1       0.960   3.474  18.129  0.00  0.00    +0.000 A 
ATOM     24  C   UNL     1       2.245   3.516  17.598  0.00  0.00    +0.000 A 
ATOM     25  C   UNL     1       3.346   3.160  18.381  0.00  0.00    +0.000 A 
ATOM     26  C   UNL     1       3.174   2.771  19.725  0.00  0.00    +0.000 A 
ATOM     27  C   UNL     1       4.339   2.391  20.603  0.00  0.00    +0.000 C 
ENDBRANCH  18  25
ENDBRANCH  15  18
ENDBRANCH   1  15
TORSDOF 5
ENDMDL
MODEL 9
REMARK VINA RESULT:      -8.0      4.335      6.830
REMARK  Name = 
REMARK  7 active torsions:
REMARK  status: ('A' for Active; 'I' for Inactive)
REMARK    1  A    between atoms: C_1  and  C_2
REMARK    2  A    between atoms: C_6  and  N_7
REMARK    3  A    between atoms: N_7  and  S_8
REMARK    4  A    between atoms: S_8  and  C_11
REMARK    5  A    between atoms: C_14  and  C_15
REMARK    6  A    between atoms: C_18  and  C_19
REMARK    7  A    between atoms: C_25  and  C_26
REMARK                            x       y       z     vdW  Elec       q    Type
REMARK                         _______ _______ _______ _____ _____    ______ ____
ROOT
ATOM      1  C   UNL     1       7.051   6.282  17.891  0.00  0.00    +0.000 A 
ATOM      2  C   UNL     1       8.007   6.375  18.902  0.00  0.00    +0.000 A 
ATOM      3  C   UNL     1       8.644   7.596  19.142  0.00  0.00    +0.000 A 
ATOM      4  C   UNL     1       8.348   8.732  18.368  0.00  0.00    +0.000 A 
ATOM      5  C   UNL     1       7.424   8.600  17.319  0.00  0.00    +0.000 A 
ATOM      6  C   UNL     1       6.778   7.383  17.074  0.00  0.00    +0.000 A 
ENDROOT
BRANCH   4   7
ATOM      7  C   UNL     1       8.974  10.010  18.672  0.00  0.00    +0.000 A 
ATOM      8  C   UNL     1       9.559  11.023  17.942  0.00  0.00    +0.000 A 
ATOM      9  N   UNL     1      10.017  12.013  18.772  0.00  0.00    +0.000 NA
ATOM     10  C   UNL     1       9.713  11.578  19.979  0.00  0.00    +0.000 A 
ATOM     11  O   UNL     1       9.075  10.366  19.992  0.00  0.00    +0.000 OA
BRANCH  10  12
ATOM     12  C   UNL     1      10.056  12.363  21.235  0.00  0.00    +0.000 C 
ATOM     13  C   UNL     1       9.242  13.600  21.557  0.00  0.00    +0.000 C 
ATOM     14  C   UNL     1       9.061  12.369  22.378  0.00  0.00    +0.000 C 
ENDBRANCH  10  12
ENDBRANCH   4   7
BRANCH   1  15
ATOM     15  S   UNL     1       6.222   4.736  17.607  0.00  0.00    +0.000 S 
ATOM     16  O   UNL     1       6.287   3.949  18.818  0.00  0.00    +0.000 OA
ATOM     17  O   UNL     1       6.706   4.213  16.345  0.00  0.00    +0.000 OA
BRANCH  15  18
ATOM     18  N   UNL     1       4.629   5.217  17.320  0.00  0.00    +0.000 N 
ATOM     19  H   UNL     1       4.524   5.646  16.402  0.00  0.00    +0.000 HD
BRANCH  18  25
ATOM     20  C   UNL     1       0.803   4.321  20.464  0.00  0.00    +0.000 C 
ATOM     21  C   UNL     1       1.708   3.953  19.317  0.00  0.00    +0.000 A 
ATOM     22  C   UNL     1       1.531   2.709  18.691  0.00  0.00    +0.000 A 
ATOM     23  C   UNL     1       2.343   2.325  17.626  0.00  0.00    +0.000 A 
ATOM     24  C   UNL     1       3.346   3.178  17.178  0.00  0.00    +0.000 A 
ATOM     25  C   UNL     1       3.550   4.416  17.795  0.00  0.00    +0.000 A 
ATOM     26  C   UNL     1       2.731   4.826  18.866  0.00  0.00    +0.000 A 
ATOM     27  C   UNL     1       2.915   6.157  19.549  0.00  0.00    +0.000 C 
ENDBRANCH  18  25
ENDBRANCH  15  18
ENDBRANCH   1  15
TORSDOF 5
ENDMDL
