MODEL 1
REMARK VINA RESULT:      -8.7      0.000      0.000
REMARK  Name = 
REMARK  8 active torsions:
REMARK  status: ('A' for Active; 'I' for Inactive)
REMARK    1  A    between atoms: C_1  and  C_2
REMARK    2  A    between atoms: C_5  and  C_6
REMARK    3  A    between atoms: C_10  and  C_12
REMARK    4  A    between atoms: N_15  and  C_16
REMARK    5  A    between atoms: C_16  and  C_17
REMARK    6  A    between atoms: C_22  and  C_23
REMARK    7  A    between atoms: C_27  and  C_28
REMARK    8  A    between atoms: C_31  and  C_32
REMARK                            x       y       z     vdW  Elec       q    Type
REMARK                         _______ _______ _______ _____ _____    ______ ____
ROOT
ATOM      1  C   UNL     1       0.645  13.063  21.189  0.00  0.00    +0.000 A 
ATOM      2  N   UNL     1       1.755  13.773  21.649  0.00  0.00    +0.000 NA
ATOM      3  C   UNL     1       2.694  13.820  20.741  0.00  0.00    +0.000 A 
ATOM      4  N   UNL     1       3.955  14.393  20.822  0.00  0.00    +0.000 N 
ATOM      5  C   UNL     1       4.424  14.902  22.001  0.00  0.00    +0.000 C 
ATOM      6  O   UNL     1       3.837  14.839  23.081  0.00  0.00    +0.000 OA
ATOM      7  S   UNL     1       2.295  13.101  19.247  0.00  0.00    +0.000 S 
ATOM      8  C   UNL     1       0.742  12.602  19.871  0.00  0.00    +0.000 A 
ATOM      9  H   UNL     1       4.522  14.360  19.989  0.00  0.00    +0.000 HD
ENDROOT
BRANCH   1  14
ATOM     10  C   UNL     1      -4.108  12.487  24.459  0.00  0.00    +0.000 C 
ATOM     11  C   UNL     1      -2.844  12.642  23.666  0.00  0.00    +0.000 A 
ATOM     12  C   UNL     1      -2.379  13.907  23.283  0.00  0.00    +0.000 A 
ATOM     13  C   UNL     1      -1.223  14.032  22.502  0.00  0.00    +0.000 A 
ATOM     14  C   UNL     1      -0.507  12.900  22.086  0.00  0.00    +0.000 A 
ATOM     15  C   UNL     1      -0.940  11.646  22.533  0.00  0.00    +0.000 A 
ATOM     16  C   UNL     1      -2.114  11.514  23.285  0.00  0.00    +0.000 A 
ENDBRANCH   1  14
BRANCH   8  17
ATOM     17  C   UNL     1      -0.200  11.846  19.003  0.00  0.00    +0.000 A 
ATOM     18  C   UNL     1      -1.297  12.470  18.386  0.00  0.00    +0.000 A 
ATOM     19  C   UNL     1      -2.134  11.775  17.498  0.00  0.00    +0.000 A 
ATOM     20  C   UNL     1      -1.880  10.435  17.181  0.00  0.00    +0.000 A 
ATOM     21  C   UNL     1      -2.744   9.684  16.208  0.00  0.00    +0.000 C 
ATOM     22  C   UNL     1      -0.796   9.802  17.788  0.00  0.00    +0.000 A 
ATOM     23  C   UNL     1       0.011  10.488  18.708  0.00  0.00    +0.000 A 
ENDBRANCH   8  17
BRANCH   5  24
ATOM     24  C   UNL     1       5.805  15.606  21.994  0.00  0.00    +0.000 C 
ATOM     25  C   UNL     1       6.432  15.840  20.626  0.00  0.00    +0.000 C 
ATOM     26  C   UNL     1       7.288  14.684  20.119  0.00  0.00    +0.000 C 
ATOM     27  N   UNL     1       8.259  14.165  21.083  0.00  0.00    +0.000 NA
ATOM     28  C   UNL     1       7.770  14.003  22.455  0.00  0.00    +0.000 C 
ATOM     29  C   UNL     1       6.829  15.080  22.991  0.00  0.00    +0.000 C 
BRANCH  27  30
ATOM     30  C   UNL     1       8.831  12.876  20.610  0.00  0.00    +0.000 C 
BRANCH  30  31
ATOM     31  C   UNL     1       9.949  12.999  19.591  0.00  0.00    +0.000 A 
ATOM     32  C   UNL     1      11.232  13.339  20.065  0.00  0.00    +0.000 A 
ATOM     33  C   UNL     1      12.327  13.413  19.204  0.00  0.00    +0.000 A 
ATOM     34  C   UNL     1      12.160  13.153  17.850  0.00  0.00    +0.000 A 
ATOM     35  C   UNL     1      10.902  12.813  17.359  0.00  0.00    +0.000 A 
ATOM     36  C   UNL     1       9.786  12.719  18.214  0.00  0.00    +0.000 A 
ATOM     37  C   UNL     1       8.467  12.329  17.609  0.00  0.00    +0.000 C 
ENDBRANCH  30  31
ENDBRANCH  27  30
ENDBRANCH   5  24
TORSDOF 5
ENDMDL
MODEL 2
REMARK VINA RESULT:      -8.7      0.868      1.597
REMARK  Name = 
REMARK  8 active torsions:
REMARK  status: ('A' for Active; 'I' for Inactive)
REMARK    1  A    between atoms: C_1  and  C_2
REMARK    2  A    between atoms: C_5  and  C_6
REMARK    3  A    between atoms: C_10  and  C_12
REMARK    4  A    between atoms: N_15  and  C_16
REMARK    5  A    between atoms: C_16  and  C_17
REMARK    6  A    between atoms: C_22  and  C_23
REMARK    7  A    between atoms: C_27  and  C_28
REMARK    8  A    between atoms: C_31  and  C_32
REMARK                            x       y       z     vdW  Elec       q    Type
REMARK                         _______ _______ _______ _____ _____    ______ ____
ROOT
ATOM      1  C   UNL     1       0.760  13.054  21.085  0.00  0.00    +0.000 A 
ATOM      2  N   UNL     1       1.877  13.743  21.558  0.00  0.00    +0.000 NA
ATOM      3  C   UNL     1       2.820  13.790  20.655  0.00  0.00    +0.000 A 
ATOM      4  N   UNL     1       4.088  14.345  20.750  0.00  0.00    +0.000 N 
ATOM      5  C   UNL     1       4.559  14.832  21.937  0.00  0.00    +0.000 C 
ATOM      6  O   UNL     1       3.967  14.762  23.014  0.00  0.00    +0.000 OA
ATOM      7  S   UNL     1       2.419  13.096  19.150  0.00  0.00    +0.000 S 
ATOM      8  C   UNL     1       0.856  12.609  19.761  0.00  0.00    +0.000 A 
ATOM      9  H   UNL     1       4.659  14.316  19.918  0.00  0.00    +0.000 HD
ENDROOT
BRANCH   1  14
ATOM     10  C   UNL     1      -4.014  12.484  24.324  0.00  0.00    +0.000 C 
ATOM     11  C   UNL     1      -2.745  12.639  23.539  0.00  0.00    +0.000 A 
ATOM     12  C   UNL     1      -2.286  13.902  23.145  0.00  0.00    +0.000 A 
ATOM     13  C   UNL     1      -1.125  14.026  22.372  0.00  0.00    +0.000 A 
ATOM     14  C   UNL     1      -0.398  12.894  21.975  0.00  0.00    +0.000 A 
ATOM     15  C   UNL     1      -0.827  11.642  22.433  0.00  0.00    +0.000 A 
ATOM     16  C   UNL     1      -2.006  11.511  23.177  0.00  0.00    +0.000 A 
ENDBRANCH   1  14
BRANCH   8  17
ATOM     17  C   UNL     1      -0.091  11.877  18.879  0.00  0.00    +0.000 A 
ATOM     18  C   UNL     1       0.085  10.517  18.575  0.00  0.00    +0.000 A 
ATOM     19  C   UNL     1      -0.857   9.807  17.813  0.00  0.00    +0.000 A 
ATOM     20  C   UNL     1      -2.021  10.435  17.353  0.00  0.00    +0.000 A 
ATOM     21  C   UNL     1      -3.057   9.683  16.565  0.00  0.00    +0.000 C 
ATOM     22  C   UNL     1      -2.208  11.786  17.645  0.00  0.00    +0.000 A 
ATOM     23  C   UNL     1      -1.243  12.502  18.370  0.00  0.00    +0.000 A 
ENDBRANCH   8  17
BRANCH   5  24
ATOM     24  C   UNL     1       5.949  15.518  21.945  0.00  0.00    +0.000 C 
ATOM     25  C   UNL     1       6.157  16.626  20.922  0.00  0.00    +0.000 C 
ATOM     26  C   UNL     1       6.669  16.145  19.568  0.00  0.00    +0.000 C 
ATOM     27  N   UNL     1       7.815  15.236  19.628  0.00  0.00    +0.000 NA
ATOM     28  C   UNL     1       7.748  14.194  20.658  0.00  0.00    +0.000 C 
ATOM     29  C   UNL     1       7.153  14.587  22.009  0.00  0.00    +0.000 C 
BRANCH  27  30
ATOM     30  C   UNL     1       8.053  14.602  18.304  0.00  0.00    +0.000 C 
BRANCH  30  31
ATOM     31  C   UNL     1       9.247  13.667  18.240  0.00  0.00    +0.000 A 
ATOM     32  C   UNL     1       8.991  12.290  18.085  0.00  0.00    +0.000 A 
ATOM     33  C   UNL     1      10.031  11.369  17.957  0.00  0.00    +0.000 A 
ATOM     34  C   UNL     1      11.349  11.807  17.985  0.00  0.00    +0.000 A 
ATOM     35  C   UNL     1      11.626  13.164  18.134  0.00  0.00    +0.000 A 
ATOM     36  C   UNL     1      10.590  14.111  18.252  0.00  0.00    +0.000 A 
ATOM     37  C   UNL     1      10.972  15.558  18.391  0.00  0.00    +0.000 C 
ENDBRANCH  30  31
ENDBRANCH  27  30
ENDBRANCH   5  24
TORSDOF 5
ENDMDL
MODEL 3
REMARK VINA RESULT:      -8.7      0.482      1.228
REMARK  Name = 
REMARK  8 active torsions:
REMARK  status: ('A' for Active; 'I' for Inactive)
REMARK    1  A    between atoms: C_1  and  C_2
REMARK    2  A    between atoms: C_5  and  C_6
REMARK    3  A    between atoms: C_10  and  C_12
REMARK    4  A    between atoms: N_15  and  C_16
REMARK    5  A    between atoms: C_16  and  C_17
REMARK    6  A    between atoms: C_22  and  C_23
REMARK    7  A    between atoms: C_27  and  C_28
REMARK    8  A    between atoms: C_31  and  C_32
REMARK                            x       y       z     vdW  Elec       q    Type
REMARK                         _______ _______ _______ _____ _____    ______ ____
ROOT
ATOM      1  C   UNL     1       0.656  13.082  21.008  0.00  0.00    +0.000 A 
ATOM      2  N   UNL     1       1.755  13.764  21.531  0.00  0.00    +0.000 NA
ATOM      3  C   UNL     1       2.756  13.761  20.691  0.00  0.00    +0.000 A 
ATOM      4  N   UNL     1       4.027  14.294  20.850  0.00  0.00    +0.000 N 
ATOM      5  C   UNL     1       4.431  14.811  22.049  0.00  0.00    +0.000 C 
ATOM      6  O   UNL     1       3.768  14.790  23.086  0.00  0.00    +0.000 OA
ATOM      7  S   UNL     1       2.437  13.025  19.186  0.00  0.00    +0.000 S 
ATOM      8  C   UNL     1       0.828  12.591  19.709  0.00  0.00    +0.000 A 
ATOM      9  H   UNL     1       4.649  14.225  20.059  0.00  0.00    +0.000 HD
ENDROOT
BRANCH   1  14
ATOM     10  C   UNL     1      -3.941  12.631  24.512  0.00  0.00    +0.000 C 
ATOM     11  C   UNL     1      -2.790  12.734  23.556  0.00  0.00    +0.000 A 
ATOM     12  C   UNL     1      -2.036  11.607  23.203  0.00  0.00    +0.000 A 
ATOM     13  C   UNL     1      -0.935  11.729  22.346  0.00  0.00    +0.000 A 
ATOM     14  C   UNL     1      -0.561  12.976  21.825  0.00  0.00    +0.000 A 
ATOM     15  C   UNL     1      -1.361  14.084  22.128  0.00  0.00    +0.000 A 
ATOM     16  C   UNL     1      -2.443  13.973  23.011  0.00  0.00    +0.000 A 
ENDBRANCH   1  14
BRANCH   8  17
ATOM     17  C   UNL     1      -0.077  11.848  18.791  0.00  0.00    +0.000 A 
ATOM     18  C   UNL     1       0.042  10.461  18.601  0.00  0.00    +0.000 A 
ATOM     19  C   UNL     1      -0.866   9.749  17.801  0.00  0.00    +0.000 A 
ATOM     20  C   UNL     1      -1.941  10.404  17.188  0.00  0.00    +0.000 A 
ATOM     21  C   UNL     1      -2.943   9.654  16.356  0.00  0.00    +0.000 C 
ATOM     22  C   UNL     1      -2.070  11.781  17.365  0.00  0.00    +0.000 A 
ATOM     23  C   UNL     1      -1.134  12.496  18.130  0.00  0.00    +0.000 A 
ENDBRANCH   8  17
BRANCH   5  24
ATOM     24  C   UNL     1       5.832  15.469  22.126  0.00  0.00    +0.000 C 
ATOM     25  C   UNL     1       6.530  15.719  20.796  0.00  0.00    +0.000 C 
ATOM     26  C   UNL     1       7.372  14.549  20.296  0.00  0.00    +0.000 C 
ATOM     27  N   UNL     1       8.279  13.972  21.289  0.00  0.00    +0.000 NA
ATOM     28  C   UNL     1       7.721  13.790  22.632  0.00  0.00    +0.000 C 
ATOM     29  C   UNL     1       6.790  14.883  23.154  0.00  0.00    +0.000 C 
BRANCH  27  30
ATOM     30  C   UNL     1       8.831  12.678  20.807  0.00  0.00    +0.000 C 
BRANCH  30  31
ATOM     31  C   UNL     1      10.015  12.791  19.863  0.00  0.00    +0.000 A 
ATOM     32  C   UNL     1      10.973  13.788  20.133  0.00  0.00    +0.000 A 
ATOM     33  C   UNL     1      12.121  13.920  19.351  0.00  0.00    +0.000 A 
ATOM     34  C   UNL     1      12.331  13.060  18.281  0.00  0.00    +0.000 A 
ATOM     35  C   UNL     1      11.399  12.065  17.997  0.00  0.00    +0.000 A 
ATOM     36  C   UNL     1      10.240  11.906  18.783  0.00  0.00    +0.000 A 
ATOM     37  C   UNL     1       9.292  10.797  18.422  0.00  0.00    +0.000 C 
ENDBRANCH  30  31
ENDBRANCH  27  30
ENDBRANCH   5  24
TORSDOF 5
ENDMDL
MODEL 4
REMARK VINA RESULT:      -8.5      5.026      7.858
REMARK  Name = 
REMARK  8 active torsions:
REMARK  status: ('A' for Active; 'I' for Inactive)
REMARK    1  A    between atoms: C_1  and  C_2
REMARK    2  A    between atoms: C_5  and  C_6
REMARK    3  A    between atoms: C_10  and  C_12
REMARK    4  A    between atoms: N_15  and  C_16
REMARK    5  A    between atoms: C_16  and  C_17
REMARK    6  A    between atoms: C_22  and  C_23
REMARK    7  A    between atoms: C_27  and  C_28
REMARK    8  A    between atoms: C_31  and  C_32
REMARK                            x       y       z     vdW  Elec       q    Type
REMARK                         _______ _______ _______ _____ _____    ______ ____
ROOT
ATOM      1  C   UNL     1       0.720  10.834  20.758  0.00  0.00    +0.000 A 
ATOM      2  N   UNL     1       1.157   9.579  20.332  0.00  0.00    +0.000 NA
ATOM      3  C   UNL     1       0.633   8.625  21.055  0.00  0.00    +0.000 A 
ATOM      4  N   UNL     1       0.844   7.257  20.976  0.00  0.00    +0.000 N 
ATOM      5  C   UNL     1       1.794   6.736  20.142  0.00  0.00    +0.000 C 
ATOM      6  O   UNL     1       2.578   7.399  19.463  0.00  0.00    +0.000 OA
ATOM      7  S   UNL     1      -0.483   9.142  22.238  0.00  0.00    +0.000 S 
ATOM      8  C   UNL     1      -0.201  10.813  21.812  0.00  0.00    +0.000 A 
ATOM      9  H   UNL     1       0.307   6.678  21.604  0.00  0.00    +0.000 HD
ENDROOT
BRANCH   1  14
ATOM     10  C   UNL     1       2.963  15.356  17.908  0.00  0.00    +0.000 C 
ATOM     11  C   UNL     1       2.345  14.227  18.677  0.00  0.00    +0.000 A 
ATOM     12  C   UNL     1       2.859  13.826  19.917  0.00  0.00    +0.000 A 
ATOM     13  C   UNL     1       2.300  12.739  20.600  0.00  0.00    +0.000 A 
ATOM     14  C   UNL     1       1.219  12.027  20.061  0.00  0.00    +0.000 A 
ATOM     15  C   UNL     1       0.667  12.479  18.856  0.00  0.00    +0.000 A 
ATOM     16  C   UNL     1       1.244  13.544  18.154  0.00  0.00    +0.000 A 
ENDBRANCH   1  14
BRANCH   8  17
ATOM     17  C   UNL     1      -0.923  11.895  22.533  0.00  0.00    +0.000 A 
ATOM     18  C   UNL     1      -0.431  13.210  22.571  0.00  0.00    +0.000 A 
ATOM     19  C   UNL     1      -1.156  14.248  23.179  0.00  0.00    +0.000 A 
ATOM     20  C   UNL     1      -2.413  14.002  23.745  0.00  0.00    +0.000 A 
ATOM     21  C   UNL     1      -3.219  15.106  24.370  0.00  0.00    +0.000 C 
ATOM     22  C   UNL     1      -2.912  12.701  23.717  0.00  0.00    +0.000 A 
ATOM     23  C   UNL     1      -2.164  11.659  23.148  0.00  0.00    +0.000 A 
ENDBRANCH   8  17
BRANCH   5  24
ATOM     24  C   UNL     1       1.911   5.194  20.041  0.00  0.00    +0.000 C 
ATOM     25  C   UNL     1       3.187   4.580  20.600  0.00  0.00    +0.000 C 
ATOM     26  C   UNL     1       4.335   4.492  19.599  0.00  0.00    +0.000 C 
ATOM     27  N   UNL     1       3.979   3.922  18.299  0.00  0.00    +0.000 NA
ATOM     28  C   UNL     1       2.709   4.381  17.729  0.00  0.00    +0.000 C 
ATOM     29  C   UNL     1       1.543   4.583  18.695  0.00  0.00    +0.000 C 
BRANCH  27  30
ATOM     30  C   UNL     1       5.069   4.144  17.312  0.00  0.00    +0.000 C 
BRANCH  30  31
ATOM     31  C   UNL     1       6.013   5.288  17.637  0.00  0.00    +0.000 A 
ATOM     32  C   UNL     1       7.044   5.042  18.565  0.00  0.00    +0.000 A 
ATOM     33  C   UNL     1       7.990   6.019  18.873  0.00  0.00    +0.000 A 
ATOM     34  C   UNL     1       7.922   7.264  18.263  0.00  0.00    +0.000 A 
ATOM     35  C   UNL     1       6.913   7.530  17.340  0.00  0.00    +0.000 A 
ATOM     36  C   UNL     1       5.956   6.552  17.004  0.00  0.00    +0.000 A 
ATOM     37  C   UNL     1       4.910   6.911  15.985  0.00  0.00    +0.000 C 
ENDBRANCH  30  31
ENDBRANCH  27  30
ENDBRANCH   5  24
TORSDOF 5
ENDMDL
MODEL 5
REMARK VINA RESULT:      -8.5      0.965      1.615
REMARK  Name = 
REMARK  8 active torsions:
REMARK  status: ('A' for Active; 'I' for Inactive)
REMARK    1  A    between atoms: C_1  and  C_2
REMARK    2  A    between atoms: C_5  and  C_6
REMARK    3  A    between atoms: C_10  and  C_12
REMARK    4  A    between atoms: N_15  and  C_16
REMARK    5  A    between atoms: C_16  and  C_17
REMARK    6  A    between atoms: C_22  and  C_23
REMARK    7  A    between atoms: C_27  and  C_28
REMARK    8  A    between atoms: C_31  and  C_32
REMARK                            x       y       z     vdW  Elec       q    Type
REMARK                         _______ _______ _______ _____ _____    ______ ____
ROOT
ATOM      1  C   UNL     1       0.368  12.948  20.889  0.00  0.00    +0.000 A 
ATOM      2  N   UNL     1       1.474  13.653  21.365  0.00  0.00    +0.000 NA
ATOM      3  C   UNL     1       2.449  13.644  20.496  0.00  0.00    +0.000 A 
ATOM      4  N   UNL     1       3.718  14.194  20.606  0.00  0.00    +0.000 N 
ATOM      5  C   UNL     1       4.150  14.741  21.782  0.00  0.00    +0.000 C 
ATOM      6  O   UNL     1       3.519  14.734  22.839  0.00  0.00    +0.000 OA
ATOM      7  S   UNL     1       2.095  12.873  19.016  0.00  0.00    +0.000 S 
ATOM      8  C   UNL     1       0.507  12.432  19.595  0.00  0.00    +0.000 A 
ATOM      9  H   UNL     1       4.318  14.116  19.799  0.00  0.00    +0.000 HD
ENDROOT
BRANCH   1  14
ATOM     10  C   UNL     1      -4.124  12.586  24.537  0.00  0.00    +0.000 C 
ATOM     11  C   UNL     1      -2.998  12.653  23.548  0.00  0.00    +0.000 A 
ATOM     12  C   UNL     1      -2.111  11.581  23.385  0.00  0.00    +0.000 A 
ATOM     13  C   UNL     1      -1.037  11.678  22.491  0.00  0.00    +0.000 A 
ATOM     14  C   UNL     1      -0.823  12.845  21.744  0.00  0.00    +0.000 A 
ATOM     15  C   UNL     1      -1.755  13.884  21.863  0.00  0.00    +0.000 A 
ATOM     16  C   UNL     1      -2.811  13.804  22.779  0.00  0.00    +0.000 A 
ENDBRANCH   1  14
BRANCH   8  17
ATOM     17  C   UNL     1      -0.415  11.661  18.720  0.00  0.00    +0.000 A 
ATOM     18  C   UNL     1      -1.541  12.257  18.128  0.00  0.00    +0.000 A 
ATOM     19  C   UNL     1      -2.361  11.551  17.233  0.00  0.00    +0.000 A 
ATOM     20  C   UNL     1      -2.061  10.229  16.883  0.00  0.00    +0.000 A 
ATOM     21  C   UNL     1      -2.907   9.468  15.902  0.00  0.00    +0.000 C 
ATOM     22  C   UNL     1      -0.948   9.623  17.465  0.00  0.00    +0.000 A 
ATOM     23  C   UNL     1      -0.157  10.319  18.392  0.00  0.00    +0.000 A 
ENDBRANCH   8  17
BRANCH   5  24
ATOM     24  C   UNL     1       5.546  15.416  21.804  0.00  0.00    +0.000 C 
ATOM     25  C   UNL     1       5.787  16.492  20.755  0.00  0.00    +0.000 C 
ATOM     26  C   UNL     1       6.327  15.969  19.428  0.00  0.00    +0.000 C 
ATOM     27  N   UNL     1       7.463  15.053  19.541  0.00  0.00    +0.000 NA
ATOM     28  C   UNL     1       7.363  14.042  20.598  0.00  0.00    +0.000 C 
ATOM     29  C   UNL     1       6.740  14.478  21.923  0.00  0.00    +0.000 C 
BRANCH  27  30
ATOM     30  C   UNL     1       7.727  14.380  18.242  0.00  0.00    +0.000 C 
BRANCH  30  31
ATOM     31  C   UNL     1       9.037  13.617  18.163  0.00  0.00    +0.000 A 
ATOM     32  C   UNL     1       8.970  12.217  18.020  0.00  0.00    +0.000 A 
ATOM     33  C   UNL     1      10.125  11.447  17.879  0.00  0.00    +0.000 A 
ATOM     34  C   UNL     1      11.370  12.062  17.882  0.00  0.00    +0.000 A 
ATOM     35  C   UNL     1      11.461  13.445  18.019  0.00  0.00    +0.000 A 
ATOM     36  C   UNL     1      10.306  14.241  18.149  0.00  0.00    +0.000 A 
ATOM     37  C   UNL     1      10.487  15.729  18.274  0.00  0.00    +0.000 C 
ENDBRANCH  30  31
ENDBRANCH  27  30
ENDBRANCH   5  24
TORSDOF 5
ENDMDL
MODEL 6
REMARK VINA RESULT:      -8.5      4.545     11.501
REMARK  Name = 
REMARK  8 active torsions:
REMARK  status: ('A' for Active; 'I' for Inactive)
REMARK    1  A    between atoms: C_1  and  C_2
REMARK    2  A    between atoms: C_5  and  C_6
REMARK    3  A    between atoms: C_10  and  C_12
REMARK    4  A    between atoms: N_15  and  C_16
REMARK    5  A    between atoms: C_16  and  C_17
REMARK    6  A    between atoms: C_22  and  C_23
REMARK    7  A    between atoms: C_27  and  C_28
REMARK    8  A    between atoms: C_31  and  C_32
REMARK                            x       y       z     vdW  Elec       q    Type
REMARK                         _______ _______ _______ _____ _____    ______ ____
ROOT
ATOM      1  C   UNL     1      -0.060  10.912  18.791  0.00  0.00    +0.000 A 
ATOM      2  N   UNL     1      -1.393  10.678  18.451  0.00  0.00    +0.000 NA
ATOM      3  C   UNL     1      -2.075  11.792  18.421  0.00  0.00    +0.000 A 
ATOM      4  N   UNL     1      -3.426  11.980  18.166  0.00  0.00    +0.000 N 
ATOM      5  C   UNL     1      -4.272  10.915  18.028  0.00  0.00    +0.000 C 
ATOM      6  O   UNL     1      -3.956   9.736  18.185  0.00  0.00    +0.000 OA
ATOM      7  S   UNL     1      -1.166  13.207  18.709  0.00  0.00    +0.000 S 
ATOM      8  C   UNL     1       0.276  12.258  18.977  0.00  0.00    +0.000 A 
ATOM      9  H   UNL     1      -3.756  12.933  18.147  0.00  0.00    +0.000 HD
ENDROOT
BRANCH   1  14
ATOM     10  C   UNL     1       3.270   6.180  19.151  0.00  0.00    +0.000 C 
ATOM     11  C   UNL     1       2.458   7.439  19.077  0.00  0.00    +0.000 A 
ATOM     12  C   UNL     1       1.756   7.915  20.192  0.00  0.00    +0.000 A 
ATOM     13  C   UNL     1       0.964   9.066  20.094  0.00  0.00    +0.000 A 
ATOM     14  C   UNL     1       0.854   9.765  18.883  0.00  0.00    +0.000 A 
ATOM     15  C   UNL     1       1.614   9.321  17.794  0.00  0.00    +0.000 A 
ATOM     16  C   UNL     1       2.380   8.152  17.879  0.00  0.00    +0.000 A 
ENDBRANCH   1  14
BRANCH   8  17
ATOM     17  C   UNL     1       1.558  12.933  19.313  0.00  0.00    +0.000 A 
ATOM     18  C   UNL     1       2.446  13.366  18.314  0.00  0.00    +0.000 A 
ATOM     19  C   UNL     1       3.614  14.080  18.629  0.00  0.00    +0.000 A 
ATOM     20  C   UNL     1       3.913  14.405  19.958  0.00  0.00    +0.000 A 
ATOM     21  C   UNL     1       5.140  15.197  20.312  0.00  0.00    +0.000 C 
ATOM     22  C   UNL     1       3.042  13.979  20.960  0.00  0.00    +0.000 A 
ATOM     23  C   UNL     1       1.899  13.228  20.644  0.00  0.00    +0.000 A 
ENDBRANCH   8  17
BRANCH   5  24
ATOM     24  C   UNL     1      -5.750  11.201  17.655  0.00  0.00    +0.000 C 
ATOM     25  C   UNL     1      -6.039  12.573  17.063  0.00  0.00    +0.000 C 
ATOM     26  C   UNL     1      -6.343  13.653  18.097  0.00  0.00    +0.000 C 
ATOM     27  N   UNL     1      -7.328  13.277  19.112  0.00  0.00    +0.000 NA
ATOM     28  C   UNL     1      -7.188  11.927  19.667  0.00  0.00    +0.000 C 
ATOM     29  C   UNL     1      -6.789  10.815  18.699  0.00  0.00    +0.000 C 
BRANCH  27  30
ATOM     30  C   UNL     1      -7.340  14.265  20.223  0.00  0.00    +0.000 C 
BRANCH  30  31
ATOM     31  C   UNL     1      -6.908  13.724  21.575  0.00  0.00    +0.000 A 
ATOM     32  C   UNL     1      -7.917  13.286  22.456  0.00  0.00    +0.000 A 
ATOM     33  C   UNL     1      -7.603  12.719  23.691  0.00  0.00    +0.000 A 
ATOM     34  C   UNL     1      -6.275  12.583  24.072  0.00  0.00    +0.000 A 
ATOM     35  C   UNL     1      -5.260  13.007  23.217  0.00  0.00    +0.000 A 
ATOM     36  C   UNL     1      -5.556  13.569  21.959  0.00  0.00    +0.000 A 
ATOM     37  C   UNL     1      -4.405  13.984  21.086  0.00  0.00    +0.000 C 
ENDBRANCH  30  31
ENDBRANCH  27  30
ENDBRANCH   5  24
TORSDOF 5
ENDMDL
MODEL 7
REMARK VINA RESULT:      -8.4      0.842      1.329
REMARK  Name = 
REMARK  8 active torsions:
REMARK  status: ('A' for Active; 'I' for Inactive)
REMARK    1  A    between atoms: C_1  and  C_2
REMARK    2  A    between atoms: C_5  and  C_6
REMARK    3  A    between atoms: C_10  and  C_12
REMARK    4  A    between atoms: N_15  and  C_16
REMARK    5  A    between atoms: C_16  and  C_17
REMARK    6  A    between atoms: C_22  and  C_23
REMARK    7  A    between atoms: C_27  and  C_28
REMARK    8  A    between atoms: C_31  and  C_32
REMARK                            x       y       z     vdW  Elec       q    Type
REMARK                         _______ _______ _______ _____ _____    ______ ____
ROOT
ATOM      1  C   UNL     1       0.835  13.155  21.109  0.00  0.00    +0.000 A 
ATOM      2  N   UNL     1       1.929  13.872  21.597  0.00  0.00    +0.000 NA
ATOM      3  C   UNL     1       2.878  13.951  20.702  0.00  0.00    +0.000 A 
ATOM      4  N   UNL     1       4.129  14.541  20.810  0.00  0.00    +0.000 N 
ATOM      5  C   UNL     1       4.576  15.033  22.004  0.00  0.00    +0.000 C 
ATOM      6  O   UNL     1       3.977  14.940  23.076  0.00  0.00    +0.000 OA
ATOM      7  S   UNL     1       2.508  13.256  19.189  0.00  0.00    +0.000 S 
ATOM      8  C   UNL     1       0.955  12.722  19.784  0.00  0.00    +0.000 A 
ATOM      9  H   UNL     1       4.707  14.533  19.984  0.00  0.00    +0.000 HD
ENDROOT
BRANCH   1  14
ATOM     10  C   UNL     1      -3.948  12.456  24.310  0.00  0.00    +0.000 C 
ATOM     11  C   UNL     1      -2.676  12.641  23.536  0.00  0.00    +0.000 A 
ATOM     12  C   UNL     1      -2.199  13.919  23.219  0.00  0.00    +0.000 A 
ATOM     13  C   UNL     1      -1.036  14.073  22.455  0.00  0.00    +0.000 A 
ATOM     14  C   UNL     1      -0.325  12.958  21.989  0.00  0.00    +0.000 A 
ATOM     15  C   UNL     1      -0.771  11.686  22.370  0.00  0.00    +0.000 A 
ATOM     16  C   UNL     1      -1.952  11.527  23.106  0.00  0.00    +0.000 A 
ENDBRANCH   1  14
BRANCH   8  17
ATOM     17  C   UNL     1       0.035  11.969  18.889  0.00  0.00    +0.000 A 
ATOM     18  C   UNL     1       0.204  10.596  18.644  0.00  0.00    +0.000 A 
ATOM     19  C   UNL     1      -0.714   9.870  17.869  0.00  0.00    +0.000 A 
ATOM     20  C   UNL     1      -1.848  10.495  17.337  0.00  0.00    +0.000 A 
ATOM     21  C   UNL     1      -2.859   9.727  16.533  0.00  0.00    +0.000 C 
ATOM     22  C   UNL     1      -2.027  11.858  17.569  0.00  0.00    +0.000 A 
ATOM     23  C   UNL     1      -1.084  12.589  18.308  0.00  0.00    +0.000 A 
ENDBRANCH   8  17
BRANCH   5  24
ATOM     24  C   UNL     1       5.946  15.758  22.029  0.00  0.00    +0.000 C 
ATOM     25  C   UNL     1       6.100  16.934  21.075  0.00  0.00    +0.000 C 
ATOM     26  C   UNL     1       6.596  16.557  19.683  0.00  0.00    +0.000 C 
ATOM     27  N   UNL     1       7.767  15.680  19.660  0.00  0.00    +0.000 NA
ATOM     28  C   UNL     1       7.752  14.573  20.622  0.00  0.00    +0.000 C 
ATOM     29  C   UNL     1       7.177  14.861  22.008  0.00  0.00    +0.000 C 
BRANCH  27  30
ATOM     30  C   UNL     1       7.993  15.139  18.294  0.00  0.00    +0.000 C 
BRANCH  30  31
ATOM     31  C   UNL     1       9.224  14.263  18.140  0.00  0.00    +0.000 A 
ATOM     32  C   UNL     1      10.465  14.807  18.527  0.00  0.00    +0.000 A 
ATOM     33  C   UNL     1      11.635  14.050  18.476  0.00  0.00    +0.000 A 
ATOM     34  C   UNL     1      11.589  12.734  18.032  0.00  0.00    +0.000 A 
ATOM     35  C   UNL     1      10.373  12.175  17.647  0.00  0.00    +0.000 A 
ATOM     36  C   UNL     1       9.177  12.919  17.705  0.00  0.00    +0.000 A 
ATOM     37  C   UNL     1       7.903  12.237  17.290  0.00  0.00    +0.000 C 
ENDBRANCH  30  31
ENDBRANCH  27  30
ENDBRANCH   5  24
TORSDOF 5
ENDMDL
MODEL 8
REMARK VINA RESULT:      -8.3      0.693      1.486
REMARK  Name = 
REMARK  8 active torsions:
REMARK  status: ('A' for Active; 'I' for Inactive)
REMARK    1  A    between atoms: C_1  and  C_2
REMARK    2  A    between atoms: C_5  and  C_6
REMARK    3  A    between atoms: C_10  and  C_12
REMARK    4  A    between atoms: N_15  and  C_16
REMARK    5  A    between atoms: C_16  and  C_17
REMARK    6  A    between atoms: C_22  and  C_23
REMARK    7  A    between atoms: C_27  and  C_28
REMARK    8  A    between atoms: C_31  and  C_32
REMARK                            x       y       z     vdW  Elec       q    Type
REMARK                         _______ _______ _______ _____ _____    ______ ____
ROOT
ATOM      1  C   UNL     1       0.389  13.041  21.026  0.00  0.00    +0.000 A 
ATOM      2  N   UNL     1       1.481  13.763  21.508  0.00  0.00    +0.000 NA
ATOM      3  C   UNL     1       2.463  13.765  20.646  0.00  0.00    +0.000 A 
ATOM      4  N   UNL     1       3.723  14.333  20.763  0.00  0.00    +0.000 N 
ATOM      5  C   UNL     1       4.139  14.890  21.940  0.00  0.00    +0.000 C 
ATOM      6  O   UNL     1       3.500  14.878  22.992  0.00  0.00    +0.000 OA
ATOM      7  S   UNL     1       2.131  12.984  19.166  0.00  0.00    +0.000 S 
ATOM      8  C   UNL     1       0.545  12.522  19.735  0.00  0.00    +0.000 A 
ATOM      9  H   UNL     1       4.330  14.260  19.960  0.00  0.00    +0.000 HD
ENDROOT
BRANCH   1  14
ATOM     10  C   UNL     1      -4.119  12.585  24.643  0.00  0.00    +0.000 C 
ATOM     11  C   UNL     1      -2.991  12.684  23.660  0.00  0.00    +0.000 A 
ATOM     12  C   UNL     1      -2.169  11.582  23.386  0.00  0.00    +0.000 A 
ATOM     13  C   UNL     1      -1.090  11.704  22.501  0.00  0.00    +0.000 A 
ATOM     14  C   UNL     1      -0.807  12.925  21.873  0.00  0.00    +0.000 A 
ATOM     15  C   UNL     1      -1.675  14.000  22.099  0.00  0.00    +0.000 A 
ATOM     16  C   UNL     1      -2.735  13.892  23.008  0.00  0.00    +0.000 A 
ENDBRANCH   1  14
BRANCH   8  17
ATOM     17  C   UNL     1      -0.360  11.735  18.856  0.00  0.00    +0.000 A 
ATOM     18  C   UNL     1      -1.504  12.307  18.275  0.00  0.00    +0.000 A 
ATOM     19  C   UNL     1      -2.309  11.588  17.377  0.00  0.00    +0.000 A 
ATOM     20  C   UNL     1      -1.975  10.277  17.012  0.00  0.00    +0.000 A 
ATOM     21  C   UNL     1      -2.804   9.503  16.027  0.00  0.00    +0.000 C 
ATOM     22  C   UNL     1      -0.843   9.696  17.583  0.00  0.00    +0.000 A 
ATOM     23  C   UNL     1      -0.067  10.404  18.514  0.00  0.00    +0.000 A 
ENDBRANCH   8  17
BRANCH   5  24
ATOM     24  C   UNL     1       5.525  15.585  21.969  0.00  0.00    +0.000 C 
ATOM     25  C   UNL     1       6.336  15.519  20.683  0.00  0.00    +0.000 C 
ATOM     26  C   UNL     1       7.226  14.285  20.561  0.00  0.00    +0.000 C 
ATOM     27  N   UNL     1       8.045  13.995  21.739  0.00  0.00    +0.000 NA
ATOM     28  C   UNL     1       7.371  14.134  23.034  0.00  0.00    +0.000 C 
ATOM     29  C   UNL     1       6.391  15.296  23.188  0.00  0.00    +0.000 C 
BRANCH  27  30
ATOM     30  C   UNL     1       8.644  12.639  21.641  0.00  0.00    +0.000 C 
BRANCH  30  31
ATOM     31  C   UNL     1       9.558  12.419  20.448  0.00  0.00    +0.000 A 
ATOM     32  C   UNL     1       9.308  11.298  19.631  0.00  0.00    +0.000 A 
ATOM     33  C   UNL     1      10.061  11.057  18.482  0.00  0.00    +0.000 A 
ATOM     34  C   UNL     1      11.081  11.930  18.128  0.00  0.00    +0.000 A 
ATOM     35  C   UNL     1      11.345  13.046  18.919  0.00  0.00    +0.000 A 
ATOM     36  C   UNL     1      10.587  13.315  20.076  0.00  0.00    +0.000 A 
ATOM     37  C   UNL     1      10.921  14.550  20.865  0.00  0.00    +0.000 C 
ENDBRANCH  30  31
ENDBRANCH  27  30
ENDBRANCH   5  24
TORSDOF 5
ENDMDL
MODEL 9
REMARK VINA RESULT:      -8.2      4.413     11.164
REMARK  Name = 
REMARK  8 active torsions:
REMARK  status: ('A' for Active; 'I' for Inactive)
REMARK    1  A    between atoms: C_1  and  C_2
REMARK    2  A    between atoms: C_5  and  C_6
REMARK    3  A    between atoms: C_10  and  C_12
REMARK    4  A    between atoms: N_15  and  C_16
REMARK    5  A    between atoms: C_16  and  C_17
REMARK    6  A    between atoms: C_22  and  C_23
REMARK    7  A    between atoms: C_27  and  C_28
REMARK    8  A    between atoms: C_31  and  C_32
REMARK                            x       y       z     vdW  Elec       q    Type
REMARK                         _______ _______ _______ _____ _____    ______ ____
ROOT
ATOM      1  C   UNL     1       0.051  10.885  18.751  0.00  0.00    +0.000 A 
ATOM      2  N   UNL     1      -1.286  10.658  18.421  0.00  0.00    +0.000 NA
ATOM      3  C   UNL     1      -1.958  11.777  18.380  0.00  0.00    +0.000 A 
ATOM      4  N   UNL     1      -3.309  11.972  18.130  0.00  0.00    +0.000 N 
ATOM      5  C   UNL     1      -4.164  10.913  18.010  0.00  0.00    +0.000 C 
ATOM      6  O   UNL     1      -3.857   9.733  18.181  0.00  0.00    +0.000 OA
ATOM      7  S   UNL     1      -1.036  13.187  18.645  0.00  0.00    +0.000 S 
ATOM      8  C   UNL     1       0.399  12.230  18.918  0.00  0.00    +0.000 A 
ATOM      9  H   UNL     1      -3.631  12.927  18.100  0.00  0.00    +0.000 HD
ENDROOT
BRANCH   1  14
ATOM     10  C   UNL     1       3.346   6.129  19.130  0.00  0.00    +0.000 C 
ATOM     11  C   UNL     1       2.542   7.394  19.054  0.00  0.00    +0.000 A 
ATOM     12  C   UNL     1       1.790   7.841  20.148  0.00  0.00    +0.000 A 
ATOM     13  C   UNL     1       1.007   8.998  20.047  0.00  0.00    +0.000 A 
ATOM     14  C   UNL     1       0.957   9.732  18.853  0.00  0.00    +0.000 A 
ATOM     15  C   UNL     1       1.766   9.316  17.788  0.00  0.00    +0.000 A 
ATOM     16  C   UNL     1       2.524   8.141  17.875  0.00  0.00    +0.000 A 
ENDBRANCH   1  14
BRANCH   8  17
ATOM     17  C   UNL     1       1.689  12.899  19.238  0.00  0.00    +0.000 A 
ATOM     18  C   UNL     1       2.568  13.325  18.229  0.00  0.00    +0.000 A 
ATOM     19  C   UNL     1       3.743  14.032  18.530  0.00  0.00    +0.000 A 
ATOM     20  C   UNL     1       4.059  14.359  19.854  0.00  0.00    +0.000 A 
ATOM     21  C   UNL     1       5.294  15.145  20.193  0.00  0.00    +0.000 C 
ATOM     22  C   UNL     1       3.196  13.940  20.867  0.00  0.00    +0.000 A 
ATOM     23  C   UNL     1       2.046  13.195  20.564  0.00  0.00    +0.000 A 
ENDBRANCH   8  17
BRANCH   5  24
ATOM     24  C   UNL     1      -5.642  11.206  17.641  0.00  0.00    +0.000 C 
ATOM     25  C   UNL     1      -6.003  12.669  17.429  0.00  0.00    +0.000 C 
ATOM     26  C   UNL     1      -6.426  13.404  18.697  0.00  0.00    +0.000 C 
ATOM     27  N   UNL     1      -7.422  12.709  19.511  0.00  0.00    +0.000 NA
ATOM     28  C   UNL     1      -7.210  11.268  19.685  0.00  0.00    +0.000 C 
ATOM     29  C   UNL     1      -6.694  10.489  18.478  0.00  0.00    +0.000 C 
BRANCH  27  30
ATOM     30  C   UNL     1      -7.551  13.350  20.846  0.00  0.00    +0.000 C 
BRANCH  30  31
ATOM     31  C   UNL     1      -6.244  13.794  21.480  0.00  0.00    +0.000 A 
ATOM     32  C   UNL     1      -5.337  12.792  21.876  0.00  0.00    +0.000 A 
ATOM     33  C   UNL     1      -4.089  13.114  22.409  0.00  0.00    +0.000 A 
ATOM     34  C   UNL     1      -3.725  14.445  22.561  0.00  0.00    +0.000 A 
ATOM     35  C   UNL     1      -4.604  15.454  22.174  0.00  0.00    +0.000 A 
ATOM     36  C   UNL     1      -5.864  15.149  21.620  0.00  0.00    +0.000 A 
ATOM     37  C   UNL     1      -6.748  16.294  21.210  0.00  0.00    +0.000 C 
ENDBRANCH  30  31
ENDBRANCH  27  30
ENDBRANCH   5  24
TORSDOF 5
ENDMDL
