MODEL 1
REMARK VINA RESULT:      -8.1      0.000      0.000
REMARK  Name = 
REMARK  8 active torsions:
REMARK  status: ('A' for Active; 'I' for Inactive)
REMARK    1  A    between atoms: N_3  and  C_4
REMARK    2  A    between atoms: C_4  and  C_5
REMARK    3  A    between atoms: C_5  and  C_6
REMARK    4  A    between atoms: C_6  and  C_7
REMARK    5  A    between atoms: N_19  and  C_20
REMARK    6  A    between atoms: C_20  and  C_21
REMARK    7  A    between atoms: C_21  and  C_22
REMARK    8  A    between atoms: C_22  and  C_23
REMARK                            x       y       z     vdW  Elec       q    Type
REMARK                         _______ _______ _______ _____ _____    ______ ____
ROOT
ATOM      1  N   UNL     1       5.058   7.235  17.622  0.00  0.00    +0.000 NA
ATOM      2  C   UNL     1       4.406   6.200  18.019  0.00  0.00    +0.000 A 
ATOM      3  N   UNL     1       4.894   4.918  18.278  0.00  0.00    +0.000 N 
ATOM      4  C   UNL     1       3.826   4.103  18.676  0.00  0.00    +0.000 A 
ATOM      5  C   UNL     1       3.790   2.769  19.034  0.00  0.00    +0.000 A 
ATOM      6  C   UNL     1       2.556   2.222  19.391  0.00  0.00    +0.000 A 
ATOM      7  C   UNL     1       1.393   3.009  19.386  0.00  0.00    +0.000 A 
ATOM      8  C   UNL     1       1.438   4.363  19.026  0.00  0.00    +0.000 A 
ATOM      9  C   UNL     1       2.660   4.901  18.674  0.00  0.00    +0.000 A 
ATOM     10  N   UNL     1       3.034   6.178  18.268  0.00  0.00    +0.000 N 
ATOM     11  H   UNL     1       6.046   6.999  17.510  0.00  0.00    +0.000 HD
ENDROOT
BRANCH   3  12
ATOM     12  C   UNL     1       6.247   4.432  18.159  0.00  0.00    +0.000 C 
BRANCH  12  13
ATOM     13  C   UNL     1       6.740   4.437  16.713  0.00  0.00    +0.000 C 
BRANCH  13  14
ATOM     14  C   UNL     1       5.683   4.012  15.688  0.00  0.00    +0.000 C 
BRANCH  14  15
ATOM     15  C   UNL     1       6.223   4.173  14.286  0.00  0.00    +0.000 A 
ATOM     16  C   UNL     1       5.742   3.373  13.240  0.00  0.00    +0.000 A 
ATOM     17  C   UNL     1       6.301   3.465  11.965  0.00  0.00    +0.000 A 
ATOM     18  C   UNL     1       7.345   4.357  11.722  0.00  0.00    +0.000 A 
ATOM     19  C   UNL     1       7.823   5.165  12.753  0.00  0.00    +0.000 A 
ATOM     20  C   UNL     1       7.266   5.074  14.029  0.00  0.00    +0.000 A 
ENDBRANCH  14  15
ENDBRANCH  13  14
ENDBRANCH  12  13
ENDBRANCH   3  12
BRANCH  10  21
ATOM     21  C   UNL     1       2.163   7.322  18.113  0.00  0.00    +0.000 C 
BRANCH  21  22
ATOM     22  C   UNL     1       2.001   8.106  19.415  0.00  0.00    +0.000 C 
BRANCH  22  23
ATOM     23  C   UNL     1       1.145   9.366  19.271  0.00  0.00    +0.000 C 
BRANCH  23  24
ATOM     24  C   UNL     1       0.530   9.746  20.595  0.00  0.00    +0.000 A 
ATOM     25  C   UNL     1       0.593   8.869  21.687  0.00  0.00    +0.000 A 
ATOM     26  C   UNL     1      -0.043   9.191  22.887  0.00  0.00    +0.000 A 
ATOM     27  C   UNL     1      -0.745  10.389  23.006  0.00  0.00    +0.000 A 
ATOM     28  C   UNL     1      -0.806  11.271  21.930  0.00  0.00    +0.000 A 
ATOM     29  C   UNL     1      -0.172  10.951  20.729  0.00  0.00    +0.000 A 
ENDBRANCH  23  24
ENDBRANCH  22  23
ENDBRANCH  21  22
ENDBRANCH  10  21
TORSDOF 8
ENDMDL
MODEL 2
REMARK VINA RESULT:      -8.0      2.121      7.827
REMARK  Name = 
REMARK  8 active torsions:
REMARK  status: ('A' for Active; 'I' for Inactive)
REMARK    1  A    between atoms: N_3  and  C_4
REMARK    2  A    between atoms: C_4  and  C_5
REMARK    3  A    between atoms: C_5  and  C_6
REMARK    4  A    between atoms: C_6  and  C_7
REMARK    5  A    between atoms: N_19  and  C_20
REMARK    6  A    between atoms: C_20  and  C_21
REMARK    7  A    between atoms: C_21  and  C_22
REMARK    8  A    between atoms: C_22  and  C_23
REMARK                            x       y       z     vdW  Elec       q    Type
REMARK                         _______ _______ _______ _____ _____    ______ ____
ROOT
ATOM      1  N   UNL     1       3.912   7.123  17.266  0.00  0.00    +0.000 NA
ATOM      2  C   UNL     1       3.304   6.199  17.924  0.00  0.00    +0.000 A 
ATOM      3  N   UNL     1       2.556   6.322  19.095  0.00  0.00    +0.000 N 
ATOM      4  C   UNL     1       2.089   5.054  19.466  0.00  0.00    +0.000 A 
ATOM      5  C   UNL     1       1.318   4.651  20.539  0.00  0.00    +0.000 A 
ATOM      6  C   UNL     1       1.007   3.294  20.646  0.00  0.00    +0.000 A 
ATOM      7  C   UNL     1       1.465   2.374  19.689  0.00  0.00    +0.000 A 
ATOM      8  C   UNL     1       2.244   2.791  18.601  0.00  0.00    +0.000 A 
ATOM      9  C   UNL     1       2.550   4.133  18.497  0.00  0.00    +0.000 A 
ATOM     10  N   UNL     1       3.291   4.851  17.565  0.00  0.00    +0.000 N 
ATOM     11  H   UNL     1       3.774   8.023  17.728  0.00  0.00    +0.000 HD
ENDROOT
BRANCH   3  12
ATOM     12  C   UNL     1       2.282   7.511  19.864  0.00  0.00    +0.000 C 
BRANCH  12  13
ATOM     13  C   UNL     1       1.479   8.542  19.070  0.00  0.00    +0.000 C 
BRANCH  13  14
ATOM     14  C   UNL     1       0.789   9.601  19.936  0.00  0.00    +0.000 C 
BRANCH  14  15
ATOM     15  C   UNL     1      -0.338  10.249  19.165  0.00  0.00    +0.000 A 
ATOM     16  C   UNL     1      -0.764   9.717  17.941  0.00  0.00    +0.000 A 
ATOM     17  C   UNL     1      -1.745  10.366  17.191  0.00  0.00    +0.000 A 
ATOM     18  C   UNL     1      -2.312  11.551  17.657  0.00  0.00    +0.000 A 
ATOM     19  C   UNL     1      -1.903  12.083  18.879  0.00  0.00    +0.000 A 
ATOM     20  C   UNL     1      -0.921  11.436  19.630  0.00  0.00    +0.000 A 
ENDBRANCH  14  15
ENDBRANCH  13  14
ENDBRANCH  12  13
ENDBRANCH   3  12
BRANCH  10  21
ATOM     21  C   UNL     1       3.960   4.316  16.399  0.00  0.00    +0.000 C 
BRANCH  21  22
ATOM     22  C   UNL     1       5.303   3.674  16.746  0.00  0.00    +0.000 C 
BRANCH  22  23
ATOM     23  C   UNL     1       6.504   4.389  16.125  0.00  0.00    +0.000 C 
BRANCH  23  24
ATOM     24  C   UNL     1       7.060   5.421  17.076  0.00  0.00    +0.000 A 
ATOM     25  C   UNL     1       7.136   6.769  16.699  0.00  0.00    +0.000 A 
ATOM     26  C   UNL     1       7.721   7.707  17.550  0.00  0.00    +0.000 A 
ATOM     27  C   UNL     1       8.233   7.307  18.783  0.00  0.00    +0.000 A 
ATOM     28  C   UNL     1       8.154   5.972  19.171  0.00  0.00    +0.000 A 
ATOM     29  C   UNL     1       7.570   5.032  18.321  0.00  0.00    +0.000 A 
ENDBRANCH  23  24
ENDBRANCH  22  23
ENDBRANCH  21  22
ENDBRANCH  10  21
TORSDOF 8
ENDMDL
MODEL 3
REMARK VINA RESULT:      -8.0      4.133      9.704
REMARK  Name = 
REMARK  8 active torsions:
REMARK  status: ('A' for Active; 'I' for Inactive)
REMARK    1  A    between atoms: N_3  and  C_4
REMARK    2  A    between atoms: C_4  and  C_5
REMARK    3  A    between atoms: C_5  and  C_6
REMARK    4  A    between atoms: C_6  and  C_7
REMARK    5  A    between atoms: N_19  and  C_20
REMARK    6  A    between atoms: C_20  and  C_21
REMARK    7  A    between atoms: C_21  and  C_22
REMARK    8  A    between atoms: C_22  and  C_23
REMARK                            x       y       z     vdW  Elec       q    Type
REMARK                         _______ _______ _______ _____ _____    ______ ____
ROOT
ATOM      1  N   UNL     1       2.390  11.414  17.453  0.00  0.00    +0.000 NA
ATOM      2  C   UNL     1       1.765  11.069  18.523  0.00  0.00    +0.000 A 
ATOM      3  N   UNL     1       1.325  11.883  19.567  0.00  0.00    +0.000 N 
ATOM      4  C   UNL     1       0.704  11.080  20.533  0.00  0.00    +0.000 A 
ATOM      5  C   UNL     1       0.115  11.406  21.740  0.00  0.00    +0.000 A 
ATOM      6  C   UNL     1      -0.432  10.370  22.500  0.00  0.00    +0.000 A 
ATOM      7  C   UNL     1      -0.382   9.042  22.046  0.00  0.00    +0.000 A 
ATOM      8  C   UNL     1       0.213   8.720  20.819  0.00  0.00    +0.000 A 
ATOM      9  C   UNL     1       0.752   9.745  20.069  0.00  0.00    +0.000 A 
ATOM     10  N   UNL     1       1.406   9.759  18.841  0.00  0.00    +0.000 N 
ATOM     11  H   UNL     1       2.538  12.425  17.450  0.00  0.00    +0.000 HD
ENDROOT
BRANCH   3  12
ATOM     12  C   UNL     1       1.465  13.311  19.711  0.00  0.00    +0.000 C 
BRANCH  12  13
ATOM     13  C   UNL     1       0.360  14.078  18.986  0.00  0.00    +0.000 C 
BRANCH  13  14
ATOM     14  C   UNL     1       0.065  15.461  19.576  0.00  0.00    +0.000 C 
BRANCH  14  15
ATOM     15  C   UNL     1       0.283  16.531  18.531  0.00  0.00    +0.000 A 
ATOM     16  C   UNL     1       1.572  16.812  18.057  0.00  0.00    +0.000 A 
ATOM     17  C   UNL     1       1.781  17.857  17.156  0.00  0.00    +0.000 A 
ATOM     18  C   UNL     1       0.706  18.629  16.718  0.00  0.00    +0.000 A 
ATOM     19  C   UNL     1      -0.581  18.350  17.175  0.00  0.00    +0.000 A 
ATOM     20  C   UNL     1      -0.792  17.306  18.077  0.00  0.00    +0.000 A 
ENDBRANCH  14  15
ENDBRANCH  13  14
ENDBRANCH  12  13
ENDBRANCH   3  12
BRANCH  10  21
ATOM     21  C   UNL     1       1.689   8.615  18.003  0.00  0.00    +0.000 C 
BRANCH  21  22
ATOM     22  C   UNL     1       2.815   7.749  18.566  0.00  0.00    +0.000 C 
BRANCH  22  23
ATOM     23  C   UNL     1       2.957   6.396  17.867  0.00  0.00    +0.000 C 
BRANCH  23  24
ATOM     24  C   UNL     1       2.239   5.318  18.641  0.00  0.00    +0.000 A 
ATOM     25  C   UNL     1       2.166   5.375  20.040  0.00  0.00    +0.000 A 
ATOM     26  C   UNL     1       1.569   4.338  20.758  0.00  0.00    +0.000 A 
ATOM     27  C   UNL     1       1.040   3.238  20.086  0.00  0.00    +0.000 A 
ATOM     28  C   UNL     1       1.100   3.175  18.695  0.00  0.00    +0.000 A 
ATOM     29  C   UNL     1       1.698   4.211  17.976  0.00  0.00    +0.000 A 
ENDBRANCH  23  24
ENDBRANCH  22  23
ENDBRANCH  21  22
ENDBRANCH  10  21
TORSDOF 8
ENDMDL
MODEL 4
REMARK VINA RESULT:      -7.9      1.830      2.882
REMARK  Name = 
REMARK  8 active torsions:
REMARK  status: ('A' for Active; 'I' for Inactive)
REMARK    1  A    between atoms: N_3  and  C_4
REMARK    2  A    between atoms: C_4  and  C_5
REMARK    3  A    between atoms: C_5  and  C_6
REMARK    4  A    between atoms: C_6  and  C_7
REMARK    5  A    between atoms: N_19  and  C_20
REMARK    6  A    between atoms: C_20  and  C_21
REMARK    7  A    between atoms: C_21  and  C_22
REMARK    8  A    between atoms: C_22  and  C_23
REMARK                            x       y       z     vdW  Elec       q    Type
REMARK                         _______ _______ _______ _____ _____    ______ ____
ROOT
ATOM      1  N   UNL     1       3.767   7.244  17.741  0.00  0.00    +0.000 NA
ATOM      2  C   UNL     1       3.252   6.176  18.239  0.00  0.00    +0.000 A 
ATOM      3  N   UNL     1       3.254   4.886  17.708  0.00  0.00    +0.000 N 
ATOM      4  C   UNL     1       2.565   4.037  18.584  0.00  0.00    +0.000 A 
ATOM      5  C   UNL     1       2.292   2.685  18.508  0.00  0.00    +0.000 A 
ATOM      6  C   UNL     1       1.571   2.104  19.554  0.00  0.00    +0.000 A 
ATOM      7  C   UNL     1       1.142   2.876  20.645  0.00  0.00    +0.000 A 
ATOM      8  C   UNL     1       1.426   4.247  20.718  0.00  0.00    +0.000 A 
ATOM      9  C   UNL     1       2.140   4.818  19.684  0.00  0.00    +0.000 A 
ATOM     10  N   UNL     1       2.567   6.122  19.454  0.00  0.00    +0.000 N 
ATOM     11  H   UNL     1       4.213   7.028  16.847  0.00  0.00    +0.000 HD
ENDROOT
BRANCH   3  12
ATOM     12  C   UNL     1       3.828   4.428  16.466  0.00  0.00    +0.000 C 
BRANCH  12  13
ATOM     13  C   UNL     1       5.089   3.593  16.684  0.00  0.00    +0.000 C 
BRANCH  13  14
ATOM     14  C   UNL     1       6.345   4.167  16.018  0.00  0.00    +0.000 C 
BRANCH  14  15
ATOM     15  C   UNL     1       7.001   5.178  16.928  0.00  0.00    +0.000 A 
ATOM     16  C   UNL     1       7.504   4.792  18.179  0.00  0.00    +0.000 A 
ATOM     17  C   UNL     1       8.032   5.743  19.052  0.00  0.00    +0.000 A 
ATOM     18  C   UNL     1       8.065   7.088  18.685  0.00  0.00    +0.000 A 
ATOM     19  C   UNL     1       7.577   7.481  17.440  0.00  0.00    +0.000 A 
ATOM     20  C   UNL     1       7.048   6.531  16.565  0.00  0.00    +0.000 A 
ENDBRANCH  14  15
ENDBRANCH  13  14
ENDBRANCH  12  13
ENDBRANCH   3  12
BRANCH  10  21
ATOM     21  C   UNL     1       2.349   7.264  20.313  0.00  0.00    +0.000 C 
BRANCH  21  22
ATOM     22  C   UNL     1       0.967   7.885  20.112  0.00  0.00    +0.000 C 
BRANCH  22  23
ATOM     23  C   UNL     1       1.002   9.393  19.860  0.00  0.00    +0.000 C 
BRANCH  23  24
ATOM     24  C   UNL     1       0.282  10.134  20.959  0.00  0.00    +0.000 A 
ATOM     25  C   UNL     1      -0.067   9.479  22.148  0.00  0.00    +0.000 A 
ATOM     26  C   UNL     1      -0.801  10.144  23.132  0.00  0.00    +0.000 A 
ATOM     27  C   UNL     1      -1.190  11.468  22.936  0.00  0.00    +0.000 A 
ATOM     28  C   UNL     1      -0.840  12.131  21.762  0.00  0.00    +0.000 A 
ATOM     29  C   UNL     1      -0.108  11.467  20.777  0.00  0.00    +0.000 A 
ENDBRANCH  23  24
ENDBRANCH  22  23
ENDBRANCH  21  22
ENDBRANCH  10  21
TORSDOF 8
ENDMDL
MODEL 5
REMARK VINA RESULT:      -7.9      0.511      1.120
REMARK  Name = 
REMARK  8 active torsions:
REMARK  status: ('A' for Active; 'I' for Inactive)
REMARK    1  A    between atoms: N_3  and  C_4
REMARK    2  A    between atoms: C_4  and  C_5
REMARK    3  A    between atoms: C_5  and  C_6
REMARK    4  A    between atoms: C_6  and  C_7
REMARK    5  A    between atoms: N_19  and  C_20
REMARK    6  A    between atoms: C_20  and  C_21
REMARK    7  A    between atoms: C_21  and  C_22
REMARK    8  A    between atoms: C_22  and  C_23
REMARK                            x       y       z     vdW  Elec       q    Type
REMARK                         _______ _______ _______ _____ _____    ______ ____
ROOT
ATOM      1  N   UNL     1       5.050   7.389  17.716  0.00  0.00    +0.000 NA
ATOM      2  C   UNL     1       4.407   6.291  17.909  0.00  0.00    +0.000 A 
ATOM      3  N   UNL     1       4.919   4.999  18.033  0.00  0.00    +0.000 N 
ATOM      4  C   UNL     1       3.854   4.108  18.219  0.00  0.00    +0.000 A 
ATOM      5  C   UNL     1       3.839   2.737  18.386  0.00  0.00    +0.000 A 
ATOM      6  C   UNL     1       2.600   2.113  18.553  0.00  0.00    +0.000 A 
ATOM      7  C   UNL     1       1.413   2.863  18.550  0.00  0.00    +0.000 A 
ATOM      8  C   UNL     1       1.437   4.254  18.383  0.00  0.00    +0.000 A 
ATOM      9  C   UNL     1       2.662   4.868  18.220  0.00  0.00    +0.000 A 
ATOM     10  N   UNL     1       3.020   6.198  18.027  0.00  0.00    +0.000 N 
ATOM     11  H   UNL     1       6.052   7.196  17.664  0.00  0.00    +0.000 HD
ENDROOT
BRANCH   3  12
ATOM     12  C   UNL     1       6.295   4.570  17.973  0.00  0.00    +0.000 C 
BRANCH  12  13
ATOM     13  C   UNL     1       6.694   4.094  16.576  0.00  0.00    +0.000 C 
BRANCH  13  14
ATOM     14  C   UNL     1       6.911   5.226  15.566  0.00  0.00    +0.000 C 
BRANCH  14  15
ATOM     15  C   UNL     1       6.719   4.711  14.158  0.00  0.00    +0.000 A 
ATOM     16  C   UNL     1       5.657   3.849  13.853  0.00  0.00    +0.000 A 
ATOM     17  C   UNL     1       5.532   3.308  12.572  0.00  0.00    +0.000 A 
ATOM     18  C   UNL     1       6.465   3.625  11.585  0.00  0.00    +0.000 A 
ATOM     19  C   UNL     1       7.518   4.490  11.876  0.00  0.00    +0.000 A 
ATOM     20  C   UNL     1       7.645   5.031  13.156  0.00  0.00    +0.000 A 
ENDBRANCH  14  15
ENDBRANCH  13  14
ENDBRANCH  12  13
ENDBRANCH   3  12
BRANCH  10  21
ATOM     21  C   UNL     1       2.123   7.330  17.951  0.00  0.00    +0.000 C 
BRANCH  21  22
ATOM     22  C   UNL     1       1.958   8.029  19.300  0.00  0.00    +0.000 C 
BRANCH  22  23
ATOM     23  C   UNL     1       1.241   9.378  19.209  0.00  0.00    +0.000 C 
BRANCH  23  24
ATOM     24  C   UNL     1       0.531   9.691  20.503  0.00  0.00    +0.000 A 
ATOM     25  C   UNL     1      -0.302  10.814  20.604  0.00  0.00    +0.000 A 
ATOM     26  C   UNL     1      -0.896  11.145  21.823  0.00  0.00    +0.000 A 
ATOM     27  C   UNL     1      -0.664  10.358  22.949  0.00  0.00    +0.000 A 
ATOM     28  C   UNL     1       0.155   9.235  22.857  0.00  0.00    +0.000 A 
ATOM     29  C   UNL     1       0.751   8.903  21.640  0.00  0.00    +0.000 A 
ENDBRANCH  23  24
ENDBRANCH  22  23
ENDBRANCH  21  22
ENDBRANCH  10  21
TORSDOF 8
ENDMDL
MODEL 6
REMARK VINA RESULT:      -7.9      0.843      1.549
REMARK  Name = 
REMARK  8 active torsions:
REMARK  status: ('A' for Active; 'I' for Inactive)
REMARK    1  A    between atoms: N_3  and  C_4
REMARK    2  A    between atoms: C_4  and  C_5
REMARK    3  A    between atoms: C_5  and  C_6
REMARK    4  A    between atoms: C_6  and  C_7
REMARK    5  A    between atoms: N_19  and  C_20
REMARK    6  A    between atoms: C_20  and  C_21
REMARK    7  A    between atoms: C_21  and  C_22
REMARK    8  A    between atoms: C_22  and  C_23
REMARK                            x       y       z     vdW  Elec       q    Type
REMARK                         _______ _______ _______ _____ _____    ______ ____
ROOT
ATOM      1  N   UNL     1       4.389   7.198  17.360  0.00  0.00    +0.000 NA
ATOM      2  C   UNL     1       3.901   6.301  18.143  0.00  0.00    +0.000 A 
ATOM      3  N   UNL     1       4.507   5.130  18.601  0.00  0.00    +0.000 N 
ATOM      4  C   UNL     1       3.603   4.446  19.423  0.00  0.00    +0.000 A 
ATOM      5  C   UNL     1       3.723   3.250  20.104  0.00  0.00    +0.000 A 
ATOM      6  C   UNL     1       2.631   2.815  20.858  0.00  0.00    +0.000 A 
ATOM      7  C   UNL     1       1.451   3.573  20.916  0.00  0.00    +0.000 A 
ATOM      8  C   UNL     1       1.337   4.788  20.225  0.00  0.00    +0.000 A 
ATOM      9  C   UNL     1       2.418   5.216  19.482  0.00  0.00    +0.000 A 
ATOM     10  N   UNL     1       2.619   6.344  18.693  0.00  0.00    +0.000 N 
ATOM     11  H   UNL     1       5.340   6.941  17.092  0.00  0.00    +0.000 HD
ENDROOT
BRANCH   3  12
ATOM     12  C   UNL     1       5.828   4.631  18.306  0.00  0.00    +0.000 C 
BRANCH  12  13
ATOM     13  C   UNL     1       5.980   4.219  16.842  0.00  0.00    +0.000 C 
BRANCH  13  14
ATOM     14  C   UNL     1       6.877   5.149  16.019  0.00  0.00    +0.000 C 
BRANCH  14  15
ATOM     15  C   UNL     1       6.895   4.711  14.573  0.00  0.00    +0.000 A 
ATOM     16  C   UNL     1       7.765   5.314  13.655  0.00  0.00    +0.000 A 
ATOM     17  C   UNL     1       7.719   4.967  12.304  0.00  0.00    +0.000 A 
ATOM     18  C   UNL     1       6.805   4.014  11.858  0.00  0.00    +0.000 A 
ATOM     19  C   UNL     1       5.943   3.400  12.765  0.00  0.00    +0.000 A 
ATOM     20  C   UNL     1       5.986   3.746  14.116  0.00  0.00    +0.000 A 
ENDBRANCH  14  15
ENDBRANCH  13  14
ENDBRANCH  12  13
ENDBRANCH   3  12
BRANCH  10  21
ATOM     21  C   UNL     1       1.670   7.409  18.455  0.00  0.00    +0.000 C 
BRANCH  21  22
ATOM     22  C   UNL     1       1.838   8.565  19.440  0.00  0.00    +0.000 C 
BRANCH  22  23
ATOM     23  C   UNL     1       1.388   8.228  20.863  0.00  0.00    +0.000 C 
BRANCH  23  24
ATOM     24  C   UNL     1       0.554   9.347  21.437  0.00  0.00    +0.000 A 
ATOM     25  C   UNL     1       0.484  10.587  20.787  0.00  0.00    +0.000 A 
ATOM     26  C   UNL     1      -0.225  11.644  21.360  0.00  0.00    +0.000 A 
ATOM     27  C   UNL     1      -0.870  11.471  22.583  0.00  0.00    +0.000 A 
ATOM     28  C   UNL     1      -0.813  10.240  23.233  0.00  0.00    +0.000 A 
ATOM     29  C   UNL     1      -0.104   9.182  22.662  0.00  0.00    +0.000 A 
ENDBRANCH  23  24
ENDBRANCH  22  23
ENDBRANCH  21  22
ENDBRANCH  10  21
TORSDOF 8
ENDMDL
MODEL 7
REMARK VINA RESULT:      -7.9      0.952      9.150
REMARK  Name = 
REMARK  8 active torsions:
REMARK  status: ('A' for Active; 'I' for Inactive)
REMARK    1  A    between atoms: N_3  and  C_4
REMARK    2  A    between atoms: C_4  and  C_5
REMARK    3  A    between atoms: C_5  and  C_6
REMARK    4  A    between atoms: C_6  and  C_7
REMARK    5  A    between atoms: N_19  and  C_20
REMARK    6  A    between atoms: C_20  and  C_21
REMARK    7  A    between atoms: C_21  and  C_22
REMARK    8  A    between atoms: C_22  and  C_23
REMARK                            x       y       z     vdW  Elec       q    Type
REMARK                         _______ _______ _______ _____ _____    ______ ____
ROOT
ATOM      1  N   UNL     1       4.571   7.173  17.798  0.00  0.00    +0.000 NA
ATOM      2  C   UNL     1       3.963   6.266  18.480  0.00  0.00    +0.000 A 
ATOM      3  N   UNL     1       2.713   6.340  19.095  0.00  0.00    +0.000 N 
ATOM      4  C   UNL     1       2.455   5.122  19.738  0.00  0.00    +0.000 A 
ATOM      5  C   UNL     1       1.368   4.702  20.481  0.00  0.00    +0.000 A 
ATOM      6  C   UNL     1       1.396   3.408  21.005  0.00  0.00    +0.000 A 
ATOM      7  C   UNL     1       2.497   2.566  20.779  0.00  0.00    +0.000 A 
ATOM      8  C   UNL     1       3.594   2.998  20.022  0.00  0.00    +0.000 A 
ATOM      9  C   UNL     1       3.563   4.276  19.504  0.00  0.00    +0.000 A 
ATOM     10  N   UNL     1       4.475   4.993  18.736  0.00  0.00    +0.000 N 
ATOM     11  H   UNL     1       3.994   8.014  17.753  0.00  0.00    +0.000 HD
ENDROOT
BRANCH   3  12
ATOM     12  C   UNL     1       1.793   7.451  19.127  0.00  0.00    +0.000 C 
BRANCH  12  13
ATOM     13  C   UNL     1       1.809   8.179  20.471  0.00  0.00    +0.000 C 
BRANCH  13  14
ATOM     14  C   UNL     1       0.549   7.963  21.317  0.00  0.00    +0.000 C 
BRANCH  14  15
ATOM     15  C   UNL     1      -0.138   9.284  21.572  0.00  0.00    +0.000 A 
ATOM     16  C   UNL     1      -0.378  10.179  20.520  0.00  0.00    +0.000 A 
ATOM     17  C   UNL     1      -0.935  11.433  20.773  0.00  0.00    +0.000 A 
ATOM     18  C   UNL     1      -1.260  11.805  22.077  0.00  0.00    +0.000 A 
ATOM     19  C   UNL     1      -1.036  10.917  23.128  0.00  0.00    +0.000 A 
ATOM     20  C   UNL     1      -0.478   9.663  22.878  0.00  0.00    +0.000 A 
ENDBRANCH  14  15
ENDBRANCH  13  14
ENDBRANCH  12  13
ENDBRANCH   3  12
BRANCH  10  21
ATOM     21  C   UNL     1       5.759   4.526  18.263  0.00  0.00    +0.000 C 
BRANCH  21  22
ATOM     22  C   UNL     1       5.762   4.264  16.758  0.00  0.00    +0.000 C 
BRANCH  22  23
ATOM     23  C   UNL     1       6.815   5.072  15.996  0.00  0.00    +0.000 C 
BRANCH  23  24
ATOM     24  C   UNL     1       6.785   4.732  14.526  0.00  0.00    +0.000 A 
ATOM     25  C   UNL     1       5.905   3.756  14.039  0.00  0.00    +0.000 A 
ATOM     26  C   UNL     1       5.934   3.389  12.692  0.00  0.00    +0.000 A 
ATOM     27  C   UNL     1       6.840   3.994  11.823  0.00  0.00    +0.000 A 
ATOM     28  C   UNL     1       7.713   4.972  12.296  0.00  0.00    +0.000 A 
ATOM     29  C   UNL     1       7.686   5.339  13.642  0.00  0.00    +0.000 A 
ENDBRANCH  23  24
ENDBRANCH  22  23
ENDBRANCH  21  22
ENDBRANCH  10  21
TORSDOF 8
ENDMDL
MODEL 8
REMARK VINA RESULT:      -7.8      1.793      7.742
REMARK  Name = 
REMARK  8 active torsions:
REMARK  status: ('A' for Active; 'I' for Inactive)
REMARK    1  A    between atoms: N_3  and  C_4
REMARK    2  A    between atoms: C_4  and  C_5
REMARK    3  A    between atoms: C_5  and  C_6
REMARK    4  A    between atoms: C_6  and  C_7
REMARK    5  A    between atoms: N_19  and  C_20
REMARK    6  A    between atoms: C_20  and  C_21
REMARK    7  A    between atoms: C_21  and  C_22
REMARK    8  A    between atoms: C_22  and  C_23
REMARK                            x       y       z     vdW  Elec       q    Type
REMARK                         _______ _______ _______ _____ _____    ______ ____
ROOT
ATOM      1  N   UNL     1       4.675   4.779  19.375  0.00  0.00    +0.000 NA
ATOM      2  C   UNL     1       3.929   5.812  19.194  0.00  0.00    +0.000 A 
ATOM      3  N   UNL     1       2.784   6.186  19.899  0.00  0.00    +0.000 N 
ATOM      4  C   UNL     1       2.287   7.376  19.351  0.00  0.00    +0.000 A 
ATOM      5  C   UNL     1       1.185   8.138  19.689  0.00  0.00    +0.000 A 
ATOM      6  C   UNL     1       0.938   9.294  18.947  0.00  0.00    +0.000 A 
ATOM      7  C   UNL     1       1.788   9.666  17.893  0.00  0.00    +0.000 A 
ATOM      8  C   UNL     1       2.906   8.890  17.558  0.00  0.00    +0.000 A 
ATOM      9  C   UNL     1       3.148   7.748  18.294  0.00  0.00    +0.000 A 
ATOM     10  N   UNL     1       4.143   6.779  18.212  0.00  0.00    +0.000 N 
ATOM     11  H   UNL     1       4.311   4.224  20.152  0.00  0.00    +0.000 HD
ENDROOT
BRANCH   3  12
ATOM     12  C   UNL     1       2.149   5.508  21.003  0.00  0.00    +0.000 C 
BRANCH  12  13
ATOM     13  C   UNL     1       0.895   4.747  20.571  0.00  0.00    +0.000 C 
BRANCH  13  14
ATOM     14  C   UNL     1       1.056   3.224  20.570  0.00  0.00    +0.000 C 
BRANCH  14  15
ATOM     15  C   UNL     1       1.853   2.785  19.364  0.00  0.00    +0.000 A 
ATOM     16  C   UNL     1       2.855   1.812  19.486  0.00  0.00    +0.000 A 
ATOM     17  C   UNL     1       3.647   1.471  18.389  0.00  0.00    +0.000 A 
ATOM     18  C   UNL     1       3.444   2.096  17.159  0.00  0.00    +0.000 A 
ATOM     19  C   UNL     1       2.443   3.056  17.024  0.00  0.00    +0.000 A 
ATOM     20  C   UNL     1       1.651   3.399  18.120  0.00  0.00    +0.000 A 
ENDBRANCH  14  15
ENDBRANCH  13  14
ENDBRANCH  12  13
ENDBRANCH   3  12
BRANCH  10  21
ATOM     21  C   UNL     1       5.239   6.747  17.268  0.00  0.00    +0.000 C 
BRANCH  21  22
ATOM     22  C   UNL     1       4.927   5.881  16.049  0.00  0.00    +0.000 C 
BRANCH  22  23
ATOM     23  C   UNL     1       5.868   4.685  15.888  0.00  0.00    +0.000 C 
BRANCH  23  24
ATOM     24  C   UNL     1       6.236   4.487  14.438  0.00  0.00    +0.000 A 
ATOM     25  C   UNL     1       5.502   3.605  13.633  0.00  0.00    +0.000 A 
ATOM     26  C   UNL     1       5.891   3.365  12.314  0.00  0.00    +0.000 A 
ATOM     27  C   UNL     1       7.013   4.005  11.790  0.00  0.00    +0.000 A 
ATOM     28  C   UNL     1       7.743   4.891  12.579  0.00  0.00    +0.000 A 
ATOM     29  C   UNL     1       7.356   5.131  13.898  0.00  0.00    +0.000 A 
ENDBRANCH  23  24
ENDBRANCH  22  23
ENDBRANCH  21  22
ENDBRANCH  10  21
TORSDOF 8
ENDMDL
MODEL 9
REMARK VINA RESULT:      -7.8      4.011      9.652
REMARK  Name = 
REMARK  8 active torsions:
REMARK  status: ('A' for Active; 'I' for Inactive)
REMARK    1  A    between atoms: N_3  and  C_4
REMARK    2  A    between atoms: C_4  and  C_5
REMARK    3  A    between atoms: C_5  and  C_6
REMARK    4  A    between atoms: C_6  and  C_7
REMARK    5  A    between atoms: N_19  and  C_20
REMARK    6  A    between atoms: C_20  and  C_21
REMARK    7  A    between atoms: C_21  and  C_22
REMARK    8  A    between atoms: C_22  and  C_23
REMARK                            x       y       z     vdW  Elec       q    Type
REMARK                         _______ _______ _______ _____ _____    ______ ____
ROOT
ATOM      1  N   UNL     1       2.234  10.971  17.519  0.00  0.00    +0.000 NA
ATOM      2  C   UNL     1       1.616  10.774  18.631  0.00  0.00    +0.000 A 
ATOM      3  N   UNL     1       1.253  11.713  19.596  0.00  0.00    +0.000 N 
ATOM      4  C   UNL     1       0.608  11.051  20.649  0.00  0.00    +0.000 A 
ATOM      5  C   UNL     1       0.072  11.531  21.828  0.00  0.00    +0.000 A 
ATOM      6  C   UNL     1      -0.518  10.612  22.699  0.00  0.00    +0.000 A 
ATOM      7  C   UNL     1      -0.561   9.246  22.380  0.00  0.00    +0.000 A 
ATOM      8  C   UNL     1      -0.018   8.766  21.180  0.00  0.00    +0.000 A 
ATOM      9  C   UNL     1       0.563   9.676  20.320  0.00  0.00    +0.000 A 
ATOM     10  N   UNL     1       1.186   9.527  19.085  0.00  0.00    +0.000 N 
ATOM     11  H   UNL     1       2.443  11.965  17.412  0.00  0.00    +0.000 HD
ENDROOT
BRANCH   3  12
ATOM     12  C   UNL     1       1.483  13.137  19.593  0.00  0.00    +0.000 C 
BRANCH  12  13
ATOM     13  C   UNL     1       0.329  13.910  18.956  0.00  0.00    +0.000 C 
BRANCH  13  14
ATOM     14  C   UNL     1       0.054  15.272  19.602  0.00  0.00    +0.000 C 
BRANCH  14  15
ATOM     15  C   UNL     1       0.385  16.384  18.634  0.00  0.00    +0.000 A 
ATOM     16  C   UNL     1      -0.635  17.138  18.037  0.00  0.00    +0.000 A 
ATOM     17  C   UNL     1      -0.330  18.106  17.080  0.00  0.00    +0.000 A 
ATOM     18  C   UNL     1       0.995  18.333  16.711  0.00  0.00    +0.000 A 
ATOM     19  C   UNL     1       2.018  17.596  17.308  0.00  0.00    +0.000 A 
ATOM     20  C   UNL     1       1.715  16.627  18.265  0.00  0.00    +0.000 A 
ENDBRANCH  14  15
ENDBRANCH  13  14
ENDBRANCH  12  13
ENDBRANCH   3  12
BRANCH  10  21
ATOM     21  C   UNL     1       1.377   8.290  18.361  0.00  0.00    +0.000 C 
BRANCH  21  22
ATOM     22  C   UNL     1       2.667   7.577  18.764  0.00  0.00    +0.000 C 
BRANCH  22  23
ATOM     23  C   UNL     1       2.494   6.608  19.935  0.00  0.00    +0.000 C 
BRANCH  23  24
ATOM     24  C   UNL     1       1.982   5.274  19.452  0.00  0.00    +0.000 A 
ATOM     25  C   UNL     1       1.326   4.402  20.333  0.00  0.00    +0.000 A 
ATOM     26  C   UNL     1       0.923   3.137  19.903  0.00  0.00    +0.000 A 
ATOM     27  C   UNL     1       1.170   2.734  18.592  0.00  0.00    +0.000 A 
ATOM     28  C   UNL     1       1.812   3.596  17.707  0.00  0.00    +0.000 A 
ATOM     29  C   UNL     1       2.218   4.861  18.135  0.00  0.00    +0.000 A 
ENDBRANCH  23  24
ENDBRANCH  22  23
ENDBRANCH  21  22
ENDBRANCH  10  21
TORSDOF 8
ENDMDL
