MODEL 1
REMARK VINA RESULT:      -7.4      0.000      0.000
REMARK  Name = 
REMARK  6 active torsions:
REMARK  status: ('A' for Active; 'I' for Inactive)
REMARK    1  A    between atoms: C_2  and  C_3
REMARK    2  A    between atoms: C_3  and  N_4
REMARK    3  A    between atoms: N_7  and  C_8
REMARK    4  A    between atoms: N_16  and  C_17
REMARK    5  A    between atoms: C_20  and  O_21
REMARK    6  A    between atoms: O_21  and  C_22
REMARK                            x       y       z     vdW  Elec       q    Type
REMARK                         _______ _______ _______ _____ _____    ______ ____
ROOT
ATOM      1  O   UNL     1       0.534   4.926  20.472  0.00  0.00    +0.000 OA
ATOM      2  C   UNL     1       1.688   5.243  20.756  0.00  0.00    +0.000 C 
ATOM      3  N   UNL     1       2.100   6.556  20.877  0.00  0.00    +0.000 N 
ATOM      4  H   UNL     1       3.098   6.731  20.821  0.00  0.00    +0.000 HD
ENDROOT
BRANCH   3   5
ATOM      5  C   UNL     1       1.207   7.685  20.625  0.00  0.00    +0.000 C 
ATOM      6  C   UNL     1       1.114   8.557  21.887  0.00  0.00    +0.000 C 
ATOM      7  C   UNL     1       0.341   9.849  21.650  0.00  0.00    +0.000 C 
ATOM      8  C   UNL     1       0.961  10.645  20.500  0.00  0.00    +0.000 C 
ATOM      9  C   UNL     1       0.908   9.803  19.222  0.00  0.00    +0.000 C 
ATOM     10  C   UNL     1       1.669   8.489  19.397  0.00  0.00    +0.000 C 
BRANCH   8  11
ATOM     11  O   UNL     1       0.221  11.854  20.283  0.00  0.00    +0.000 OA
BRANCH  11  12
ATOM     12  C   UNL     1       1.002  12.992  20.207  0.00  0.00    +0.000 A 
ATOM     13  C   UNL     1       0.775  13.864  19.150  0.00  0.00    +0.000 A 
ATOM     14  N   UNL     1       1.502  14.997  18.964  0.00  0.00    +0.000 NA
ATOM     15  C   UNL     1       2.464  15.220  19.887  0.00  0.00    +0.000 A 
ATOM     16  C   UNL     1       2.682  14.359  20.949  0.00  0.00    +0.000 A 
ATOM     17  N   UNL     1       1.955  13.233  21.136  0.00  0.00    +0.000 NA
ENDBRANCH  11  12
ENDBRANCH   8  11
ENDBRANCH   3   5
BRANCH   2  18
ATOM     18  C   UNL     1       2.789   4.203  21.016  0.00  0.00    +0.000 C 
BRANCH  18  19
ATOM     19  N   UNL     1       3.384   3.734  19.781  0.00  0.00    +0.000 N 
ATOM     20  C   UNL     1       3.311   2.372  19.318  0.00  0.00    +0.000 C 
ATOM     21  C   UNL     1       3.757   2.484  17.866  0.00  0.00    +0.000 C 
ATOM     22  N   UNL     1       4.542   3.702  17.842  0.00  0.00    +0.000 N 
ATOM     23  C   UNL     1       4.205   4.504  18.956  0.00  0.00    +0.000 C 
ATOM     24  O   UNL     1       4.519   5.658  19.190  0.00  0.00    +0.000 OA
BRANCH  22  25
ATOM     25  C   UNL     1       5.369   4.077  16.760  0.00  0.00    +0.000 A 
ATOM     26  C   UNL     1       6.686   4.502  16.976  0.00  0.00    +0.000 A 
ATOM     27  C   UNL     1       7.509   4.871  15.907  0.00  0.00    +0.000 A 
ATOM     28  C   UNL     1       7.021   4.836  14.605  0.00  0.00    +0.000 A 
ATOM     29  C   UNL     1       5.718   4.409  14.371  0.00  0.00    +0.000 A 
ATOM     30  C   UNL     1       4.904   4.016  15.439  0.00  0.00    +0.000 A 
ENDBRANCH  22  25
ENDBRANCH  18  19
ENDBRANCH   2  18
TORSDOF 6
ENDMDL
MODEL 2
REMARK VINA RESULT:      -7.4      1.662      2.368
REMARK  Name = 
REMARK  6 active torsions:
REMARK  status: ('A' for Active; 'I' for Inactive)
REMARK    1  A    between atoms: C_2  and  C_3
REMARK    2  A    between atoms: C_3  and  N_4
REMARK    3  A    between atoms: N_7  and  C_8
REMARK    4  A    between atoms: N_16  and  C_17
REMARK    5  A    between atoms: C_20  and  O_21
REMARK    6  A    between atoms: O_21  and  C_22
REMARK                            x       y       z     vdW  Elec       q    Type
REMARK                         _______ _______ _______ _____ _____    ______ ____
ROOT
ATOM      1  O   UNL     1       2.030   4.361  18.997  0.00  0.00    +0.000 OA
ATOM      2  C   UNL     1       3.118   4.904  19.183  0.00  0.00    +0.000 C 
ATOM      3  N   UNL     1       3.275   6.275  19.245  0.00  0.00    +0.000 N 
ATOM      4  H   UNL     1       4.213   6.637  19.107  0.00  0.00    +0.000 HD
ENDROOT
BRANCH   3   5
ATOM      5  C   UNL     1       2.162   7.202  19.042  0.00  0.00    +0.000 C 
ATOM      6  C   UNL     1       1.886   7.964  20.347  0.00  0.00    +0.000 C 
ATOM      7  C   UNL     1       0.856   9.075  20.170  0.00  0.00    +0.000 C 
ATOM      8  C   UNL     1       1.295  10.046  19.072  0.00  0.00    +0.000 C 
ATOM      9  C   UNL     1       1.423   9.283  17.750  0.00  0.00    +0.000 C 
ATOM     10  C   UNL     1       2.446   8.151  17.864  0.00  0.00    +0.000 C 
BRANCH   8  11
ATOM     11  O   UNL     1       0.316  11.080  18.910  0.00  0.00    +0.000 OA
BRANCH  11  12
ATOM     12  C   UNL     1       0.835  12.362  18.931  0.00  0.00    +0.000 A 
ATOM     13  C   UNL     1       0.066  13.362  19.512  0.00  0.00    +0.000 A 
ATOM     14  N   UNL     1       0.465  14.659  19.563  0.00  0.00    +0.000 NA
ATOM     15  C   UNL     1       1.672  14.910  19.009  0.00  0.00    +0.000 A 
ATOM     16  C   UNL     1       2.446  13.912  18.442  0.00  0.00    +0.000 A 
ATOM     17  N   UNL     1       2.050  12.619  18.396  0.00  0.00    +0.000 NA
ENDBRANCH  11  12
ENDBRANCH   8  11
ENDBRANCH   3   5
BRANCH   2  18
ATOM     18  C   UNL     1       4.416   4.105  19.375  0.00  0.00    +0.000 C 
BRANCH  18  19
ATOM     19  N   UNL     1       5.374   4.380  18.325  0.00  0.00    +0.000 N 
ATOM     20  C   UNL     1       6.623   5.067  18.532  0.00  0.00    +0.000 C 
ATOM     21  C   UNL     1       7.384   4.784  17.243  0.00  0.00    +0.000 C 
ATOM     22  N   UNL     1       6.336   4.499  16.284  0.00  0.00    +0.000 N 
ATOM     23  C   UNL     1       5.154   4.134  16.968  0.00  0.00    +0.000 C 
ATOM     24  O   UNL     1       4.122   3.666  16.517  0.00  0.00    +0.000 OA
BRANCH  22  25
ATOM     25  C   UNL     1       6.551   4.426  14.889  0.00  0.00    +0.000 A 
ATOM     26  C   UNL     1       7.527   5.220  14.271  0.00  0.00    +0.000 A 
ATOM     27  C   UNL     1       7.747   5.148  12.892  0.00  0.00    +0.000 A 
ATOM     28  C   UNL     1       6.981   4.293  12.106  0.00  0.00    +0.000 A 
ATOM     29  C   UNL     1       6.012   3.492  12.704  0.00  0.00    +0.000 A 
ATOM     30  C   UNL     1       5.811   3.546  14.087  0.00  0.00    +0.000 A 
ENDBRANCH  22  25
ENDBRANCH  18  19
ENDBRANCH   2  18
TORSDOF 6
ENDMDL
MODEL 3
REMARK VINA RESULT:      -7.3      2.657     10.419
REMARK  Name = 
REMARK  6 active torsions:
REMARK  status: ('A' for Active; 'I' for Inactive)
REMARK    1  A    between atoms: C_2  and  C_3
REMARK    2  A    between atoms: C_3  and  N_4
REMARK    3  A    between atoms: N_7  and  C_8
REMARK    4  A    between atoms: N_16  and  C_17
REMARK    5  A    between atoms: C_20  and  O_21
REMARK    6  A    between atoms: O_21  and  C_22
REMARK                            x       y       z     vdW  Elec       q    Type
REMARK                         _______ _______ _______ _____ _____    ______ ____
ROOT
ATOM      1  O   UNL     1       1.177  11.326  21.475  0.00  0.00    +0.000 OA
ATOM      2  C   UNL     1       0.287  11.196  20.637  0.00  0.00    +0.000 C 
ATOM      3  N   UNL     1       0.349  10.275  19.608  0.00  0.00    +0.000 N 
ATOM      4  H   UNL     1      -0.265  10.430  18.815  0.00  0.00    +0.000 HD
ENDROOT
BRANCH   3   5
ATOM      5  C   UNL     1       1.509   9.409  19.400  0.00  0.00    +0.000 C 
ATOM      6  C   UNL     1       1.345   8.126  20.228  0.00  0.00    +0.000 C 
ATOM      7  C   UNL     1       2.429   7.095  19.930  0.00  0.00    +0.000 C 
ATOM      8  C   UNL     1       2.459   6.762  18.437  0.00  0.00    +0.000 C 
ATOM      9  C   UNL     1       2.767   8.037  17.646  0.00  0.00    +0.000 C 
ATOM     10  C   UNL     1       1.711   9.113  17.904  0.00  0.00    +0.000 C 
BRANCH   8  11
ATOM     11  O   UNL     1       3.485   5.798  18.169  0.00  0.00    +0.000 OA
BRANCH  11  12
ATOM     12  C   UNL     1       3.114   4.489  18.414  0.00  0.00    +0.000 A 
ATOM     13  C   UNL     1       2.000   3.996  17.746  0.00  0.00    +0.000 A 
ATOM     14  N   UNL     1       1.530   2.736  17.932  0.00  0.00    +0.000 NA
ATOM     15  C   UNL     1       2.229   1.988  18.815  0.00  0.00    +0.000 A 
ATOM     16  C   UNL     1       3.347   2.473  19.472  0.00  0.00    +0.000 A 
ATOM     17  N   UNL     1       3.817   3.728  19.282  0.00  0.00    +0.000 NA
ENDBRANCH  11  12
ENDBRANCH   8  11
ENDBRANCH   3   5
BRANCH   2  18
ATOM     18  C   UNL     1      -0.996  12.043  20.656  0.00  0.00    +0.000 C 
BRANCH  18  19
ATOM     19  N   UNL     1      -0.705  13.456  20.524  0.00  0.00    +0.000 N 
ATOM     20  C   UNL     1      -0.745  14.392  21.618  0.00  0.00    +0.000 C 
ATOM     21  C   UNL     1      -0.036  15.613  21.044  0.00  0.00    +0.000 C 
ATOM     22  N   UNL     1      -0.194  15.458  19.613  0.00  0.00    +0.000 N 
ATOM     23  C   UNL     1      -0.479  14.107  19.310  0.00  0.00    +0.000 C 
ATOM     24  O   UNL     1      -0.511  13.557  18.223  0.00  0.00    +0.000 OA
BRANCH  22  25
ATOM     25  C   UNL     1       0.085  16.484  18.681  0.00  0.00    +0.000 A 
ATOM     26  C   UNL     1      -0.915  17.378  18.277  0.00  0.00    +0.000 A 
ATOM     27  C   UNL     1      -0.641  18.397  17.358  0.00  0.00    +0.000 A 
ATOM     28  C   UNL     1       0.633  18.526  16.816  0.00  0.00    +0.000 A 
ATOM     29  C   UNL     1       1.640  17.651  17.212  0.00  0.00    +0.000 A 
ATOM     30  C   UNL     1       1.372  16.648  18.150  0.00  0.00    +0.000 A 
ENDBRANCH  22  25
ENDBRANCH  18  19
ENDBRANCH   2  18
TORSDOF 6
ENDMDL
MODEL 4
REMARK VINA RESULT:      -7.3      1.840      2.823
REMARK  Name = 
REMARK  6 active torsions:
REMARK  status: ('A' for Active; 'I' for Inactive)
REMARK    1  A    between atoms: C_2  and  C_3
REMARK    2  A    between atoms: C_3  and  N_4
REMARK    3  A    between atoms: N_7  and  C_8
REMARK    4  A    between atoms: N_16  and  C_17
REMARK    5  A    between atoms: C_20  and  O_21
REMARK    6  A    between atoms: O_21  and  C_22
REMARK                            x       y       z     vdW  Elec       q    Type
REMARK                         _______ _______ _______ _____ _____    ______ ____
ROOT
ATOM      1  O   UNL     1       2.048   4.758  18.563  0.00  0.00    +0.000 OA
ATOM      2  C   UNL     1       3.035   5.289  19.069  0.00  0.00    +0.000 C 
ATOM      3  N   UNL     1       3.055   6.609  19.478  0.00  0.00    +0.000 N 
ATOM      4  H   UNL     1       3.966   7.037  19.605  0.00  0.00    +0.000 HD
ENDROOT
BRANCH   3   5
ATOM      5  C   UNL     1       1.914   7.504  19.293  0.00  0.00    +0.000 C 
ATOM      6  C   UNL     1       1.586   8.197  20.625  0.00  0.00    +0.000 C 
ATOM      7  C   UNL     1       0.521   9.277  20.476  0.00  0.00    +0.000 C 
ATOM      8  C   UNL     1       0.945  10.311  19.431  0.00  0.00    +0.000 C 
ATOM      9  C   UNL     1       1.124   9.613  18.080  0.00  0.00    +0.000 C 
ATOM     10  C   UNL     1       2.185   8.515  18.165  0.00  0.00    +0.000 C 
BRANCH   8  11
ATOM     11  O   UNL     1      -0.068  11.317  19.295  0.00  0.00    +0.000 OA
BRANCH  11  12
ATOM     12  C   UNL     1      -0.300  12.048  20.445  0.00  0.00    +0.000 A 
ATOM     13  C   UNL     1       0.730  12.847  20.924  0.00  0.00    +0.000 A 
ATOM     14  N   UNL     1       0.620  13.584  22.060  0.00  0.00    +0.000 NA
ATOM     15  C   UNL     1      -0.570  13.490  22.693  0.00  0.00    +0.000 A 
ATOM     16  C   UNL     1      -1.603  12.705  22.209  0.00  0.00    +0.000 A 
ATOM     17  N   UNL     1      -1.494  11.974  21.075  0.00  0.00    +0.000 NA
ENDBRANCH  11  12
ENDBRANCH   8  11
ENDBRANCH   3   5
BRANCH   2  18
ATOM     18  C   UNL     1       4.349   4.529  19.308  0.00  0.00    +0.000 C 
BRANCH  18  19
ATOM     19  N   UNL     1       5.311   4.779  18.254  0.00  0.00    +0.000 N 
ATOM     20  C   UNL     1       6.498   5.577  18.420  0.00  0.00    +0.000 C 
ATOM     21  C   UNL     1       7.311   5.236  17.177  0.00  0.00    +0.000 C 
ATOM     22  N   UNL     1       6.314   4.781  16.230  0.00  0.00    +0.000 N 
ATOM     23  C   UNL     1       5.146   4.390  16.924  0.00  0.00    +0.000 C 
ATOM     24  O   UNL     1       4.165   3.802  16.500  0.00  0.00    +0.000 OA
BRANCH  22  25
ATOM     25  C   UNL     1       6.571   4.595  14.853  0.00  0.00    +0.000 A 
ATOM     26  C   UNL     1       5.855   3.647  14.110  0.00  0.00    +0.000 A 
ATOM     27  C   UNL     1       6.104   3.464  12.746  0.00  0.00    +0.000 A 
ATOM     28  C   UNL     1       7.086   4.215  12.108  0.00  0.00    +0.000 A 
ATOM     29  C   UNL     1       7.801   5.166  12.828  0.00  0.00    +0.000 A 
ATOM     30  C   UNL     1       7.533   5.367  14.187  0.00  0.00    +0.000 A 
ENDBRANCH  22  25
ENDBRANCH  18  19
ENDBRANCH   2  18
TORSDOF 6
ENDMDL
MODEL 5
REMARK VINA RESULT:      -7.3      1.592      2.312
REMARK  Name = 
REMARK  6 active torsions:
REMARK  status: ('A' for Active; 'I' for Inactive)
REMARK    1  A    between atoms: C_2  and  C_3
REMARK    2  A    between atoms: C_3  and  N_4
REMARK    3  A    between atoms: N_7  and  C_8
REMARK    4  A    between atoms: N_16  and  C_17
REMARK    5  A    between atoms: C_20  and  O_21
REMARK    6  A    between atoms: O_21  and  C_22
REMARK                            x       y       z     vdW  Elec       q    Type
REMARK                         _______ _______ _______ _____ _____    ______ ____
ROOT
ATOM      1  O   UNL     1       1.797   4.508  19.264  0.00  0.00    +0.000 OA
ATOM      2  C   UNL     1       2.938   4.968  19.260  0.00  0.00    +0.000 C 
ATOM      3  N   UNL     1       3.206   6.319  19.144  0.00  0.00    +0.000 N 
ATOM      4  H   UNL     1       4.145   6.578  18.860  0.00  0.00    +0.000 HD
ENDROOT
BRANCH   3   5
ATOM      5  C   UNL     1       2.151   7.315  18.963  0.00  0.00    +0.000 C 
ATOM      6  C   UNL     1       1.812   7.954  20.318  0.00  0.00    +0.000 C 
ATOM      7  C   UNL     1       0.845   9.126  20.187  0.00  0.00    +0.000 C 
ATOM      8  C   UNL     1       1.404  10.180  19.229  0.00  0.00    +0.000 C 
ATOM      9  C   UNL     1       1.596   9.548  17.847  0.00  0.00    +0.000 C 
ATOM     10  C   UNL     1       2.559   8.362  17.913  0.00  0.00    +0.000 C 
BRANCH   8  11
ATOM     11  O   UNL     1       0.483  11.272  19.108  0.00  0.00    +0.000 OA
BRANCH  11  12
ATOM     12  C   UNL     1       0.736  12.325  19.968  0.00  0.00    +0.000 A 
ATOM     13  C   UNL     1       1.960  12.972  19.857  0.00  0.00    +0.000 A 
ATOM     14  N   UNL     1       2.323  13.999  20.669  0.00  0.00    +0.000 NA
ATOM     15  C   UNL     1       1.404  14.353  21.594  0.00  0.00    +0.000 A 
ATOM     16  C   UNL     1       0.177  13.718  21.696  0.00  0.00    +0.000 A 
ATOM     17  N   UNL     1      -0.186  12.698  20.885  0.00  0.00    +0.000 NA
ENDBRANCH  11  12
ENDBRANCH   8  11
ENDBRANCH   3   5
BRANCH   2  18
ATOM     18  C   UNL     1       4.186   4.081  19.395  0.00  0.00    +0.000 C 
BRANCH  18  19
ATOM     19  N   UNL     1       5.162   4.370  18.365  0.00  0.00    +0.000 N 
ATOM     20  C   UNL     1       6.390   5.086  18.596  0.00  0.00    +0.000 C 
ATOM     21  C   UNL     1       7.186   4.811  17.326  0.00  0.00    +0.000 C 
ATOM     22  N   UNL     1       6.167   4.495  16.346  0.00  0.00    +0.000 N 
ATOM     23  C   UNL     1       4.978   4.108  17.005  0.00  0.00    +0.000 C 
ATOM     24  O   UNL     1       3.968   3.614  16.535  0.00  0.00    +0.000 OA
BRANCH  22  25
ATOM     25  C   UNL     1       6.417   4.417  14.957  0.00  0.00    +0.000 A 
ATOM     26  C   UNL     1       7.436   5.176  14.367  0.00  0.00    +0.000 A 
ATOM     27  C   UNL     1       7.689   5.099  12.994  0.00  0.00    +0.000 A 
ATOM     28  C   UNL     1       6.915   4.273  12.186  0.00  0.00    +0.000 A 
ATOM     29  C   UNL     1       5.903   3.506  12.756  0.00  0.00    +0.000 A 
ATOM     30  C   UNL     1       5.668   3.565  14.134  0.00  0.00    +0.000 A 
ENDBRANCH  22  25
ENDBRANCH  18  19
ENDBRANCH   2  18
TORSDOF 6
ENDMDL
MODEL 6
REMARK VINA RESULT:      -7.2      2.614     10.373
REMARK  Name = 
REMARK  6 active torsions:
REMARK  status: ('A' for Active; 'I' for Inactive)
REMARK    1  A    between atoms: C_2  and  C_3
REMARK    2  A    between atoms: C_3  and  N_4
REMARK    3  A    between atoms: N_7  and  C_8
REMARK    4  A    between atoms: N_16  and  C_17
REMARK    5  A    between atoms: C_20  and  O_21
REMARK    6  A    between atoms: O_21  and  C_22
REMARK                            x       y       z     vdW  Elec       q    Type
REMARK                         _______ _______ _______ _____ _____    ______ ____
ROOT
ATOM      1  O   UNL     1       1.354  11.274  21.401  0.00  0.00    +0.000 OA
ATOM      2  C   UNL     1       0.420  11.090  20.622  0.00  0.00    +0.000 C 
ATOM      3  N   UNL     1       0.436  10.114  19.643  0.00  0.00    +0.000 N 
ATOM      4  H   UNL     1      -0.223  10.219  18.879  0.00  0.00    +0.000 HD
ENDROOT
BRANCH   3   5
ATOM      5  C   UNL     1       1.593   9.249  19.417  0.00  0.00    +0.000 C 
ATOM      6  C   UNL     1       1.393   7.921  20.161  0.00  0.00    +0.000 C 
ATOM      7  C   UNL     1       2.474   6.897  19.833  0.00  0.00    +0.000 C 
ATOM      8  C   UNL     1       2.545   6.654  18.324  0.00  0.00    +0.000 C 
ATOM      9  C   UNL     1       2.889   7.971  17.620  0.00  0.00    +0.000 C 
ATOM     10  C   UNL     1       1.837   9.041  17.912  0.00  0.00    +0.000 C 
BRANCH   8  11
ATOM     11  O   UNL     1       3.570   5.696  18.027  0.00  0.00    +0.000 OA
BRANCH  11  12
ATOM     12  C   UNL     1       3.219   4.387  18.298  0.00  0.00    +0.000 A 
ATOM     13  C   UNL     1       4.105   3.619  19.042  0.00  0.00    +0.000 A 
ATOM     14  N   UNL     1       3.874   2.315  19.342  0.00  0.00    +0.000 NA
ATOM     15  C   UNL     1       2.713   1.813  18.866  0.00  0.00    +0.000 A 
ATOM     16  C   UNL     1       1.822   2.581  18.136  0.00  0.00    +0.000 A 
ATOM     17  N   UNL     1       2.050   3.882  17.841  0.00  0.00    +0.000 NA
ENDBRANCH  11  12
ENDBRANCH   8  11
ENDBRANCH   3   5
BRANCH   2  18
ATOM     18  C   UNL     1      -0.870  11.924  20.668  0.00  0.00    +0.000 C 
BRANCH  18  19
ATOM     19  N   UNL     1      -0.595  13.340  20.535  0.00  0.00    +0.000 N 
ATOM     20  C   UNL     1      -0.702  14.287  21.614  0.00  0.00    +0.000 C 
ATOM     21  C   UNL     1       0.015  15.513  21.061  0.00  0.00    +0.000 C 
ATOM     22  N   UNL     1      -0.073  15.341  19.625  0.00  0.00    +0.000 N 
ATOM     23  C   UNL     1      -0.322  13.982  19.325  0.00  0.00    +0.000 C 
ATOM     24  O   UNL     1      -0.294  13.420  18.244  0.00  0.00    +0.000 OA
BRANCH  22  25
ATOM     25  C   UNL     1       0.234  16.361  18.696  0.00  0.00    +0.000 A 
ATOM     26  C   UNL     1       1.561  16.622  18.329  0.00  0.00    +0.000 A 
ATOM     27  C   UNL     1       1.868  17.627  17.407  0.00  0.00    +0.000 A 
ATOM     28  C   UNL     1       0.853  18.399  16.850  0.00  0.00    +0.000 A 
ATOM     29  C   UNL     1      -0.471  18.148  17.198  0.00  0.00    +0.000 A 
ATOM     30  C   UNL     1      -0.779  17.125  18.101  0.00  0.00    +0.000 A 
ENDBRANCH  22  25
ENDBRANCH  18  19
ENDBRANCH   2  18
TORSDOF 6
ENDMDL
MODEL 7
REMARK VINA RESULT:      -7.2      6.163     10.580
REMARK  Name = 
REMARK  6 active torsions:
REMARK  status: ('A' for Active; 'I' for Inactive)
REMARK    1  A    between atoms: C_2  and  C_3
REMARK    2  A    between atoms: C_3  and  N_4
REMARK    3  A    between atoms: N_7  and  C_8
REMARK    4  A    between atoms: N_16  and  C_17
REMARK    5  A    between atoms: C_20  and  O_21
REMARK    6  A    between atoms: O_21  and  C_22
REMARK                            x       y       z     vdW  Elec       q    Type
REMARK                         _______ _______ _______ _____ _____    ______ ____
ROOT
ATOM      1  O   UNL     1       8.437   9.880  17.404  0.00  0.00    +0.000 OA
ATOM      2  C   UNL     1       8.715   9.490  18.537  0.00  0.00    +0.000 C 
ATOM      3  N   UNL     1       8.538   8.182  18.948  0.00  0.00    +0.000 N 
ATOM      4  H   UNL     1       8.511   8.015  19.948  0.00  0.00    +0.000 HD
ENDROOT
BRANCH   3   5
ATOM      5  C   UNL     1       7.955   7.160  18.081  0.00  0.00    +0.000 C 
ATOM      6  C   UNL     1       7.969   5.805  18.805  0.00  0.00    +0.000 C 
ATOM      7  C   UNL     1       7.219   4.723  18.037  0.00  0.00    +0.000 C 
ATOM      8  C   UNL     1       5.779   5.160  17.759  0.00  0.00    +0.000 C 
ATOM      9  C   UNL     1       5.798   6.436  16.912  0.00  0.00    +0.000 C 
ATOM     10  C   UNL     1       6.540   7.563  17.632  0.00  0.00    +0.000 C 
BRANCH   8  11
ATOM     11  O   UNL     1       5.086   4.138  17.031  0.00  0.00    +0.000 OA
BRANCH  11  12
ATOM     12  C   UNL     1       4.031   3.567  17.717  0.00  0.00    +0.000 A 
ATOM     13  C   UNL     1       2.759   3.697  17.173  0.00  0.00    +0.000 A 
ATOM     14  N   UNL     1       1.648   3.200  17.777  0.00  0.00    +0.000 NA
ATOM     15  C   UNL     1       1.868   2.564  18.949  0.00  0.00    +0.000 A 
ATOM     16  C   UNL     1       3.136   2.422  19.486  0.00  0.00    +0.000 A 
ATOM     17  N   UNL     1       4.243   2.913  18.882  0.00  0.00    +0.000 NA
ENDBRANCH  11  12
ENDBRANCH   8  11
ENDBRANCH   3   5
BRANCH   2  18
ATOM     18  C   UNL     1       9.298  10.422  19.611  0.00  0.00    +0.000 C 
BRANCH  18  19
ATOM     19  N   UNL     1      10.093  11.482  19.025  0.00  0.00    +0.000 N 
ATOM     20  C   UNL     1      11.448  11.314  18.568  0.00  0.00    +0.000 C 
ATOM     21  C   UNL     1      11.686  12.573  17.743  0.00  0.00    +0.000 C 
ATOM     22  N   UNL     1      10.725  13.517  18.278  0.00  0.00    +0.000 N 
ATOM     23  C   UNL     1       9.696  12.818  18.949  0.00  0.00    +0.000 C 
ATOM     24  O   UNL     1       8.637  13.242  19.377  0.00  0.00    +0.000 OA
BRANCH  22  25
ATOM     25  C   UNL     1      10.748  14.901  17.992  0.00  0.00    +0.000 A 
ATOM     26  C   UNL     1       9.572  15.661  18.028  0.00  0.00    +0.000 A 
ATOM     27  C   UNL     1       9.591  17.032  17.750  0.00  0.00    +0.000 A 
ATOM     28  C   UNL     1      10.786  17.660  17.414  0.00  0.00    +0.000 A 
ATOM     29  C   UNL     1      11.965  16.922  17.380  0.00  0.00    +0.000 A 
ATOM     30  C   UNL     1      11.949  15.556  17.684  0.00  0.00    +0.000 A 
ENDBRANCH  22  25
ENDBRANCH  18  19
ENDBRANCH   2  18
TORSDOF 6
ENDMDL
MODEL 8
REMARK VINA RESULT:      -7.2      1.608      2.583
REMARK  Name = 
REMARK  6 active torsions:
REMARK  status: ('A' for Active; 'I' for Inactive)
REMARK    1  A    between atoms: C_2  and  C_3
REMARK    2  A    between atoms: C_3  and  N_4
REMARK    3  A    between atoms: N_7  and  C_8
REMARK    4  A    between atoms: N_16  and  C_17
REMARK    5  A    between atoms: C_20  and  O_21
REMARK    6  A    between atoms: O_21  and  C_22
REMARK                            x       y       z     vdW  Elec       q    Type
REMARK                         _______ _______ _______ _____ _____    ______ ____
ROOT
ATOM      1  O   UNL     1       2.120   4.695  18.571  0.00  0.00    +0.000 OA
ATOM      2  C   UNL     1       3.113   5.237  19.054  0.00  0.00    +0.000 C 
ATOM      3  N   UNL     1       3.117   6.545  19.500  0.00  0.00    +0.000 N 
ATOM      4  H   UNL     1       4.022   6.992  19.604  0.00  0.00    +0.000 HD
ENDROOT
BRANCH   3   5
ATOM      5  C   UNL     1       1.947   7.416  19.385  0.00  0.00    +0.000 C 
ATOM      6  C   UNL     1       1.667   8.076  20.744  0.00  0.00    +0.000 C 
ATOM      7  C   UNL     1       0.571   9.133  20.665  0.00  0.00    +0.000 C 
ATOM      8  C   UNL     1       0.921  10.196  19.621  0.00  0.00    +0.000 C 
ATOM      9  C   UNL     1       1.052   9.525  18.250  0.00  0.00    +0.000 C 
ATOM     10  C   UNL     1       2.141   8.451  18.265  0.00  0.00    +0.000 C 
BRANCH   8  11
ATOM     11  O   UNL     1      -0.120  11.179  19.551  0.00  0.00    +0.000 OA
BRANCH  11  12
ATOM     12  C   UNL     1       0.299  12.469  19.817  0.00  0.00    +0.000 A 
ATOM     13  C   UNL     1       0.327  12.880  21.143  0.00  0.00    +0.000 A 
ATOM     14  N   UNL     1       0.694  14.134  21.516  0.00  0.00    +0.000 NA
ATOM     15  C   UNL     1       1.036  14.957  20.500  0.00  0.00    +0.000 A 
ATOM     16  C   UNL     1       1.021  14.545  19.178  0.00  0.00    +0.000 A 
ATOM     17  N   UNL     1       0.659  13.294  18.808  0.00  0.00    +0.000 NA
ENDBRANCH  11  12
ENDBRANCH   8  11
ENDBRANCH   3   5
BRANCH   2  18
ATOM     18  C   UNL     1       4.454   4.504  19.219  0.00  0.00    +0.000 C 
BRANCH  18  19
ATOM     19  N   UNL     1       5.367   4.808  18.137  0.00  0.00    +0.000 N 
ATOM     20  C   UNL     1       6.472   5.725  18.248  0.00  0.00    +0.000 C 
ATOM     21  C   UNL     1       7.292   5.419  17.001  0.00  0.00    +0.000 C 
ATOM     22  N   UNL     1       6.328   4.834  16.093  0.00  0.00    +0.000 N 
ATOM     23  C   UNL     1       5.217   4.356  16.824  0.00  0.00    +0.000 C 
ATOM     24  O   UNL     1       4.292   3.660  16.443  0.00  0.00    +0.000 OA
BRANCH  22  25
ATOM     25  C   UNL     1       6.577   4.624  14.717  0.00  0.00    +0.000 A 
ATOM     26  C   UNL     1       5.838   3.682  13.990  0.00  0.00    +0.000 A 
ATOM     27  C   UNL     1       6.079   3.474  12.628  0.00  0.00    +0.000 A 
ATOM     28  C   UNL     1       7.075   4.194  11.977  0.00  0.00    +0.000 A 
ATOM     29  C   UNL     1       7.814   5.139  12.682  0.00  0.00    +0.000 A 
ATOM     30  C   UNL     1       7.555   5.364  14.038  0.00  0.00    +0.000 A 
ENDBRANCH  22  25
ENDBRANCH  18  19
ENDBRANCH   2  18
TORSDOF 6
ENDMDL
MODEL 9
REMARK VINA RESULT:      -7.1      1.908      9.074
REMARK  Name = 
REMARK  6 active torsions:
REMARK  status: ('A' for Active; 'I' for Inactive)
REMARK    1  A    between atoms: C_2  and  C_3
REMARK    2  A    between atoms: C_3  and  N_4
REMARK    3  A    between atoms: N_7  and  C_8
REMARK    4  A    between atoms: N_16  and  C_17
REMARK    5  A    between atoms: C_20  and  O_21
REMARK    6  A    between atoms: O_21  and  C_22
REMARK                            x       y       z     vdW  Elec       q    Type
REMARK                         _______ _______ _______ _____ _____    ______ ____
ROOT
ATOM      1  O   UNL     1       1.536   8.827  22.185  0.00  0.00    +0.000 OA
ATOM      2  C   UNL     1       0.864   8.922  21.159  0.00  0.00    +0.000 C 
ATOM      3  N   UNL     1       1.153   8.225  20.001  0.00  0.00    +0.000 N 
ATOM      4  H   UNL     1       0.743   8.574  19.141  0.00  0.00    +0.000 HD
ENDROOT
BRANCH   3   5
ATOM      5  C   UNL     1       2.320   7.351  19.883  0.00  0.00    +0.000 C 
ATOM      6  C   UNL     1       1.939   5.927  20.315  0.00  0.00    +0.000 C 
ATOM      7  C   UNL     1       3.052   4.919  20.054  0.00  0.00    +0.000 C 
ATOM      8  C   UNL     1       3.457   4.934  18.578  0.00  0.00    +0.000 C 
ATOM      9  C   UNL     1       3.969   6.332  18.214  0.00  0.00    +0.000 C 
ATOM     10  C   UNL     1       2.893   7.391  18.455  0.00  0.00    +0.000 C 
BRANCH   8  11
ATOM     11  O   UNL     1       4.509   3.988  18.347  0.00  0.00    +0.000 OA
BRANCH  11  12
ATOM     12  C   UNL     1       5.274   4.251  17.226  0.00  0.00    +0.000 A 
ATOM     13  C   UNL     1       6.612   4.570  17.415  0.00  0.00    +0.000 A 
ATOM     14  N   UNL     1       7.447   4.873  16.388  0.00  0.00    +0.000 NA
ATOM     15  C   UNL     1       6.883   4.839  15.160  0.00  0.00    +0.000 A 
ATOM     16  C   UNL     1       5.552   4.508  14.969  0.00  0.00    +0.000 A 
ATOM     17  N   UNL     1       4.722   4.202  15.992  0.00  0.00    +0.000 NA
ENDBRANCH  11  12
ENDBRANCH   8  11
ENDBRANCH   3   5
BRANCH   2  18
ATOM     18  C   UNL     1      -0.377   9.824  21.067  0.00  0.00    +0.000 C 
BRANCH  18  19
ATOM     19  N   UNL     1      -0.208  10.867  20.077  0.00  0.00    +0.000 N 
ATOM     20  C   UNL     1      -0.870  10.879  18.798  0.00  0.00    +0.000 C 
ATOM     21  C   UNL     1      -0.646  12.307  18.314  0.00  0.00    +0.000 C 
ATOM     22  N   UNL     1       0.533  12.732  19.040  0.00  0.00    +0.000 N 
ATOM     23  C   UNL     1       0.709  11.915  20.180  0.00  0.00    +0.000 C 
ATOM     24  O   UNL     1       1.476  12.062  21.116  0.00  0.00    +0.000 OA
BRANCH  22  25
ATOM     25  C   UNL     1       1.263  13.901  18.728  0.00  0.00    +0.000 A 
ATOM     26  C   UNL     1       2.545  13.820  18.169  0.00  0.00    +0.000 A 
ATOM     27  C   UNL     1       3.269  14.975  17.855  0.00  0.00    +0.000 A 
ATOM     28  C   UNL     1       2.727  16.230  18.112  0.00  0.00    +0.000 A 
ATOM     29  C   UNL     1       1.452  16.330  18.660  0.00  0.00    +0.000 A 
ATOM     30  C   UNL     1       0.719  15.174  18.949  0.00  0.00    +0.000 A 
ENDBRANCH  22  25
ENDBRANCH  18  19
ENDBRANCH   2  18
TORSDOF 6
ENDMDL
