MODEL 1
REMARK VINA RESULT:      -8.9      0.000      0.000
REMARK  Name = 
REMARK  6 active torsions:
REMARK  status: ('A' for Active; 'I' for Inactive)
REMARK    1  A    between atoms: C_1  and  C_2
REMARK    2  A    between atoms: N_11  and  C_12
REMARK    3  A    between atoms: N_11  and  C_13
REMARK    4  A    between atoms: C_13  and  C_14
REMARK    5  A    between atoms: C_14  and  C_16
REMARK    6  A    between atoms: C_20  and  N_21
REMARK                            x       y       z     vdW  Elec       q    Type
REMARK                         _______ _______ _______ _____ _____    ______ ____
ROOT
ATOM      1  C   UNL     1       6.692   5.528  19.288  0.00  0.00    +0.000 C 
ATOM      2  C   UNL     1       5.516   4.584  19.042  0.00  0.00    +0.000 C 
ATOM      3  C   UNL     1       4.266   5.062  19.795  0.00  0.00    +0.000 C 
ATOM      4  C   UNL     1       3.045   4.228  19.496  0.00  0.00    +0.000 A 
ATOM      5  C   UNL     1       1.920   4.366  20.316  0.00  0.00    +0.000 A 
ATOM      6  C   UNL     1       0.771   3.623  20.062  0.00  0.00    +0.000 A 
ATOM      7  C   UNL     1       0.738   2.734  18.990  0.00  0.00    +0.000 A 
ATOM      8  C   UNL     1       1.847   2.599  18.156  0.00  0.00    +0.000 A 
ATOM      9  C   UNL     1       3.002   3.362  18.385  0.00  0.00    +0.000 A 
ATOM     10  C   UNL     1       4.185   3.204  17.466  0.00  0.00    +0.000 C 
ATOM     11  N   UNL     1       5.190   4.382  17.529  0.00  0.00    +0.000 N 
ATOM     12  C   UNL     1       4.533   5.604  16.874  0.00  0.00    +0.000 C 
ENDROOT
BRANCH  11  13
ATOM     13  C   UNL     1       6.451   4.029  16.686  0.00  0.00    +0.000 C 
BRANCH  13  14
ATOM     14  C   UNL     1       6.979   5.105  15.742  0.00  0.00    +0.000 C 
ATOM     15  O   UNL     1       7.410   6.185  16.137  0.00  0.00    +0.000 OA
BRANCH  14  16
ATOM     16  C   UNL     1       6.979   4.824  14.276  0.00  0.00    +0.000 A 
ATOM     17  C   UNL     1       7.883   5.521  13.465  0.00  0.00    +0.000 A 
ATOM     18  C   UNL     1       7.937   5.278  12.090  0.00  0.00    +0.000 A 
ATOM     19  C   UNL     1       7.082   4.337  11.513  0.00  0.00    +0.000 A 
ATOM     20  C   UNL     1       6.172   3.647  12.320  0.00  0.00    +0.000 A 
ATOM     21  C   UNL     1       6.116   3.882  13.705  0.00  0.00    +0.000 A 
BRANCH  20  22
ATOM     22  N   UNL     1       5.255   2.662  11.733  0.00  0.00    +0.000 N 
ATOM     23  O   UNL     1       5.710   1.547  11.448  0.00  0.00    +0.000 OA
ATOM     24  O   UNL     1       4.079   3.015  11.567  0.00  0.00    +0.000 OA
ENDBRANCH  20  22
ENDBRANCH  14  16
ENDBRANCH  13  14
ENDBRANCH  11  13
TORSDOF 4
ENDMDL
MODEL 2
REMARK VINA RESULT:      -8.5      0.860      1.122
REMARK  Name = 
REMARK  6 active torsions:
REMARK  status: ('A' for Active; 'I' for Inactive)
REMARK    1  A    between atoms: C_1  and  C_2
REMARK    2  A    between atoms: N_11  and  C_12
REMARK    3  A    between atoms: N_11  and  C_13
REMARK    4  A    between atoms: C_13  and  C_14
REMARK    5  A    between atoms: C_14  and  C_16
REMARK    6  A    between atoms: C_20  and  N_21
REMARK                            x       y       z     vdW  Elec       q    Type
REMARK                         _______ _______ _______ _____ _____    ______ ____
ROOT
ATOM      1  C   UNL     1       6.884   5.823  19.266  0.00  0.00    +0.000 C 
ATOM      2  C   UNL     1       5.782   4.904  18.740  0.00  0.00    +0.000 C 
ATOM      3  C   UNL     1       4.763   4.585  19.844  0.00  0.00    +0.000 C 
ATOM      4  C   UNL     1       3.593   3.774  19.346  0.00  0.00    +0.000 A 
ATOM      5  C   UNL     1       2.745   3.174  20.283  0.00  0.00    +0.000 A 
ATOM      6  C   UNL     1       1.647   2.429  19.861  0.00  0.00    +0.000 A 
ATOM      7  C   UNL     1       1.391   2.275  18.501  0.00  0.00    +0.000 A 
ATOM      8  C   UNL     1       2.218   2.882  17.557  0.00  0.00    +0.000 A 
ATOM      9  C   UNL     1       3.312   3.657  17.970  0.00  0.00    +0.000 A 
ATOM     10  C   UNL     1       4.189   4.308  16.932  0.00  0.00    +0.000 C 
ATOM     11  N   UNL     1       5.052   5.472  17.481  0.00  0.00    +0.000 N 
ATOM     12  C   UNL     1       4.122   6.651  17.790  0.00  0.00    +0.000 C 
ENDROOT
BRANCH  11  13
ATOM     13  C   UNL     1       6.044   5.943  16.375  0.00  0.00    +0.000 C 
BRANCH  13  14
ATOM     14  C   UNL     1       6.975   4.890  15.784  0.00  0.00    +0.000 C 
ATOM     15  O   UNL     1       7.727   4.203  16.470  0.00  0.00    +0.000 OA
BRANCH  14  16
ATOM     16  C   UNL     1       6.963   4.683  14.305  0.00  0.00    +0.000 A 
ATOM     17  C   UNL     1       7.849   5.432  13.521  0.00  0.00    +0.000 A 
ATOM     18  C   UNL     1       7.892   5.258  12.135  0.00  0.00    +0.000 A 
ATOM     19  C   UNL     1       7.043   4.336  11.521  0.00  0.00    +0.000 A 
ATOM     20  C   UNL     1       6.151   3.595  12.301  0.00  0.00    +0.000 A 
ATOM     21  C   UNL     1       6.107   3.760  13.696  0.00  0.00    +0.000 A 
BRANCH  20  22
ATOM     22  N   UNL     1       5.240   2.628  11.675  0.00  0.00    +0.000 N 
ATOM     23  O   UNL     1       4.093   3.006  11.405  0.00  0.00    +0.000 OA
ATOM     24  O   UNL     1       5.687   1.494  11.452  0.00  0.00    +0.000 OA
ENDBRANCH  20  22
ENDBRANCH  14  16
ENDBRANCH  13  14
ENDBRANCH  11  13
TORSDOF 4
ENDMDL
MODEL 3
REMARK VINA RESULT:      -8.3      1.769      2.572
REMARK  Name = 
REMARK  6 active torsions:
REMARK  status: ('A' for Active; 'I' for Inactive)
REMARK    1  A    between atoms: C_1  and  C_2
REMARK    2  A    between atoms: N_11  and  C_12
REMARK    3  A    between atoms: N_11  and  C_13
REMARK    4  A    between atoms: C_13  and  C_14
REMARK    5  A    between atoms: C_14  and  C_16
REMARK    6  A    between atoms: C_20  and  N_21
REMARK                            x       y       z     vdW  Elec       q    Type
REMARK                         _______ _______ _______ _____ _____    ______ ____
ROOT
ATOM      1  C   UNL     1       4.135   2.744  19.234  0.00  0.00    +0.000 C 
ATOM      2  C   UNL     1       3.658   4.087  18.684  0.00  0.00    +0.000 C 
ATOM      3  C   UNL     1       3.094   4.969  19.808  0.00  0.00    +0.000 C 
ATOM      4  C   UNL     1       2.713   6.350  19.336  0.00  0.00    +0.000 A 
ATOM      5  C   UNL     1       1.931   7.153  20.173  0.00  0.00    +0.000 A 
ATOM      6  C   UNL     1       1.572   8.439  19.777  0.00  0.00    +0.000 A 
ATOM      7  C   UNL     1       1.987   8.929  18.542  0.00  0.00    +0.000 A 
ATOM      8  C   UNL     1       2.780   8.144  17.706  0.00  0.00    +0.000 A 
ATOM      9  C   UNL     1       3.171   6.857  18.105  0.00  0.00    +0.000 A 
ATOM     10  C   UNL     1       4.035   6.031  17.187  0.00  0.00    +0.000 C 
ATOM     11  N   UNL     1       4.762   4.860  17.896  0.00  0.00    +0.000 N 
ATOM     12  C   UNL     1       5.856   5.452  18.793  0.00  0.00    +0.000 C 
ENDROOT
BRANCH  11  13
ATOM     13  C   UNL     1       5.469   3.973  16.829  0.00  0.00    +0.000 C 
BRANCH  13  14
ATOM     14  C   UNL     1       6.704   4.556  16.148  0.00  0.00    +0.000 C 
ATOM     15  O   UNL     1       7.629   5.071  16.771  0.00  0.00    +0.000 OA
BRANCH  14  16
ATOM     16  C   UNL     1       6.790   4.490  14.660  0.00  0.00    +0.000 A 
ATOM     17  C   UNL     1       7.728   5.302  14.010  0.00  0.00    +0.000 A 
ATOM     18  C   UNL     1       7.863   5.259  12.620  0.00  0.00    +0.000 A 
ATOM     19  C   UNL     1       7.056   4.406  11.866  0.00  0.00    +0.000 A 
ATOM     20  C   UNL     1       6.113   3.601  12.512  0.00  0.00    +0.000 A 
ATOM     21  C   UNL     1       5.975   3.634  13.910  0.00  0.00    +0.000 A 
BRANCH  20  22
ATOM     22  N   UNL     1       5.245   2.705  11.738  0.00  0.00    +0.000 N 
ATOM     23  O   UNL     1       5.707   1.610  11.390  0.00  0.00    +0.000 OA
ATOM     24  O   UNL     1       4.100   3.105  11.487  0.00  0.00    +0.000 OA
ENDBRANCH  20  22
ENDBRANCH  14  16
ENDBRANCH  13  14
ENDBRANCH  11  13
TORSDOF 4
ENDMDL
MODEL 4
REMARK VINA RESULT:      -8.1      1.486      2.463
REMARK  Name = 
REMARK  6 active torsions:
REMARK  status: ('A' for Active; 'I' for Inactive)
REMARK    1  A    between atoms: C_1  and  C_2
REMARK    2  A    between atoms: N_11  and  C_12
REMARK    3  A    between atoms: N_11  and  C_13
REMARK    4  A    between atoms: C_13  and  C_14
REMARK    5  A    between atoms: C_14  and  C_16
REMARK    6  A    between atoms: C_20  and  N_21
REMARK                            x       y       z     vdW  Elec       q    Type
REMARK                         _______ _______ _______ _____ _____    ______ ____
ROOT
ATOM      1  C   UNL     1       3.721   1.983  18.518  0.00  0.00    +0.000 C 
ATOM      2  C   UNL     1       3.306   3.449  18.407  0.00  0.00    +0.000 C 
ATOM      3  C   UNL     1       2.712   3.950  19.732  0.00  0.00    +0.000 C 
ATOM      4  C   UNL     1       2.390   5.424  19.711  0.00  0.00    +0.000 A 
ATOM      5  C   UNL     1       1.591   5.951  20.731  0.00  0.00    +0.000 A 
ATOM      6  C   UNL     1       1.284   7.309  20.752  0.00  0.00    +0.000 A 
ATOM      7  C   UNL     1       1.770   8.148  19.753  0.00  0.00    +0.000 A 
ATOM      8  C   UNL     1       2.581   7.638  18.740  0.00  0.00    +0.000 A 
ATOM      9  C   UNL     1       2.919   6.277  18.722  0.00  0.00    +0.000 A 
ATOM     10  C   UNL     1       3.803   5.750  17.622  0.00  0.00    +0.000 C 
ATOM     11  N   UNL     1       4.465   4.388  17.947  0.00  0.00    +0.000 N 
ATOM     12  C   UNL     1       5.531   4.621  19.026  0.00  0.00    +0.000 C 
ENDROOT
BRANCH  11  13
ATOM     13  C   UNL     1       5.199   3.857  16.680  0.00  0.00    +0.000 C 
BRANCH  13  14
ATOM     14  C   UNL     1       6.149   4.819  15.973  0.00  0.00    +0.000 C 
ATOM     15  O   UNL     1       6.690   5.762  16.544  0.00  0.00    +0.000 OA
BRANCH  14  16
ATOM     16  C   UNL     1       6.436   4.597  14.525  0.00  0.00    +0.000 A 
ATOM     17  C   UNL     1       7.503   5.291  13.944  0.00  0.00    +0.000 A 
ATOM     18  C   UNL     1       7.826   5.100  12.598  0.00  0.00    +0.000 A 
ATOM     19  C   UNL     1       7.078   4.215  11.819  0.00  0.00    +0.000 A 
ATOM     20  C   UNL     1       6.006   3.528  12.396  0.00  0.00    +0.000 A 
ATOM     21  C   UNL     1       5.679   3.710  13.751  0.00  0.00    +0.000 A 
BRANCH  20  22
ATOM     22  N   UNL     1       5.198   2.601  11.593  0.00  0.00    +0.000 N 
ATOM     23  O   UNL     1       4.102   2.999  11.179  0.00  0.00    +0.000 OA
ATOM     24  O   UNL     1       5.674   1.477  11.379  0.00  0.00    +0.000 OA
ENDBRANCH  20  22
ENDBRANCH  14  16
ENDBRANCH  13  14
ENDBRANCH  11  13
TORSDOF 4
ENDMDL
MODEL 5
REMARK VINA RESULT:      -7.8      1.201      1.749
REMARK  Name = 
REMARK  6 active torsions:
REMARK  status: ('A' for Active; 'I' for Inactive)
REMARK    1  A    between atoms: C_1  and  C_2
REMARK    2  A    between atoms: N_11  and  C_12
REMARK    3  A    between atoms: N_11  and  C_13
REMARK    4  A    between atoms: C_13  and  C_14
REMARK    5  A    between atoms: C_14  and  C_16
REMARK    6  A    between atoms: C_20  and  N_21
REMARK                            x       y       z     vdW  Elec       q    Type
REMARK                         _______ _______ _______ _____ _____    ______ ____
ROOT
ATOM      1  C   UNL     1       3.615   7.459  16.816  0.00  0.00    +0.000 C 
ATOM      2  C   UNL     1       3.810   6.395  17.896  0.00  0.00    +0.000 C 
ATOM      3  C   UNL     1       2.461   5.804  18.330  0.00  0.00    +0.000 C 
ATOM      4  C   UNL     1       2.606   4.669  19.313  0.00  0.00    +0.000 A 
ATOM      5  C   UNL     1       1.472   4.231  20.004  0.00  0.00    +0.000 A 
ATOM      6  C   UNL     1       1.565   3.176  20.909  0.00  0.00    +0.000 A 
ATOM      7  C   UNL     1       2.791   2.556  21.132  0.00  0.00    +0.000 A 
ATOM      8  C   UNL     1       3.925   2.972  20.437  0.00  0.00    +0.000 A 
ATOM      9  C   UNL     1       3.840   4.016  19.503  0.00  0.00    +0.000 A 
ATOM     10  C   UNL     1       5.078   4.444  18.759  0.00  0.00    +0.000 C 
ATOM     11  N   UNL     1       4.787   5.254  17.470  0.00  0.00    +0.000 N 
ATOM     12  C   UNL     1       4.195   4.296  16.428  0.00  0.00    +0.000 C 
ENDROOT
BRANCH  11  13
ATOM     13  C   UNL     1       6.127   5.797  16.890  0.00  0.00    +0.000 C 
BRANCH  13  14
ATOM     14  C   UNL     1       7.049   4.788  16.213  0.00  0.00    +0.000 C 
ATOM     15  O   UNL     1       7.781   4.026  16.841  0.00  0.00    +0.000 OA
BRANCH  14  16
ATOM     16  C   UNL     1       7.054   4.720  14.722  0.00  0.00    +0.000 A 
ATOM     17  C   UNL     1       7.931   5.556  14.021  0.00  0.00    +0.000 A 
ATOM     18  C   UNL     1       7.990   5.514  12.625  0.00  0.00    +0.000 A 
ATOM     19  C   UNL     1       7.165   4.638  11.918  0.00  0.00    +0.000 A 
ATOM     20  C   UNL     1       6.281   3.809  12.616  0.00  0.00    +0.000 A 
ATOM     21  C   UNL     1       6.221   3.842  14.020  0.00  0.00    +0.000 A 
BRANCH  20  22
ATOM     22  N   UNL     1       5.396   2.888  11.893  0.00  0.00    +0.000 N 
ATOM     23  O   UNL     1       5.843   1.775  11.588  0.00  0.00    +0.000 OA
ATOM     24  O   UNL     1       4.251   3.289  11.638  0.00  0.00    +0.000 OA
ENDBRANCH  20  22
ENDBRANCH  14  16
ENDBRANCH  13  14
ENDBRANCH  11  13
TORSDOF 4
ENDMDL
MODEL 6
REMARK VINA RESULT:      -7.8      3.173      7.171
REMARK  Name = 
REMARK  6 active torsions:
REMARK  status: ('A' for Active; 'I' for Inactive)
REMARK    1  A    between atoms: C_1  and  C_2
REMARK    2  A    between atoms: N_11  and  C_12
REMARK    3  A    between atoms: N_11  and  C_13
REMARK    4  A    between atoms: C_13  and  C_14
REMARK    5  A    between atoms: C_14  and  C_16
REMARK    6  A    between atoms: C_20  and  N_21
REMARK                            x       y       z     vdW  Elec       q    Type
REMARK                         _______ _______ _______ _____ _____    ______ ____
ROOT
ATOM      1  C   UNL     1       7.452   7.487  17.543  0.00  0.00    +0.000 C 
ATOM      2  C   UNL     1       6.741   6.574  16.545  0.00  0.00    +0.000 C 
ATOM      3  C   UNL     1       7.660   6.240  15.360  0.00  0.00    +0.000 C 
ATOM      4  C   UNL     1       7.046   5.250  14.402  0.00  0.00    +0.000 A 
ATOM      5  C   UNL     1       7.638   5.075  13.147  0.00  0.00    +0.000 A 
ATOM      6  C   UNL     1       7.108   4.159  12.242  0.00  0.00    +0.000 A 
ATOM      7  C   UNL     1       5.980   3.417  12.582  0.00  0.00    +0.000 A 
ATOM      8  C   UNL     1       5.390   3.571  13.836  0.00  0.00    +0.000 A 
ATOM      9  C   UNL     1       5.930   4.470  14.767  0.00  0.00    +0.000 A 
ATOM     10  C   UNL     1       5.279   4.614  16.118  0.00  0.00    +0.000 C 
ATOM     11  N   UNL     1       6.193   5.261  17.189  0.00  0.00    +0.000 N 
ATOM     12  C   UNL     1       7.290   4.252  17.553  0.00  0.00    +0.000 C 
ENDROOT
BRANCH  11  13
ATOM     13  C   UNL     1       5.364   5.528  18.480  0.00  0.00    +0.000 C 
BRANCH  13  14
ATOM     14  C   UNL     1       3.883   5.843  18.301  0.00  0.00    +0.000 C 
ATOM     15  O   UNL     1       3.478   6.894  17.811  0.00  0.00    +0.000 OA
BRANCH  14  16
ATOM     16  C   UNL     1       2.883   4.822  18.734  0.00  0.00    +0.000 A 
ATOM     17  C   UNL     1       1.869   4.461  17.839  0.00  0.00    +0.000 A 
ATOM     18  C   UNL     1       0.923   3.493  18.188  0.00  0.00    +0.000 A 
ATOM     19  C   UNL     1       0.981   2.882  19.442  0.00  0.00    +0.000 A 
ATOM     20  C   UNL     1       1.987   3.248  20.341  0.00  0.00    +0.000 A 
ATOM     21  C   UNL     1       2.946   4.216  19.994  0.00  0.00    +0.000 A 
BRANCH  20  22
ATOM     22  N   UNL     1       2.060   2.626  21.669  0.00  0.00    +0.000 N 
ATOM     23  O   UNL     1       3.161   2.209  22.053  0.00  0.00    +0.000 OA
ATOM     24  O   UNL     1       1.009   2.565  22.322  0.00  0.00    +0.000 OA
ENDBRANCH  20  22
ENDBRANCH  14  16
ENDBRANCH  13  14
ENDBRANCH  11  13
TORSDOF 4
ENDMDL
MODEL 7
REMARK VINA RESULT:      -7.4      5.540      8.914
REMARK  Name = 
REMARK  6 active torsions:
REMARK  status: ('A' for Active; 'I' for Inactive)
REMARK    1  A    between atoms: C_1  and  C_2
REMARK    2  A    between atoms: N_11  and  C_12
REMARK    3  A    between atoms: N_11  and  C_13
REMARK    4  A    between atoms: C_13  and  C_14
REMARK    5  A    between atoms: C_14  and  C_16
REMARK    6  A    between atoms: C_20  and  N_21
REMARK                            x       y       z     vdW  Elec       q    Type
REMARK                         _______ _______ _______ _____ _____    ______ ____
ROOT
ATOM      1  C   UNL     1       2.652   4.803  20.593  0.00  0.00    +0.000 C 
ATOM      2  C   UNL     1       3.501   5.267  19.410  0.00  0.00    +0.000 C 
ATOM      3  C   UNL     1       3.882   4.081  18.513  0.00  0.00    +0.000 C 
ATOM      4  C   UNL     1       4.625   4.500  17.269  0.00  0.00    +0.000 A 
ATOM      5  C   UNL     1       5.277   3.519  16.514  0.00  0.00    +0.000 A 
ATOM      6  C   UNL     1       5.962   3.867  15.352  0.00  0.00    +0.000 A 
ATOM      7  C   UNL     1       6.002   5.196  14.939  0.00  0.00    +0.000 A 
ATOM      8  C   UNL     1       5.343   6.180  15.673  0.00  0.00    +0.000 A 
ATOM      9  C   UNL     1       4.628   5.839  16.831  0.00  0.00    +0.000 A 
ATOM     10  C   UNL     1       3.917   6.920  17.605  0.00  0.00    +0.000 C 
ATOM     11  N   UNL     1       2.820   6.387  18.561  0.00  0.00    +0.000 N 
ATOM     12  C   UNL     1       1.647   5.885  17.710  0.00  0.00    +0.000 C 
ENDROOT
BRANCH  11  13
ATOM     13  C   UNL     1       2.286   7.561  19.435  0.00  0.00    +0.000 C 
BRANCH  13  14
ATOM     14  C   UNL     1       1.752   8.787  18.701  0.00  0.00    +0.000 C 
ATOM     15  O   UNL     1       2.079   9.070  17.551  0.00  0.00    +0.000 OA
BRANCH  14  16
ATOM     16  C   UNL     1       0.784   9.673  19.412  0.00  0.00    +0.000 A 
ATOM     17  C   UNL     1       0.032  10.579  18.654  0.00  0.00    +0.000 A 
ATOM     18  C   UNL     1      -0.905  11.415  19.270  0.00  0.00    +0.000 A 
ATOM     19  C   UNL     1      -1.091  11.354  20.652  0.00  0.00    +0.000 A 
ATOM     20  C   UNL     1      -0.334  10.456  21.411  0.00  0.00    +0.000 A 
ATOM     21  C   UNL     1       0.604   9.609  20.798  0.00  0.00    +0.000 A 
BRANCH  20  22
ATOM     22  N   UNL     1      -0.506  10.384  22.867  0.00  0.00    +0.000 N 
ATOM     23  O   UNL     1       0.385   9.834  23.528  0.00  0.00    +0.000 OA
ATOM     24  O   UNL     1      -1.536  10.885  23.340  0.00  0.00    +0.000 OA
ENDBRANCH  20  22
ENDBRANCH  14  16
ENDBRANCH  13  14
ENDBRANCH  11  13
TORSDOF 4
ENDMDL
MODEL 8
REMARK VINA RESULT:      -7.3      2.554      3.753
REMARK  Name = 
REMARK  6 active torsions:
REMARK  status: ('A' for Active; 'I' for Inactive)
REMARK    1  A    between atoms: C_1  and  C_2
REMARK    2  A    between atoms: N_11  and  C_12
REMARK    3  A    between atoms: N_11  and  C_13
REMARK    4  A    between atoms: C_13  and  C_14
REMARK    5  A    between atoms: C_14  and  C_16
REMARK    6  A    between atoms: C_20  and  N_21
REMARK                            x       y       z     vdW  Elec       q    Type
REMARK                         _______ _______ _______ _____ _____    ______ ____
ROOT
ATOM      1  C   UNL     1       2.492   3.405  20.988  0.00  0.00    +0.000 C 
ATOM      2  C   UNL     1       2.277   4.587  20.044  0.00  0.00    +0.000 C 
ATOM      3  C   UNL     1       1.966   5.867  20.834  0.00  0.00    +0.000 C 
ATOM      4  C   UNL     1       1.857   7.088  19.955  0.00  0.00    +0.000 A 
ATOM      5  C   UNL     1       1.302   8.255  20.492  0.00  0.00    +0.000 A 
ATOM      6  C   UNL     1       1.199   9.405  19.714  0.00  0.00    +0.000 A 
ATOM      7  C   UNL     1       1.644   9.397  18.395  0.00  0.00    +0.000 A 
ATOM      8  C   UNL     1       2.214   8.246  17.854  0.00  0.00    +0.000 A 
ATOM      9  C   UNL     1       2.349   7.088  18.634  0.00  0.00    +0.000 A 
ATOM     10  C   UNL     1       2.974   5.858  18.029  0.00  0.00    +0.000 C 
ATOM     11  N   UNL     1       3.477   4.831  19.075  0.00  0.00    +0.000 N 
ATOM     12  C   UNL     1       4.714   5.419  19.765  0.00  0.00    +0.000 C 
ENDROOT
BRANCH  11  13
ATOM     13  C   UNL     1       3.930   3.532  18.344  0.00  0.00    +0.000 C 
BRANCH  13  14
ATOM     14  C   UNL     1       3.802   3.510  16.824  0.00  0.00    +0.000 C 
ATOM     15  O   UNL     1       2.782   3.145  16.246  0.00  0.00    +0.000 OA
BRANCH  14  16
ATOM     16  C   UNL     1       4.967   3.962  16.008  0.00  0.00    +0.000 A 
ATOM     17  C   UNL     1       5.963   4.722  16.633  0.00  0.00    +0.000 A 
ATOM     18  C   UNL     1       7.085   5.149  15.918  0.00  0.00    +0.000 A 
ATOM     19  C   UNL     1       7.216   4.824  14.566  0.00  0.00    +0.000 A 
ATOM     20  C   UNL     1       6.218   4.074  13.938  0.00  0.00    +0.000 A 
ATOM     21  C   UNL     1       5.090   3.635  14.653  0.00  0.00    +0.000 A 
BRANCH  20  22
ATOM     22  N   UNL     1       6.330   3.731  12.515  0.00  0.00    +0.000 N 
ATOM     23  O   UNL     1       7.284   4.199  11.880  0.00  0.00    +0.000 OA
ATOM     24  O   UNL     1       5.459   2.987  12.044  0.00  0.00    +0.000 OA
ENDBRANCH  20  22
ENDBRANCH  14  16
ENDBRANCH  13  14
ENDBRANCH  11  13
TORSDOF 4
ENDMDL
MODEL 9
REMARK VINA RESULT:      -7.2      2.795      4.302
REMARK  Name = 
REMARK  6 active torsions:
REMARK  status: ('A' for Active; 'I' for Inactive)
REMARK    1  A    between atoms: C_1  and  C_2
REMARK    2  A    between atoms: N_11  and  C_12
REMARK    3  A    between atoms: N_11  and  C_13
REMARK    4  A    between atoms: C_13  and  C_14
REMARK    5  A    between atoms: C_14  and  C_16
REMARK    6  A    between atoms: C_20  and  N_21
REMARK                            x       y       z     vdW  Elec       q    Type
REMARK                         _______ _______ _______ _____ _____    ______ ____
ROOT
ATOM      1  C   UNL     1       1.656   3.669  21.077  0.00  0.00    +0.000 C 
ATOM      2  C   UNL     1       1.643   4.841  20.097  0.00  0.00    +0.000 C 
ATOM      3  C   UNL     1       1.432   6.170  20.837  0.00  0.00    +0.000 C 
ATOM      4  C   UNL     1       1.525   7.370  19.927  0.00  0.00    +0.000 A 
ATOM      5  C   UNL     1       1.076   8.607  20.400  0.00  0.00    +0.000 A 
ATOM      6  C   UNL     1       1.159   9.740  19.594  0.00  0.00    +0.000 A 
ATOM      7  C   UNL     1       1.687   9.643  18.309  0.00  0.00    +0.000 A 
ATOM      8  C   UNL     1       2.153   8.419  17.832  0.00  0.00    +0.000 A 
ATOM      9  C   UNL     1       2.099   7.276  18.644  0.00  0.00    +0.000 A 
ATOM     10  C   UNL     1       2.615   5.965  18.108  0.00  0.00    +0.000 C 
ATOM     11  N   UNL     1       2.925   4.917  19.207  0.00  0.00    +0.000 N 
ATOM     12  C   UNL     1       4.174   5.379  19.968  0.00  0.00    +0.000 C 
ENDROOT
BRANCH  11  13
ATOM     13  C   UNL     1       3.270   3.555  18.536  0.00  0.00    +0.000 C 
BRANCH  13  14
ATOM     14  C   UNL     1       3.578   3.575  17.042  0.00  0.00    +0.000 C 
ATOM     15  O   UNL     1       2.749   3.281  16.185  0.00  0.00    +0.000 OA
BRANCH  14  16
ATOM     16  C   UNL     1       4.948   3.980  16.606  0.00  0.00    +0.000 A 
ATOM     17  C   UNL     1       5.912   4.230  17.590  0.00  0.00    +0.000 A 
ATOM     18  C   UNL     1       7.215   4.589  17.232  0.00  0.00    +0.000 A 
ATOM     19  C   UNL     1       7.562   4.707  15.885  0.00  0.00    +0.000 A 
ATOM     20  C   UNL     1       6.597   4.467  14.902  0.00  0.00    +0.000 A 
ATOM     21  C   UNL     1       5.287   4.099  15.254  0.00  0.00    +0.000 A 
BRANCH  20  22
ATOM     22  N   UNL     1       6.936   4.596  13.480  0.00  0.00    +0.000 N 
ATOM     23  O   UNL     1       6.381   3.832  12.680  0.00  0.00    +0.000 OA
ATOM     24  O   UNL     1       7.759   5.471  13.173  0.00  0.00    +0.000 OA
ENDBRANCH  20  22
ENDBRANCH  14  16
ENDBRANCH  13  14
ENDBRANCH  11  13
TORSDOF 4
ENDMDL
