MODEL 1
REMARK VINA RESULT:      -8.2      0.000      0.000
REMARK  Name = 
REMARK  6 active torsions:
REMARK  status: ('A' for Active; 'I' for Inactive)
REMARK    1  A    between atoms: C_1  and  O_2
REMARK    2  A    between atoms: O_2  and  C_3
REMARK    3  A    between atoms: C_3  and  C_5
REMARK    4  A    between atoms: C_15  and  C_17
REMARK    5  A    between atoms: C_17  and  C_18
REMARK    6  A    between atoms: C_18  and  N_19
REMARK                            x       y       z     vdW  Elec       q    Type
REMARK                         _______ _______ _______ _____ _____    ______ ____
ROOT
ATOM      1  C   UNL     1       3.966   4.724  18.355  0.00  0.00    +0.000 A 
ATOM      2  C   UNL     1       4.698   5.155  17.235  0.00  0.00    +0.000 A 
ATOM      3  C   UNL     1       4.620   6.473  16.811  0.00  0.00    +0.000 A 
ATOM      4  C   UNL     1       3.799   7.369  17.488  0.00  0.00    +0.000 A 
ATOM      5  C   UNL     1       3.029   6.976  18.596  0.00  0.00    +0.000 A 
ATOM      6  C   UNL     1       3.130   5.638  19.056  0.00  0.00    +0.000 A 
ATOM      7  C   UNL     1       2.361   5.183  20.277  0.00  0.00    +0.000 C 
ATOM      8  C   UNL     1       1.307   6.173  20.754  0.00  0.00    +0.000 C 
ATOM      9  C   UNL     1       1.855   7.580  20.662  0.00  0.00    +0.000 C 
ATOM     10  N   UNL     1       2.162   7.917  19.267  0.00  0.00    +0.000 N 
ATOM     11  C   UNL     1       1.614   9.027  18.600  0.00  0.00    +0.000 C 
ATOM     12  O   UNL     1       1.822   9.305  17.417  0.00  0.00    +0.000 OA
ENDROOT
BRANCH   1  13
ATOM     13  C   UNL     1       4.137   3.301  18.791  0.00  0.00    +0.000 C 
ATOM     14  O   UNL     1       4.915   2.922  19.649  0.00  0.00    +0.000 OA
BRANCH  13  16
ATOM     15  C   UNL     1       2.267   1.885  18.842  0.00  0.00    +0.000 C 
ATOM     16  O   UNL     1       3.302   2.503  18.077  0.00  0.00    +0.000 OA
ENDBRANCH  13  16
ENDBRANCH   1  13
BRANCH  11  17
ATOM     17  C   UNL     1       0.649   9.899  19.387  0.00  0.00    +0.000 C 
BRANCH  17  18
ATOM     18  C   UNL     1       0.293  11.159  18.597  0.00  0.00    +0.000 C 
BRANCH  18  19
ATOM     19  N   UNL     1      -1.141  11.383  18.562  0.00  0.00    +0.000 N 
ATOM     20  C   UNL     1      -1.994  10.774  17.666  0.00  0.00    +0.000 C 
ATOM     21  O   UNL     1      -1.739   9.888  16.872  0.00  0.00    +0.000 OA
ATOM     22  C   UNL     1      -3.310  11.484  17.825  0.00  0.00    +0.000 C 
ATOM     23  C   UNL     1      -4.604  10.789  17.455  0.00  0.00    +0.000 C 
ATOM     24  C   UNL     1      -5.778  11.702  17.848  0.00  0.00    +0.000 C 
ATOM     25  C   UNL     1      -5.715  12.151  19.320  0.00  0.00    +0.000 C 
ATOM     26  C   UNL     1      -4.357  12.770  19.691  0.00  0.00    +0.000 C 
ATOM     27  C   UNL     1      -3.273  11.786  19.314  0.00  0.00    +0.000 C 
ATOM     28  C   UNL     1      -1.821  12.132  19.497  0.00  0.00    +0.000 C 
ATOM     29  O   UNL     1      -1.352  12.826  20.381  0.00  0.00    +0.000 OA
ENDBRANCH  18  19
ENDBRANCH  17  18
ENDBRANCH  11  17
TORSDOF 5
ENDMDL
MODEL 2
REMARK VINA RESULT:      -8.0      0.492      1.863
REMARK  Name = 
REMARK  6 active torsions:
REMARK  status: ('A' for Active; 'I' for Inactive)
REMARK    1  A    between atoms: C_1  and  O_2
REMARK    2  A    between atoms: O_2  and  C_3
REMARK    3  A    between atoms: C_3  and  C_5
REMARK    4  A    between atoms: C_15  and  C_17
REMARK    5  A    between atoms: C_17  and  C_18
REMARK    6  A    between atoms: C_18  and  N_19
REMARK                            x       y       z     vdW  Elec       q    Type
REMARK                         _______ _______ _______ _____ _____    ______ ____
ROOT
ATOM      1  C   UNL     1       3.887   4.501  18.269  0.00  0.00    +0.000 A 
ATOM      2  C   UNL     1       4.652   4.924  17.169  0.00  0.00    +0.000 A 
ATOM      3  C   UNL     1       4.642   6.253  16.776  0.00  0.00    +0.000 A 
ATOM      4  C   UNL     1       3.855   7.171  17.466  0.00  0.00    +0.000 A 
ATOM      5  C   UNL     1       3.053   6.788  18.555  0.00  0.00    +0.000 A 
ATOM      6  C   UNL     1       3.086   5.436  18.983  0.00  0.00    +0.000 A 
ATOM      7  C   UNL     1       2.281   4.989  20.184  0.00  0.00    +0.000 C 
ATOM      8  C   UNL     1       1.268   6.016  20.672  0.00  0.00    +0.000 C 
ATOM      9  C   UNL     1       1.883   7.398  20.621  0.00  0.00    +0.000 C 
ATOM     10  N   UNL     1       2.223   7.753  19.239  0.00  0.00    +0.000 N 
ATOM     11  C   UNL     1       1.736   8.903  18.593  0.00  0.00    +0.000 C 
ATOM     12  O   UNL     1       1.972   9.199  17.419  0.00  0.00    +0.000 OA
ENDROOT
BRANCH   1  13
ATOM     13  C   UNL     1       3.985   3.062  18.673  0.00  0.00    +0.000 C 
ATOM     14  O   UNL     1       3.285   2.164  18.238  0.00  0.00    +0.000 OA
BRANCH  13  16
ATOM     15  C   UNL     1       4.769   1.828  20.509  0.00  0.00    +0.000 C 
ATOM     16  O   UNL     1       4.963   2.916  19.604  0.00  0.00    +0.000 OA
ENDBRANCH  13  16
ENDBRANCH   1  13
BRANCH  11  17
ATOM     17  C   UNL     1       0.803   9.800  19.390  0.00  0.00    +0.000 C 
BRANCH  17  18
ATOM     18  C   UNL     1       0.372  11.007  18.555  0.00  0.00    +0.000 C 
BRANCH  18  19
ATOM     19  N   UNL     1      -1.057  11.241  18.647  0.00  0.00    +0.000 N 
ATOM     20  C   UNL     1      -1.642  12.081  19.571  0.00  0.00    +0.000 C 
ATOM     21  O   UNL     1      -1.093  12.838  20.349  0.00  0.00    +0.000 OA
ATOM     22  C   UNL     1      -3.119  11.819  19.468  0.00  0.00    +0.000 C 
ATOM     23  C   UNL     1      -4.116  12.880  19.884  0.00  0.00    +0.000 C 
ATOM     24  C   UNL     1      -5.531  12.382  19.542  0.00  0.00    +0.000 C 
ATOM     25  C   UNL     1      -5.668  11.945  18.072  0.00  0.00    +0.000 C 
ATOM     26  C   UNL     1      -4.587  10.935  17.653  0.00  0.00    +0.000 C 
ATOM     27  C   UNL     1      -3.236  11.529  17.981  0.00  0.00    +0.000 C 
ATOM     28  C   UNL     1      -1.974  10.748  17.744  0.00  0.00    +0.000 C 
ATOM     29  O   UNL     1      -1.779   9.947  16.847  0.00  0.00    +0.000 OA
ENDBRANCH  18  19
ENDBRANCH  17  18
ENDBRANCH  11  17
TORSDOF 5
ENDMDL
MODEL 3
REMARK VINA RESULT:      -7.9      2.552      3.586
REMARK  Name = 
REMARK  6 active torsions:
REMARK  status: ('A' for Active; 'I' for Inactive)
REMARK    1  A    between atoms: C_1  and  O_2
REMARK    2  A    between atoms: O_2  and  C_3
REMARK    3  A    between atoms: C_3  and  C_5
REMARK    4  A    between atoms: C_15  and  C_17
REMARK    5  A    between atoms: C_17  and  C_18
REMARK    6  A    between atoms: C_18  and  N_19
REMARK                            x       y       z     vdW  Elec       q    Type
REMARK                         _______ _______ _______ _____ _____    ______ ____
ROOT
ATOM      1  C   UNL     1       3.810   4.795  19.107  0.00  0.00    +0.000 A 
ATOM      2  C   UNL     1       3.297   4.081  20.203  0.00  0.00    +0.000 A 
ATOM      3  C   UNL     1       2.281   4.619  20.978  0.00  0.00    +0.000 A 
ATOM      4  C   UNL     1       1.780   5.882  20.679  0.00  0.00    +0.000 A 
ATOM      5  C   UNL     1       2.281   6.644  19.610  0.00  0.00    +0.000 A 
ATOM      6  C   UNL     1       3.296   6.085  18.792  0.00  0.00    +0.000 A 
ATOM      7  C   UNL     1       3.829   6.846  17.598  0.00  0.00    +0.000 C 
ATOM      8  C   UNL     1       3.396   8.304  17.545  0.00  0.00    +0.000 C 
ATOM      9  C   UNL     1       1.943   8.417  17.951  0.00  0.00    +0.000 C 
ATOM     10  N   UNL     1       1.764   7.964  19.335  0.00  0.00    +0.000 N 
ATOM     11  C   UNL     1       1.197   8.764  20.344  0.00  0.00    +0.000 C 
ATOM     12  O   UNL     1       1.078   8.423  21.523  0.00  0.00    +0.000 OA
ENDROOT
BRANCH   1  13
ATOM     13  C   UNL     1       4.869   4.134  18.279  0.00  0.00    +0.000 C 
ATOM     14  O   UNL     1       4.658   3.426  17.309  0.00  0.00    +0.000 OA
BRANCH  13  16
ATOM     15  C   UNL     1       7.106   4.653  17.800  0.00  0.00    +0.000 C 
ATOM     16  O   UNL     1       6.094   4.434  18.783  0.00  0.00    +0.000 OA
ENDBRANCH  13  16
ENDBRANCH   1  13
BRANCH  11  17
ATOM     17  C   UNL     1       0.765  10.168  19.951  0.00  0.00    +0.000 C 
BRANCH  17  18
ATOM     18  C   UNL     1       1.005  11.147  21.101  0.00  0.00    +0.000 C 
BRANCH  18  19
ATOM     19  N   UNL     1      -0.230  11.770  21.543  0.00  0.00    +0.000 N 
ATOM     20  C   UNL     1      -0.881  12.766  20.847  0.00  0.00    +0.000 C 
ATOM     21  O   UNL     1      -0.629  13.192  19.735  0.00  0.00    +0.000 OA
ATOM     22  C   UNL     1      -1.943  13.275  21.782  0.00  0.00    +0.000 C 
ATOM     23  C   UNL     1      -3.186  13.946  21.236  0.00  0.00    +0.000 C 
ATOM     24  C   UNL     1      -4.139  14.235  22.408  0.00  0.00    +0.000 C 
ATOM     25  C   UNL     1      -4.434  12.984  23.256  0.00  0.00    +0.000 C 
ATOM     26  C   UNL     1      -3.153  12.271  23.721  0.00  0.00    +0.000 C 
ATOM     27  C   UNL     1      -2.305  11.986  22.502  0.00  0.00    +0.000 C 
ATOM     28  C   UNL     1      -0.951  11.348  22.638  0.00  0.00    +0.000 C 
ATOM     29  O   UNL     1      -0.623  10.526  23.475  0.00  0.00    +0.000 OA
ENDBRANCH  18  19
ENDBRANCH  17  18
ENDBRANCH  11  17
TORSDOF 5
ENDMDL
MODEL 4
REMARK VINA RESULT:      -7.9      2.601      3.700
REMARK  Name = 
REMARK  6 active torsions:
REMARK  status: ('A' for Active; 'I' for Inactive)
REMARK    1  A    between atoms: C_1  and  O_2
REMARK    2  A    between atoms: O_2  and  C_3
REMARK    3  A    between atoms: C_3  and  C_5
REMARK    4  A    between atoms: C_15  and  C_17
REMARK    5  A    between atoms: C_17  and  C_18
REMARK    6  A    between atoms: C_18  and  N_19
REMARK                            x       y       z     vdW  Elec       q    Type
REMARK                         _______ _______ _______ _____ _____    ______ ____
ROOT
ATOM      1  C   UNL     1       3.858   4.811  19.023  0.00  0.00    +0.000 A 
ATOM      2  C   UNL     1       3.328   4.095  20.111  0.00  0.00    +0.000 A 
ATOM      3  C   UNL     1       2.304   4.634  20.874  0.00  0.00    +0.000 A 
ATOM      4  C   UNL     1       1.810   5.899  20.571  0.00  0.00    +0.000 A 
ATOM      5  C   UNL     1       2.327   6.662  19.510  0.00  0.00    +0.000 A 
ATOM      6  C   UNL     1       3.351   6.102  18.704  0.00  0.00    +0.000 A 
ATOM      7  C   UNL     1       3.901   6.864  17.518  0.00  0.00    +0.000 C 
ATOM      8  C   UNL     1       3.472   8.324  17.462  0.00  0.00    +0.000 C 
ATOM      9  C   UNL     1       2.014   8.439  17.850  0.00  0.00    +0.000 C 
ATOM     10  N   UNL     1       1.816   7.984  19.231  0.00  0.00    +0.000 N 
ATOM     11  C   UNL     1       1.238   8.784  20.233  0.00  0.00    +0.000 C 
ATOM     12  O   UNL     1       1.102   8.441  21.410  0.00  0.00    +0.000 OA
ENDROOT
BRANCH   1  13
ATOM     13  C   UNL     1       4.926   4.148  18.208  0.00  0.00    +0.000 C 
ATOM     14  O   UNL     1       4.736   3.538  17.170  0.00  0.00    +0.000 OA
BRANCH  13  16
ATOM     15  C   UNL     1       7.184   4.724  17.932  0.00  0.00    +0.000 C 
ATOM     16  O   UNL     1       6.131   4.322  18.809  0.00  0.00    +0.000 OA
ENDBRANCH  13  16
ENDBRANCH   1  13
BRANCH  11  17
ATOM     17  C   UNL     1       0.815  10.189  19.838  0.00  0.00    +0.000 C 
BRANCH  17  18
ATOM     18  C   UNL     1       1.012  11.159  21.003  0.00  0.00    +0.000 C 
BRANCH  18  19
ATOM     19  N   UNL     1      -0.247  11.736  21.440  0.00  0.00    +0.000 N 
ATOM     20  C   UNL     1      -0.924  11.337  22.573  0.00  0.00    +0.000 C 
ATOM     21  O   UNL     1      -0.551  10.566  23.437  0.00  0.00    +0.000 OA
ATOM     22  C   UNL     1      -2.267  12.009  22.490  0.00  0.00    +0.000 C 
ATOM     23  C   UNL     1      -3.067  12.279  23.747  0.00  0.00    +0.000 C 
ATOM     24  C   UNL     1      -4.319  13.087  23.365  0.00  0.00    +0.000 C 
ATOM     25  C   UNL     1      -3.984  14.356  22.560  0.00  0.00    +0.000 C 
ATOM     26  C   UNL     1      -3.095  14.064  21.340  0.00  0.00    +0.000 C 
ATOM     27  C   UNL     1      -1.873  13.313  21.818  0.00  0.00    +0.000 C 
ATOM     28  C   UNL     1      -0.837  12.828  20.842  0.00  0.00    +0.000 C 
ATOM     29  O   UNL     1      -0.510  13.378  19.806  0.00  0.00    +0.000 OA
ENDBRANCH  18  19
ENDBRANCH  17  18
ENDBRANCH  11  17
TORSDOF 5
ENDMDL
MODEL 5
REMARK VINA RESULT:      -7.8      2.138      3.302
REMARK  Name = 
REMARK  6 active torsions:
REMARK  status: ('A' for Active; 'I' for Inactive)
REMARK    1  A    between atoms: C_1  and  O_2
REMARK    2  A    between atoms: O_2  and  C_3
REMARK    3  A    between atoms: C_3  and  C_5
REMARK    4  A    between atoms: C_15  and  C_17
REMARK    5  A    between atoms: C_17  and  C_18
REMARK    6  A    between atoms: C_18  and  N_19
REMARK                            x       y       z     vdW  Elec       q    Type
REMARK                         _______ _______ _______ _____ _____    ______ ____
ROOT
ATOM      1  C   UNL     1       4.043   4.385  18.456  0.00  0.00    +0.000 A 
ATOM      2  C   UNL     1       4.790   4.759  17.326  0.00  0.00    +0.000 A 
ATOM      3  C   UNL     1       4.747   6.063  16.856  0.00  0.00    +0.000 A 
ATOM      4  C   UNL     1       3.945   7.002  17.498  0.00  0.00    +0.000 A 
ATOM      5  C   UNL     1       3.160   6.667  18.614  0.00  0.00    +0.000 A 
ATOM      6  C   UNL     1       3.226   5.344  19.120  0.00  0.00    +0.000 A 
ATOM      7  C   UNL     1       2.440   4.951  20.352  0.00  0.00    +0.000 C 
ATOM      8  C   UNL     1       1.409   5.982  20.788  0.00  0.00    +0.000 C 
ATOM      9  C   UNL     1       1.991   7.371  20.651  0.00  0.00    +0.000 C 
ATOM     10  N   UNL     1       2.314   7.652  19.247  0.00  0.00    +0.000 N 
ATOM     11  C   UNL     1       1.796   8.751  18.539  0.00  0.00    +0.000 C 
ATOM     12  O   UNL     1       2.016   8.983  17.348  0.00  0.00    +0.000 OA
ENDROOT
BRANCH   1  13
ATOM     13  C   UNL     1       4.176   2.975  18.943  0.00  0.00    +0.000 C 
ATOM     14  O   UNL     1       4.871   2.621  19.880  0.00  0.00    +0.000 OA
BRANCH  13  16
ATOM     15  C   UNL     1       2.145   1.818  18.733  0.00  0.00    +0.000 C 
ATOM     16  O   UNL     1       3.416   2.154  18.173  0.00  0.00    +0.000 OA
ENDBRANCH  13  16
ENDBRANCH   1  13
BRANCH  11  17
ATOM     17  C   UNL     1       0.849   9.673  19.290  0.00  0.00    +0.000 C 
BRANCH  17  18
ATOM     18  C   UNL     1       0.091  10.576  18.316  0.00  0.00    +0.000 C 
BRANCH  18  19
ATOM     19  N   UNL     1       0.294  11.981  18.617  0.00  0.00    +0.000 N 
ATOM     20  C   UNL     1       1.502  12.631  18.480  0.00  0.00    +0.000 C 
ATOM     21  O   UNL     1       2.530  12.206  17.985  0.00  0.00    +0.000 OA
ATOM     22  C   UNL     1       1.311  13.970  19.135  0.00  0.00    +0.000 C 
ATOM     23  C   UNL     1       2.168  15.151  18.729  0.00  0.00    +0.000 C 
ATOM     24  C   UNL     1       1.656  16.401  19.465  0.00  0.00    +0.000 C 
ATOM     25  C   UNL     1       0.148  16.633  19.265  0.00  0.00    +0.000 C 
ATOM     26  C   UNL     1      -0.691  15.388  19.598  0.00  0.00    +0.000 C 
ATOM     27  C   UNL     1      -0.148  14.227  18.796  0.00  0.00    +0.000 C 
ATOM     28  C   UNL     1      -0.723  12.847  18.953  0.00  0.00    +0.000 C 
ATOM     29  O   UNL     1      -1.885  12.574  19.194  0.00  0.00    +0.000 OA
ENDBRANCH  18  19
ENDBRANCH  17  18
ENDBRANCH  11  17
TORSDOF 5
ENDMDL
MODEL 6
REMARK VINA RESULT:      -7.8      0.440      1.717
REMARK  Name = 
REMARK  6 active torsions:
REMARK  status: ('A' for Active; 'I' for Inactive)
REMARK    1  A    between atoms: C_1  and  O_2
REMARK    2  A    between atoms: O_2  and  C_3
REMARK    3  A    between atoms: C_3  and  C_5
REMARK    4  A    between atoms: C_15  and  C_17
REMARK    5  A    between atoms: C_17  and  C_18
REMARK    6  A    between atoms: C_18  and  N_19
REMARK                            x       y       z     vdW  Elec       q    Type
REMARK                         _______ _______ _______ _____ _____    ______ ____
ROOT
ATOM      1  C   UNL     1       3.743   4.879  18.608  0.00  0.00    +0.000 A 
ATOM      2  C   UNL     1       4.464   5.252  17.462  0.00  0.00    +0.000 A 
ATOM      3  C   UNL     1       4.388   6.548  16.975  0.00  0.00    +0.000 A 
ATOM      4  C   UNL     1       3.577   7.479  17.616  0.00  0.00    +0.000 A 
ATOM      5  C   UNL     1       2.817   7.144  18.749  0.00  0.00    +0.000 A 
ATOM      6  C   UNL     1       2.917   5.830  19.272  0.00  0.00    +0.000 A 
ATOM      7  C   UNL     1       2.159   5.438  20.522  0.00  0.00    +0.000 C 
ATOM      8  C   UNL     1       1.114   6.455  20.960  0.00  0.00    +0.000 C 
ATOM      9  C   UNL     1       1.666   7.853  20.795  0.00  0.00    +0.000 C 
ATOM     10  N   UNL     1       1.961   8.121  19.382  0.00  0.00    +0.000 N 
ATOM     11  C   UNL     1       1.410   9.199  18.668  0.00  0.00    +0.000 C 
ATOM     12  O   UNL     1       1.607   9.419  17.470  0.00  0.00    +0.000 OA
ENDROOT
BRANCH   1  13
ATOM     13  C   UNL     1       3.912   3.478  19.112  0.00  0.00    +0.000 C 
ATOM     14  O   UNL     1       4.930   3.034  19.615  0.00  0.00    +0.000 OA
BRANCH  13  16
ATOM     15  C   UNL     1       2.718   2.046  17.687  0.00  0.00    +0.000 C 
ATOM     16  O   UNL     1       2.764   2.780  18.911  0.00  0.00    +0.000 OA
ENDBRANCH  13  16
ENDBRANCH   1  13
BRANCH  11  17
ATOM     17  C   UNL     1       0.457  10.113  19.421  0.00  0.00    +0.000 C 
BRANCH  17  18
ATOM     18  C   UNL     1       0.008  11.274  18.533  0.00  0.00    +0.000 C 
BRANCH  18  19
ATOM     19  N   UNL     1      -1.436  11.425  18.536  0.00  0.00    +0.000 N 
ATOM     20  C   UNL     1      -2.127  12.204  19.440  0.00  0.00    +0.000 C 
ATOM     21  O   UNL     1      -1.673  12.969  20.271  0.00  0.00    +0.000 OA
ATOM     22  C   UNL     1      -3.576  11.864  19.233  0.00  0.00    +0.000 C 
ATOM     23  C   UNL     1      -4.657  12.856  19.608  0.00  0.00    +0.000 C 
ATOM     24  C   UNL     1      -6.016  12.290  19.162  0.00  0.00    +0.000 C 
ATOM     25  C   UNL     1      -6.033  11.888  17.675  0.00  0.00    +0.000 C 
ATOM     26  C   UNL     1      -4.871  10.952  17.303  0.00  0.00    +0.000 C 
ATOM     27  C   UNL     1      -3.580  11.611  17.735  0.00  0.00    +0.000 C 
ATOM     28  C   UNL     1      -2.262  10.908  17.562  0.00  0.00    +0.000 C 
ATOM     29  O   UNL     1      -1.965  10.145  16.661  0.00  0.00    +0.000 OA
ENDBRANCH  18  19
ENDBRANCH  17  18
ENDBRANCH  11  17
TORSDOF 5
ENDMDL
MODEL 7
REMARK VINA RESULT:      -7.7      1.976      9.074
REMARK  Name = 
REMARK  6 active torsions:
REMARK  status: ('A' for Active; 'I' for Inactive)
REMARK    1  A    between atoms: C_1  and  O_2
REMARK    2  A    between atoms: O_2  and  C_3
REMARK    3  A    between atoms: C_3  and  C_5
REMARK    4  A    between atoms: C_15  and  C_17
REMARK    5  A    between atoms: C_17  and  C_18
REMARK    6  A    between atoms: C_18  and  N_19
REMARK                            x       y       z     vdW  Elec       q    Type
REMARK                         _______ _______ _______ _____ _____    ______ ____
ROOT
ATOM      1  C   UNL     1      -4.170  12.488  19.688  0.00  0.00    +0.000 A 
ATOM      2  C   UNL     1      -3.572  13.367  20.607  0.00  0.00    +0.000 A 
ATOM      3  C   UNL     1      -2.193  13.406  20.747  0.00  0.00    +0.000 A 
ATOM      4  C   UNL     1      -1.399  12.555  19.984  0.00  0.00    +0.000 A 
ATOM      5  C   UNL     1      -1.954  11.641  19.072  0.00  0.00    +0.000 A 
ATOM      6  C   UNL     1      -3.362  11.621  18.900  0.00  0.00    +0.000 A 
ATOM      7  C   UNL     1      -4.001  10.692  17.891  0.00  0.00    +0.000 C 
ATOM      8  C   UNL     1      -3.056   9.640  17.328  0.00  0.00    +0.000 C 
ATOM      9  C   UNL     1      -1.704  10.263  17.061  0.00  0.00    +0.000 C 
ATOM     10  N   UNL     1      -1.111  10.749  18.311  0.00  0.00    +0.000 N 
ATOM     11  C   UNL     1       0.150  10.339  18.780  0.00  0.00    +0.000 C 
ATOM     12  O   UNL     1       0.650  10.698  19.849  0.00  0.00    +0.000 OA
ENDROOT
BRANCH   1  13
ATOM     13  C   UNL     1      -5.661  12.536  19.549  0.00  0.00    +0.000 C 
ATOM     14  O   UNL     1      -6.266  13.201  18.726  0.00  0.00    +0.000 OA
BRANCH  13  16
ATOM     15  C   UNL     1      -7.143  10.765  19.969  0.00  0.00    +0.000 C 
ATOM     16  O   UNL     1      -6.231  11.735  20.486  0.00  0.00    +0.000 OA
ENDBRANCH  13  16
ENDBRANCH   1  13
BRANCH  11  17
ATOM     17  C   UNL     1       0.909   9.332  17.931  0.00  0.00    +0.000 C 
BRANCH  17  18
ATOM     18  C   UNL     1       2.250   8.982  18.579  0.00  0.00    +0.000 C 
BRANCH  18  19
ATOM     19  N   UNL     1       2.345   7.567  18.885  0.00  0.00    +0.000 N 
ATOM     20  C   UNL     1       3.012   6.652  18.098  0.00  0.00    +0.000 C 
ATOM     21  O   UNL     1       3.714   6.869  17.128  0.00  0.00    +0.000 OA
ATOM     22  C   UNL     1       2.637   5.305  18.649  0.00  0.00    +0.000 C 
ATOM     23  C   UNL     1       3.550   4.113  18.446  0.00  0.00    +0.000 C 
ATOM     24  C   UNL     1       2.976   2.920  19.228  0.00  0.00    +0.000 C 
ATOM     25  C   UNL     1       2.711   3.251  20.708  0.00  0.00    +0.000 C 
ATOM     26  C   UNL     1       1.857   4.517  20.886  0.00  0.00    +0.000 C 
ATOM     27  C   UNL     1       2.522   5.643  20.126  0.00  0.00    +0.000 C 
ATOM     28  C   UNL     1       1.888   7.005  20.057  0.00  0.00    +0.000 C 
ATOM     29  O   UNL     1       1.223   7.535  20.928  0.00  0.00    +0.000 OA
ENDBRANCH  18  19
ENDBRANCH  17  18
ENDBRANCH  11  17
TORSDOF 5
ENDMDL
MODEL 8
REMARK VINA RESULT:      -7.7      2.563      3.811
REMARK  Name = 
REMARK  6 active torsions:
REMARK  status: ('A' for Active; 'I' for Inactive)
REMARK    1  A    between atoms: C_1  and  O_2
REMARK    2  A    between atoms: O_2  and  C_3
REMARK    3  A    between atoms: C_3  and  C_5
REMARK    4  A    between atoms: C_15  and  C_17
REMARK    5  A    between atoms: C_17  and  C_18
REMARK    6  A    between atoms: C_18  and  N_19
REMARK                            x       y       z     vdW  Elec       q    Type
REMARK                         _______ _______ _______ _____ _____    ______ ____
ROOT
ATOM      1  C   UNL     1       4.611   4.226  16.806  0.00  0.00    +0.000 A 
ATOM      2  C   UNL     1       3.998   3.051  17.271  0.00  0.00    +0.000 A 
ATOM      3  C   UNL     1       2.940   3.116  18.165  0.00  0.00    +0.000 A 
ATOM      4  C   UNL     1       2.496   4.355  18.618  0.00  0.00    +0.000 A 
ATOM      5  C   UNL     1       3.097   5.555  18.202  0.00  0.00    +0.000 A 
ATOM      6  C   UNL     1       4.156   5.496  17.261  0.00  0.00    +0.000 A 
ATOM      7  C   UNL     1       4.798   6.765  16.744  0.00  0.00    +0.000 C 
ATOM      8  C   UNL     1       4.408   8.019  17.514  0.00  0.00    +0.000 C 
ATOM      9  C   UNL     1       2.931   7.974  17.841  0.00  0.00    +0.000 C 
ATOM     10  N   UNL     1       2.637   6.828  18.708  0.00  0.00    +0.000 N 
ATOM     11  C   UNL     1       2.015   6.947  19.964  0.00  0.00    +0.000 C 
ATOM     12  O   UNL     1       1.798   6.004  20.729  0.00  0.00    +0.000 OA
ENDROOT
BRANCH   1  13
ATOM     13  C   UNL     1       5.713   4.086  15.801  0.00  0.00    +0.000 C 
ATOM     14  O   UNL     1       6.897   3.986  16.070  0.00  0.00    +0.000 OA
BRANCH  13  16
ATOM     15  C   UNL     1       6.130   3.842  13.504  0.00  0.00    +0.000 C 
ATOM     16  O   UNL     1       5.189   4.100  14.547  0.00  0.00    +0.000 OA
ENDBRANCH  13  16
ENDBRANCH   1  13
BRANCH  11  17
ATOM     17  C   UNL     1       1.651   8.349  20.425  0.00  0.00    +0.000 C 
BRANCH  17  18
ATOM     18  C   UNL     1       0.307   8.344  21.155  0.00  0.00    +0.000 C 
BRANCH  18  19
ATOM     19  N   UNL     1      -0.232   9.685  21.295  0.00  0.00    +0.000 N 
ATOM     20  C   UNL     1      -0.783  10.406  20.258  0.00  0.00    +0.000 C 
ATOM     21  O   UNL     1      -1.026  10.026  19.127  0.00  0.00    +0.000 OA
ATOM     22  C   UNL     1      -0.966  11.798  20.794  0.00  0.00    +0.000 C 
ATOM     23  C   UNL     1      -2.011  12.718  20.197  0.00  0.00    +0.000 C 
ATOM     24  C   UNL     1      -2.057  14.010  21.030  0.00  0.00    +0.000 C 
ATOM     25  C   UNL     1      -2.254  13.742  22.533  0.00  0.00    +0.000 C 
ATOM     26  C   UNL     1      -1.235  12.736  23.092  0.00  0.00    +0.000 C 
ATOM     27  C   UNL     1      -1.296  11.485  22.244  0.00  0.00    +0.000 C 
ATOM     28  C   UNL     1      -0.365  10.333  22.504  0.00  0.00    +0.000 C 
ATOM     29  O   UNL     1       0.061   9.982  23.589  0.00  0.00    +0.000 OA
ENDBRANCH  18  19
ENDBRANCH  17  18
ENDBRANCH  11  17
TORSDOF 5
ENDMDL
MODEL 9
REMARK VINA RESULT:      -7.7      2.048      2.482
REMARK  Name = 
REMARK  6 active torsions:
REMARK  status: ('A' for Active; 'I' for Inactive)
REMARK    1  A    between atoms: C_1  and  O_2
REMARK    2  A    between atoms: O_2  and  C_3
REMARK    3  A    between atoms: C_3  and  C_5
REMARK    4  A    between atoms: C_15  and  C_17
REMARK    5  A    between atoms: C_17  and  C_18
REMARK    6  A    between atoms: C_18  and  N_19
REMARK                            x       y       z     vdW  Elec       q    Type
REMARK                         _______ _______ _______ _____ _____    ______ ____
ROOT
ATOM      1  C   UNL     1       4.253   4.825  18.271  0.00  0.00    +0.000 A 
ATOM      2  C   UNL     1       4.997   5.354  17.203  0.00  0.00    +0.000 A 
ATOM      3  C   UNL     1       4.833   6.677  16.821  0.00  0.00    +0.000 A 
ATOM      4  C   UNL     1       3.912   7.479  17.488  0.00  0.00    +0.000 A 
ATOM      5  C   UNL     1       3.127   6.985  18.544  0.00  0.00    +0.000 A 
ATOM      6  C   UNL     1       3.315   5.643  18.962  0.00  0.00    +0.000 A 
ATOM      7  C   UNL     1       2.531   5.083  20.129  0.00  0.00    +0.000 C 
ATOM      8  C   UNL     1       1.380   5.967  20.588  0.00  0.00    +0.000 C 
ATOM      9  C   UNL     1       1.816   7.416  20.570  0.00  0.00    +0.000 C 
ATOM     10  N   UNL     1       2.158   7.828  19.204  0.00  0.00    +0.000 N 
ATOM     11  C   UNL     1       1.552   8.916  18.549  0.00  0.00    +0.000 C 
ATOM     12  O   UNL     1       1.790   9.254  17.387  0.00  0.00    +0.000 OA
ENDROOT
BRANCH   1  13
ATOM     13  C   UNL     1       4.518   3.405  18.667  0.00  0.00    +0.000 C 
ATOM     14  O   UNL     1       5.109   3.058  19.676  0.00  0.00    +0.000 OA
BRANCH  13  16
ATOM     15  C   UNL     1       2.661   2.162  17.952  0.00  0.00    +0.000 C 
ATOM     16  O   UNL     1       4.011   2.567  17.726  0.00  0.00    +0.000 OA
ENDBRANCH  13  16
ENDBRANCH   1  13
BRANCH  11  17
ATOM     17  C   UNL     1       0.485   9.678  19.318  0.00  0.00    +0.000 C 
BRANCH  17  18
ATOM     18  C   UNL     1       1.015  11.040  19.769  0.00  0.00    +0.000 C 
BRANCH  18  19
ATOM     19  N   UNL     1       0.003  11.802  20.477  0.00  0.00    +0.000 N 
ATOM     20  C   UNL     1      -0.838  12.713  19.873  0.00  0.00    +0.000 C 
ATOM     21  O   UNL     1      -0.970  12.937  18.684  0.00  0.00    +0.000 OA
ATOM     22  C   UNL     1      -1.523  13.432  21.002  0.00  0.00    +0.000 C 
ATOM     23  C   UNL     1      -2.873  14.084  20.787  0.00  0.00    +0.000 C 
ATOM     24  C   UNL     1      -3.378  14.617  22.139  0.00  0.00    +0.000 C 
ATOM     25  C   UNL     1      -3.379  13.540  23.239  0.00  0.00    +0.000 C 
ATOM     26  C   UNL     1      -2.020  12.831  23.373  0.00  0.00    +0.000 C 
ATOM     27  C   UNL     1      -1.631  12.301  22.012  0.00  0.00    +0.000 C 
ATOM     28  C   UNL     1      -0.313  11.609  21.804  0.00  0.00    +0.000 C 
ATOM     29  O   UNL     1       0.271  10.913  22.615  0.00  0.00    +0.000 OA
ENDBRANCH  18  19
ENDBRANCH  17  18
ENDBRANCH  11  17
TORSDOF 5
ENDMDL
