MODEL 1
REMARK VINA RESULT:      -7.9      0.000      0.000
REMARK  Name = 
REMARK  8 active torsions:
REMARK  status: ('A' for Active; 'I' for Inactive)
REMARK    1  A    between atoms: C_1  and  C_2
REMARK    2  A    between atoms: C_2  and  O_3
REMARK    3  A    between atoms: C_2  and  C_4
REMARK    4  A    between atoms: C_9  and  N_10
REMARK    5  A    between atoms: C_19  and  O_20
REMARK    6  A    between atoms: N_27  and  C_28
REMARK    7  A    between atoms: C_28  and  C_29
REMARK    8  A    between atoms: C_28  and  C_30
REMARK                            x       y       z     vdW  Elec       q    Type
REMARK                         _______ _______ _______ _____ _____    ______ ____
ROOT
ATOM      1  C   UNL     1       1.219  15.915  19.015  0.00  0.00    +0.000 A 
ATOM      2  N   UNL     1      -0.005  15.426  18.908  0.00  0.00    +0.000 NA
ATOM      3  C   UNL     1       0.125  14.072  18.784  0.00  0.00    +0.000 A 
ATOM      4  C   UNL     1      -0.842  13.091  18.584  0.00  0.00    +0.000 A 
ATOM      5  N   UNL     1      -0.473  11.794  18.425  0.00  0.00    +0.000 NA
ATOM      6  C   UNL     1       0.829  11.437  18.508  0.00  0.00    +0.000 A 
ATOM      7  C   UNL     1       1.846  12.354  18.781  0.00  0.00    +0.000 A 
ATOM      8  C   UNL     1       1.455  13.695  18.877  0.00  0.00    +0.000 A 
ATOM      9  N   UNL     1       2.151  14.890  19.017  0.00  0.00    +0.000 N 
ENDROOT
BRANCH   6  10
ATOM     10  N   UNL     1       1.199  10.116  18.213  0.00  0.00    +0.000 N 
ATOM     11  C   UNL     1       1.403   9.089  19.142  0.00  0.00    +0.000 A 
ATOM     12  C   UNL     1       0.729   9.080  20.344  0.00  0.00    +0.000 A 
ATOM     13  C   UNL     1       0.944   8.005  21.157  0.00  0.00    +0.000 A 
ATOM     14  N   UNL     1       1.751   6.990  20.825  0.00  0.00    +0.000 NA
ATOM     15  C   UNL     1       2.363   7.042  19.633  0.00  0.00    +0.000 A 
ATOM     16  N   UNL     1       3.133   5.967  19.261  0.00  0.00    +0.000 N 
ATOM     17  C   UNL     1       3.345   4.859  20.182  0.00  0.00    +0.000 C 
ATOM     18  C   UNL     1       3.131   3.544  19.429  0.00  0.00    +0.000 C 
ATOM     19  C   UNL     1       3.991   3.474  18.167  0.00  0.00    +0.000 C 
ATOM     20  C   UNL     1       3.771   4.708  17.278  0.00  0.00    +0.000 C 
ATOM     21  F   UNL     1       4.642   4.684  16.233  0.00  0.00    +0.000 F 
ATOM     22  C   UNL     1       3.946   6.014  18.055  0.00  0.00    +0.000 C 
ATOM     23  N   UNL     1       2.203   8.067  18.775  0.00  0.00    +0.000 NA
ATOM     24  H   UNL     1       1.772  10.001  17.389  0.00  0.00    +0.000 HD
BRANCH  19  25
ATOM     25  O   UNL     1       5.361   3.290  18.550  0.00  0.00    +0.000 OA
ATOM     26  H   UNL     1       5.551   3.825  19.338  0.00  0.00    +0.000 HD
ENDBRANCH  19  25
ENDBRANCH   6  10
BRANCH   1  28
ATOM     27  C   UNL     1       0.950  18.273  18.136  0.00  0.00    +0.000 C 
ATOM     28  C   UNL     1       1.495  17.374  19.244  0.00  0.00    +0.000 C 
BRANCH  28  29
ATOM     29  O   UNL     1       0.827  17.694  20.461  0.00  0.00    +0.000 OA
ATOM     30  H   UNL     1       1.091  18.609  20.676  0.00  0.00    +0.000 HD
ENDBRANCH  28  29
ENDBRANCH   1  28
BRANCH   9  31
ATOM     31  C   UNL     1       3.607  14.939  19.086  0.00  0.00    +0.000 C 
ATOM     32  C   UNL     1       4.221  15.444  20.392  0.00  0.00    +0.000 C 
BRANCH  31  33
ATOM     33  C   UNL     1       4.234  15.559  17.837  0.00  0.00    +0.000 C 
ATOM     34  F   UNL     1       5.362  14.928  17.443  0.00  0.00    +0.000 F 
ATOM     35  F   UNL     1       3.390  15.559  16.782  0.00  0.00    +0.000 F 
ATOM     36  F   UNL     1       4.571  16.851  18.078  0.00  0.00    +0.000 F 
ENDBRANCH  31  33
ENDBRANCH   9  31
TORSDOF 6
ENDMDL
MODEL 2
REMARK VINA RESULT:      -7.7      4.253     10.535
REMARK  Name = 
REMARK  8 active torsions:
REMARK  status: ('A' for Active; 'I' for Inactive)
REMARK    1  A    between atoms: C_1  and  C_2
REMARK    2  A    between atoms: C_2  and  O_3
REMARK    3  A    between atoms: C_2  and  C_4
REMARK    4  A    between atoms: C_9  and  N_10
REMARK    5  A    between atoms: C_19  and  O_20
REMARK    6  A    between atoms: N_27  and  C_28
REMARK    7  A    between atoms: C_28  and  C_29
REMARK    8  A    between atoms: C_28  and  C_30
REMARK                            x       y       z     vdW  Elec       q    Type
REMARK                         _______ _______ _______ _____ _____    ______ ____
ROOT
ATOM      1  C   UNL     1       3.484   4.425  18.253  0.00  0.00    +0.000 A 
ATOM      2  N   UNL     1       3.623   5.482  17.472  0.00  0.00    +0.000 NA
ATOM      3  C   UNL     1       3.060   6.535  18.133  0.00  0.00    +0.000 A 
ATOM      4  C   UNL     1       2.885   7.858  17.736  0.00  0.00    +0.000 A 
ATOM      5  N   UNL     1       2.232   8.731  18.545  0.00  0.00    +0.000 NA
ATOM      6  C   UNL     1       1.788   8.338  19.760  0.00  0.00    +0.000 A 
ATOM      7  C   UNL     1       1.992   7.050  20.257  0.00  0.00    +0.000 A 
ATOM      8  C   UNL     1       2.609   6.145  19.385  0.00  0.00    +0.000 A 
ATOM      9  N   UNL     1       2.880   4.783  19.447  0.00  0.00    +0.000 N 
ENDROOT
BRANCH   6  10
ATOM     10  N   UNL     1       1.004   9.218  20.522  0.00  0.00    +0.000 N 
ATOM     11  C   UNL     1       0.046  10.110  20.027  0.00  0.00    +0.000 A 
ATOM     12  C   UNL     1      -0.639   9.836  18.863  0.00  0.00    +0.000 A 
ATOM     13  C   UNL     1      -1.599  10.733  18.493  0.00  0.00    +0.000 A 
ATOM     14  N   UNL     1      -1.893  11.823  19.210  0.00  0.00    +0.000 NA
ATOM     15  C   UNL     1      -1.210  12.027  20.347  0.00  0.00    +0.000 A 
ATOM     16  N   UNL     1      -1.562  13.106  21.121  0.00  0.00    +0.000 N 
ATOM     17  C   UNL     1      -2.578  14.042  20.661  0.00  0.00    +0.000 C 
ATOM     18  C   UNL     1      -3.550  14.317  21.811  0.00  0.00    +0.000 C 
ATOM     19  C   UNL     1      -2.813  14.772  23.071  0.00  0.00    +0.000 C 
ATOM     20  C   UNL     1      -1.708  13.775  23.456  0.00  0.00    +0.000 C 
ATOM     21  F   UNL     1      -0.986  14.269  24.498  0.00  0.00    +0.000 F 
ATOM     22  C   UNL     1      -0.771  13.477  22.284  0.00  0.00    +0.000 C 
ATOM     23  N   UNL     1      -0.249  11.190  20.779  0.00  0.00    +0.000 NA
ATOM     24  H   UNL     1       1.435   9.558  21.370  0.00  0.00    +0.000 HD
BRANCH  19  25
ATOM     25  O   UNL     1      -2.327  16.105  22.868  0.00  0.00    +0.000 OA
ATOM     26  H   UNL     1      -2.968  16.741  23.226  0.00  0.00    +0.000 HD
ENDBRANCH  19  25
ENDBRANCH   6  10
BRANCH   1  28
ATOM     27  C   UNL     1       2.992   2.093  17.401  0.00  0.00    +0.000 C 
ATOM     28  C   UNL     1       4.046   3.076  17.906  0.00  0.00    +0.000 C 
BRANCH  28  29
ATOM     29  O   UNL     1       4.982   3.320  16.860  0.00  0.00    +0.000 OA
ATOM     30  H   UNL     1       5.693   2.662  16.981  0.00  0.00    +0.000 HD
ENDBRANCH  28  29
ENDBRANCH   1  28
BRANCH   9  31
ATOM     31  C   UNL     1       2.499   3.966  20.595  0.00  0.00    +0.000 C 
ATOM     32  C   UNL     1       3.469   2.860  21.009  0.00  0.00    +0.000 C 
BRANCH  31  33
ATOM     33  C   UNL     1       1.041   3.508  20.531  0.00  0.00    +0.000 C 
ATOM     34  F   UNL     1       0.700   2.689  21.550  0.00  0.00    +0.000 F 
ATOM     35  F   UNL     1       0.174   4.544  20.547  0.00  0.00    +0.000 F 
ATOM     36  F   UNL     1       0.820   2.820  19.383  0.00  0.00    +0.000 F 
ENDBRANCH  31  33
ENDBRANCH   9  31
TORSDOF 6
ENDMDL
MODEL 3
REMARK VINA RESULT:      -7.6      4.797     10.247
REMARK  Name = 
REMARK  8 active torsions:
REMARK  status: ('A' for Active; 'I' for Inactive)
REMARK    1  A    between atoms: C_1  and  C_2
REMARK    2  A    between atoms: C_2  and  O_3
REMARK    3  A    between atoms: C_2  and  C_4
REMARK    4  A    between atoms: C_9  and  N_10
REMARK    5  A    between atoms: C_19  and  O_20
REMARK    6  A    between atoms: N_27  and  C_28
REMARK    7  A    between atoms: C_28  and  C_29
REMARK    8  A    between atoms: C_28  and  C_30
REMARK                            x       y       z     vdW  Elec       q    Type
REMARK                         _______ _______ _______ _____ _____    ______ ____
ROOT
ATOM      1  C   UNL     1       4.278   5.201  17.221  0.00  0.00    +0.000 A 
ATOM      2  N   UNL     1       4.470   6.442  16.808  0.00  0.00    +0.000 NA
ATOM      3  C   UNL     1       3.642   7.234  17.551  0.00  0.00    +0.000 A 
ATOM      4  C   UNL     1       3.408   8.604  17.482  0.00  0.00    +0.000 A 
ATOM      5  N   UNL     1       2.480   9.178  18.290  0.00  0.00    +0.000 NA
ATOM      6  C   UNL     1       1.811   8.434  19.200  0.00  0.00    +0.000 A 
ATOM      7  C   UNL     1       2.047   7.071  19.379  0.00  0.00    +0.000 A 
ATOM      8  C   UNL     1       2.958   6.482  18.493  0.00  0.00    +0.000 A 
ATOM      9  N   UNL     1       3.369   5.174  18.266  0.00  0.00    +0.000 N 
ENDROOT
BRANCH   6  10
ATOM     10  N   UNL     1       0.769   9.021  19.933  0.00  0.00    +0.000 N 
ATOM     11  C   UNL     1      -0.171   9.937  19.445  0.00  0.00    +0.000 A 
ATOM     12  C   UNL     1      -0.541   9.928  18.118  0.00  0.00    +0.000 A 
ATOM     13  C   UNL     1      -1.510  10.815  17.747  0.00  0.00    +0.000 A 
ATOM     14  N   UNL     1      -2.099  11.653  18.609  0.00  0.00    +0.000 NA
ATOM     15  C   UNL     1      -1.714  11.602  19.893  0.00  0.00    +0.000 A 
ATOM     16  N   UNL     1      -2.369  12.409  20.791  0.00  0.00    +0.000 N 
ATOM     17  C   UNL     1      -3.378  13.354  20.332  0.00  0.00    +0.000 C 
ATOM     18  C   UNL     1      -4.606  13.242  21.240  0.00  0.00    +0.000 C 
ATOM     19  C   UNL     1      -4.230  13.404  22.712  0.00  0.00    +0.000 C 
ATOM     20  C   UNL     1      -3.111  12.427  23.109  0.00  0.00    +0.000 C 
ATOM     21  F   UNL     1      -2.707  12.683  24.383  0.00  0.00    +0.000 F 
ATOM     22  C   UNL     1      -1.909  12.520  22.167  0.00  0.00    +0.000 C 
ATOM     23  N   UNL     1      -0.766  10.756  20.336  0.00  0.00    +0.000 NA
ATOM     24  H   UNL     1       0.955   9.158  20.917  0.00  0.00    +0.000 HD
BRANCH  19  25
ATOM     25  O   UNL     1      -3.896  14.777  22.957  0.00  0.00    +0.000 OA
ATOM     26  H   UNL     1      -3.027  14.973  22.570  0.00  0.00    +0.000 HD
ENDBRANCH  19  25
ENDBRANCH   6  10
BRANCH   1  28
ATOM     27  C   UNL     1       5.407   4.159  15.209  0.00  0.00    +0.000 C 
ATOM     28  C   UNL     1       5.067   4.036  16.693  0.00  0.00    +0.000 C 
BRANCH  28  29
ATOM     29  O   UNL     1       6.279   4.036  17.441  0.00  0.00    +0.000 OA
ATOM     30  H   UNL     1       6.052   3.660  18.314  0.00  0.00    +0.000 HD
ENDBRANCH  28  29
ENDBRANCH   1  28
BRANCH   9  31
ATOM     31  C   UNL     1       2.829   4.047  19.018  0.00  0.00    +0.000 C 
ATOM     32  C   UNL     1       3.838   3.124  19.703  0.00  0.00    +0.000 C 
BRANCH  31  33
ATOM     33  C   UNL     1       1.738   3.298  18.252  0.00  0.00    +0.000 C 
ATOM     34  F   UNL     1       2.221   2.286  17.499  0.00  0.00    +0.000 F 
ATOM     35  F   UNL     1       0.802   2.772  19.071  0.00  0.00    +0.000 F 
ATOM     36  F   UNL     1       1.099   4.145  17.407  0.00  0.00    +0.000 F 
ENDBRANCH  31  33
ENDBRANCH   9  31
TORSDOF 6
ENDMDL
MODEL 4
REMARK VINA RESULT:      -7.6      4.568     10.375
REMARK  Name = 
REMARK  8 active torsions:
REMARK  status: ('A' for Active; 'I' for Inactive)
REMARK    1  A    between atoms: C_1  and  C_2
REMARK    2  A    between atoms: C_2  and  O_3
REMARK    3  A    between atoms: C_2  and  C_4
REMARK    4  A    between atoms: C_9  and  N_10
REMARK    5  A    between atoms: C_19  and  O_20
REMARK    6  A    between atoms: N_27  and  C_28
REMARK    7  A    between atoms: C_28  and  C_29
REMARK    8  A    between atoms: C_28  and  C_30
REMARK                            x       y       z     vdW  Elec       q    Type
REMARK                         _______ _______ _______ _____ _____    ______ ____
ROOT
ATOM      1  C   UNL     1       3.596   5.044  18.233  0.00  0.00    +0.000 A 
ATOM      2  N   UNL     1       3.871   6.165  17.589  0.00  0.00    +0.000 NA
ATOM      3  C   UNL     1       3.090   7.138  18.145  0.00  0.00    +0.000 A 
ATOM      4  C   UNL     1       2.945   8.479  17.805  0.00  0.00    +0.000 A 
ATOM      5  N   UNL     1       2.051   9.257  18.467  0.00  0.00    +0.000 NA
ATOM      6  C   UNL     1       1.329   8.750  19.491  0.00  0.00    +0.000 A 
ATOM      7  C   UNL     1       1.474   7.436  19.938  0.00  0.00    +0.000 A 
ATOM      8  C   UNL     1       2.352   6.630  19.203  0.00  0.00    +0.000 A 
ATOM      9  N   UNL     1       2.679   5.280  19.245  0.00  0.00    +0.000 N 
ENDROOT
BRANCH   6  10
ATOM     10  N   UNL     1       0.321   9.533  20.074  0.00  0.00    +0.000 N 
ATOM     11  C   UNL     1       0.474  10.823  20.596  0.00  0.00    +0.000 A 
ATOM     12  C   UNL     1       1.435  11.676  20.097  0.00  0.00    +0.000 A 
ATOM     13  C   UNL     1       1.468  12.934  20.623  0.00  0.00    +0.000 A 
ATOM     14  N   UNL     1       0.614  13.353  21.565  0.00  0.00    +0.000 NA
ATOM     15  C   UNL     1      -0.314  12.487  21.996  0.00  0.00    +0.000 A 
ATOM     16  N   UNL     1      -1.236  12.938  22.909  0.00  0.00    +0.000 N 
ATOM     17  C   UNL     1      -1.135  14.286  23.453  0.00  0.00    +0.000 C 
ATOM     18  C   UNL     1      -2.519  14.940  23.408  0.00  0.00    +0.000 C 
ATOM     19  C   UNL     1      -3.572  14.071  24.095  0.00  0.00    +0.000 C 
ATOM     20  C   UNL     1      -3.573  12.645  23.522  0.00  0.00    +0.000 C 
ATOM     21  F   UNL     1      -4.424  11.862  24.239  0.00  0.00    +0.000 F 
ATOM     22  C   UNL     1      -2.177  12.021  23.534  0.00  0.00    +0.000 C 
ATOM     23  N   UNL     1      -0.412  11.229  21.528  0.00  0.00    +0.000 NA
ATOM     24  H   UNL     1      -0.408   9.018  20.548  0.00  0.00    +0.000 HD
BRANCH  19  25
ATOM     25  O   UNL     1      -3.354  14.112  25.512  0.00  0.00    +0.000 OA
ATOM     26  H   UNL     1      -3.224  13.209  25.845  0.00  0.00    +0.000 HD
ENDBRANCH  19  25
ENDBRANCH   6  10
BRANCH   1  28
ATOM     27  C   UNL     1       4.867   3.657  16.540  0.00  0.00    +0.000 C 
ATOM     28  C   UNL     1       4.311   3.751  17.960  0.00  0.00    +0.000 C 
BRANCH  28  29
ATOM     29  O   UNL     1       5.400   3.726  18.878  0.00  0.00    +0.000 OA
ATOM     30  H   UNL     1       5.083   4.187  19.678  0.00  0.00    +0.000 HD
ENDBRANCH  28  29
ENDBRANCH   1  28
BRANCH   9  31
ATOM     31  C   UNL     1       2.062   4.359  20.193  0.00  0.00    +0.000 C 
ATOM     32  C   UNL     1       2.952   3.818  21.312  0.00  0.00    +0.000 C 
BRANCH  31  33
ATOM     33  C   UNL     1       1.225   3.280  19.503  0.00  0.00    +0.000 C 
ATOM     34  F   UNL     1       1.866   2.095  19.408  0.00  0.00    +0.000 F 
ATOM     35  F   UNL     1       0.056   3.049  20.140  0.00  0.00    +0.000 F 
ATOM     36  F   UNL     1       0.921   3.666  18.239  0.00  0.00    +0.000 F 
ENDBRANCH  31  33
ENDBRANCH   9  31
TORSDOF 6
ENDMDL
MODEL 5
REMARK VINA RESULT:      -7.5      4.842     10.458
REMARK  Name = 
REMARK  8 active torsions:
REMARK  status: ('A' for Active; 'I' for Inactive)
REMARK    1  A    between atoms: C_1  and  C_2
REMARK    2  A    between atoms: C_2  and  O_3
REMARK    3  A    between atoms: C_2  and  C_4
REMARK    4  A    between atoms: C_9  and  N_10
REMARK    5  A    between atoms: C_19  and  O_20
REMARK    6  A    between atoms: N_27  and  C_28
REMARK    7  A    between atoms: C_28  and  C_29
REMARK    8  A    between atoms: C_28  and  C_30
REMARK                            x       y       z     vdW  Elec       q    Type
REMARK                         _______ _______ _______ _____ _____    ______ ____
ROOT
ATOM      1  C   UNL     1       3.782   5.018  18.067  0.00  0.00    +0.000 A 
ATOM      2  N   UNL     1       3.993   6.209  17.532  0.00  0.00    +0.000 NA
ATOM      3  C   UNL     1       3.180   7.085  18.194  0.00  0.00    +0.000 A 
ATOM      4  C   UNL     1       2.967   8.445  17.989  0.00  0.00    +0.000 A 
ATOM      5  N   UNL     1       2.051   9.111  18.738  0.00  0.00    +0.000 NA
ATOM      6  C   UNL     1       1.373   8.473  19.718  0.00  0.00    +0.000 A 
ATOM      7  C   UNL     1       1.587   7.130  20.031  0.00  0.00    +0.000 A 
ATOM      8  C   UNL     1       2.487   6.442  19.207  0.00  0.00    +0.000 A 
ATOM      9  N   UNL     1       2.876   5.111  19.111  0.00  0.00    +0.000 N 
ENDROOT
BRANCH   6  10
ATOM     10  N   UNL     1       0.342   9.146  20.391  0.00  0.00    +0.000 N 
ATOM     11  C   UNL     1      -0.476  10.149  19.855  0.00  0.00    +0.000 A 
ATOM     12  C   UNL     1      -0.758  10.184  18.507  0.00  0.00    +0.000 A 
ATOM     13  C   UNL     1      -1.616  11.159  18.087  0.00  0.00    +0.000 A 
ATOM     14  N   UNL     1      -2.182  12.040  18.921  0.00  0.00    +0.000 NA
ATOM     15  C   UNL     1      -1.888  11.943  20.226  0.00  0.00    +0.000 A 
ATOM     16  N   UNL     1      -2.525  12.800  21.091  0.00  0.00    +0.000 N 
ATOM     17  C   UNL     1      -3.412  13.837  20.581  0.00  0.00    +0.000 C 
ATOM     18  C   UNL     1      -4.701  13.831  21.406  0.00  0.00    +0.000 C 
ATOM     19  C   UNL     1      -4.410  13.945  22.902  0.00  0.00    +0.000 C 
ATOM     20  C   UNL     1      -3.412  12.867  23.356  0.00  0.00    +0.000 C 
ATOM     21  F   UNL     1      -3.071  13.075  24.657  0.00  0.00    +0.000 F 
ATOM     22  C   UNL     1      -2.148  12.857  22.495  0.00  0.00    +0.000 C 
ATOM     23  N   UNL     1      -1.052  11.011  20.718  0.00  0.00    +0.000 NA
ATOM     24  H   UNL     1       0.475   9.257  21.386  0.00  0.00    +0.000 HD
BRANCH  19  25
ATOM     25  O   UNL     1      -3.970  15.280  23.188  0.00  0.00    +0.000 OA
ATOM     26  H   UNL     1      -4.537  15.667  23.874  0.00  0.00    +0.000 HD
ENDBRANCH  19  25
ENDBRANCH   6  10
BRANCH   1  28
ATOM     27  C   UNL     1       5.063   3.856  16.219  0.00  0.00    +0.000 C 
ATOM     28  C   UNL     1       4.550   3.794  17.657  0.00  0.00    +0.000 C 
BRANCH  28  29
ATOM     29  O   UNL     1       5.667   3.742  18.538  0.00  0.00    +0.000 OA
ATOM     30  H   UNL     1       5.483   4.397  19.239  0.00  0.00    +0.000 HD
ENDBRANCH  28  29
ENDBRANCH   1  28
BRANCH   9  31
ATOM     31  C   UNL     1       2.319   4.074  19.973  0.00  0.00    +0.000 C 
ATOM     32  C   UNL     1       3.305   3.302  20.851  0.00  0.00    +0.000 C 
BRANCH  31  33
ATOM     33  C   UNL     1       1.321   3.175  19.241  0.00  0.00    +0.000 C 
ATOM     34  F   UNL     1       0.222   2.899  19.975  0.00  0.00    +0.000 F 
ATOM     35  F   UNL     1       0.896   3.717  18.079  0.00  0.00    +0.000 F 
ATOM     36  F   UNL     1       1.900   1.987  18.938  0.00  0.00    +0.000 F 
ENDBRANCH  31  33
ENDBRANCH   9  31
TORSDOF 6
ENDMDL
MODEL 6
REMARK VINA RESULT:      -7.4      3.956      5.260
REMARK  Name = 
REMARK  8 active torsions:
REMARK  status: ('A' for Active; 'I' for Inactive)
REMARK    1  A    between atoms: C_1  and  C_2
REMARK    2  A    between atoms: C_2  and  O_3
REMARK    3  A    between atoms: C_2  and  C_4
REMARK    4  A    between atoms: C_9  and  N_10
REMARK    5  A    between atoms: C_19  and  O_20
REMARK    6  A    between atoms: N_27  and  C_28
REMARK    7  A    between atoms: C_28  and  C_29
REMARK    8  A    between atoms: C_28  and  C_30
REMARK                            x       y       z     vdW  Elec       q    Type
REMARK                         _______ _______ _______ _____ _____    ______ ____
ROOT
ATOM      1  C   UNL     1      -2.975  12.479  19.729  0.00  0.00    +0.000 A 
ATOM      2  N   UNL     1      -1.805  12.852  20.220  0.00  0.00    +0.000 NA
ATOM      3  C   UNL     1      -0.861  12.069  19.619  0.00  0.00    +0.000 A 
ATOM      4  C   UNL     1       0.515  12.008  19.817  0.00  0.00    +0.000 A 
ATOM      5  N   UNL     1       1.261  11.095  19.143  0.00  0.00    +0.000 NA
ATOM      6  C   UNL     1       0.682  10.271  18.240  0.00  0.00    +0.000 A 
ATOM      7  C   UNL     1      -0.678  10.325  17.934  0.00  0.00    +0.000 A 
ATOM      8  C   UNL     1      -1.443  11.227  18.685  0.00  0.00    +0.000 A 
ATOM      9  N   UNL     1      -2.804  11.493  18.770  0.00  0.00    +0.000 N 
ENDROOT
BRANCH   6  10
ATOM     10  N   UNL     1       1.446   9.252  17.652  0.00  0.00    +0.000 N 
ATOM     11  C   UNL     1       2.100   8.215  18.328  0.00  0.00    +0.000 A 
ATOM     12  C   UNL     1       1.617   7.741  19.529  0.00  0.00    +0.000 A 
ATOM     13  C   UNL     1       2.283   6.686  20.082  0.00  0.00    +0.000 A 
ATOM     14  N   UNL     1       3.344   6.111  19.505  0.00  0.00    +0.000 NA
ATOM     15  C   UNL     1       3.756   6.600  18.325  0.00  0.00    +0.000 A 
ATOM     16  N   UNL     1       4.800   5.964  17.697  0.00  0.00    +0.000 N 
ATOM     17  C   UNL     1       5.488   4.858  18.349  0.00  0.00    +0.000 C 
ATOM     18  C   UNL     1       5.651   3.718  17.341  0.00  0.00    +0.000 C 
ATOM     19  C   UNL     1       6.327   4.198  16.057  0.00  0.00    +0.000 C 
ATOM     20  C   UNL     1       5.592   5.411  15.464  0.00  0.00    +0.000 C 
ATOM     21  F   UNL     1       6.289   5.896  14.400  0.00  0.00    +0.000 F 
ATOM     22  C   UNL     1       5.398   6.523  16.495  0.00  0.00    +0.000 C 
ATOM     23  N   UNL     1       3.154   7.637  17.716  0.00  0.00    +0.000 NA
ATOM     24  H   UNL     1       1.922   9.506  16.798  0.00  0.00    +0.000 HD
BRANCH  19  25
ATOM     25  O   UNL     1       7.712   4.453  16.330  0.00  0.00    +0.000 OA
ATOM     26  H   UNL     1       7.825   5.384  16.582  0.00  0.00    +0.000 HD
ENDBRANCH  19  25
ENDBRANCH   6  10
BRANCH   1  28
ATOM     27  C   UNL     1      -4.900  12.613  21.367  0.00  0.00    +0.000 C 
ATOM     28  C   UNL     1      -4.264  13.160  20.090  0.00  0.00    +0.000 C 
BRANCH  28  29
ATOM     29  O   UNL     1      -3.917  14.526  20.302  0.00  0.00    +0.000 OA
ATOM     30  H   UNL     1      -3.620  14.862  19.435  0.00  0.00    +0.000 HD
ENDBRANCH  28  29
ENDBRANCH   1  28
BRANCH   9  31
ATOM     31  C   UNL     1      -3.791  10.763  17.982  0.00  0.00    +0.000 C 
ATOM     32  C   UNL     1      -3.703   9.236  18.005  0.00  0.00    +0.000 C 
BRANCH  31  33
ATOM     33  C   UNL     1      -3.967  11.343  16.578  0.00  0.00    +0.000 C 
ATOM     34  F   UNL     1      -2.819  11.830  16.060  0.00  0.00    +0.000 F 
ATOM     35  F   UNL     1      -4.444  10.433  15.701  0.00  0.00    +0.000 F 
ATOM     36  F   UNL     1      -4.852  12.370  16.608  0.00  0.00    +0.000 F 
ENDBRANCH  31  33
ENDBRANCH   9  31
TORSDOF 6
ENDMDL
MODEL 7
REMARK VINA RESULT:      -7.3      3.483      4.723
REMARK  Name = 
REMARK  8 active torsions:
REMARK  status: ('A' for Active; 'I' for Inactive)
REMARK    1  A    between atoms: C_1  and  C_2
REMARK    2  A    between atoms: C_2  and  O_3
REMARK    3  A    between atoms: C_2  and  C_4
REMARK    4  A    between atoms: C_9  and  N_10
REMARK    5  A    between atoms: C_19  and  O_20
REMARK    6  A    between atoms: N_27  and  C_28
REMARK    7  A    between atoms: C_28  and  C_29
REMARK    8  A    between atoms: C_28  and  C_30
REMARK                            x       y       z     vdW  Elec       q    Type
REMARK                         _______ _______ _______ _____ _____    ______ ____
ROOT
ATOM      1  C   UNL     1      -2.084  12.182  22.712  0.00  0.00    +0.000 A 
ATOM      2  N   UNL     1      -1.466  11.333  23.515  0.00  0.00    +0.000 NA
ATOM      3  C   UNL     1      -0.624  10.596  22.731  0.00  0.00    +0.000 A 
ATOM      4  C   UNL     1       0.210   9.531  23.061  0.00  0.00    +0.000 A 
ATOM      5  N   UNL     1       0.922   8.899  22.093  0.00  0.00    +0.000 NA
ATOM      6  C   UNL     1       0.865   9.326  20.811  0.00  0.00    +0.000 A 
ATOM      7  C   UNL     1       0.110  10.432  20.418  0.00  0.00    +0.000 A 
ATOM      8  C   UNL     1      -0.668  11.032  21.417  0.00  0.00    +0.000 A 
ATOM      9  N   UNL     1      -1.618  12.047  21.414  0.00  0.00    +0.000 N 
ENDROOT
BRANCH   6  10
ATOM     10  N   UNL     1       1.505   8.581  19.809  0.00  0.00    +0.000 N 
ATOM     11  C   UNL     1       1.972   7.266  19.929  0.00  0.00    +0.000 A 
ATOM     12  C   UNL     1       1.369   6.380  20.796  0.00  0.00    +0.000 A 
ATOM     13  C   UNL     1       1.853   5.104  20.798  0.00  0.00    +0.000 A 
ATOM     14  N   UNL     1       2.848   4.700  20.000  0.00  0.00    +0.000 NA
ATOM     15  C   UNL     1       3.382   5.601  19.161  0.00  0.00    +0.000 A 
ATOM     16  N   UNL     1       4.353   5.169  18.291  0.00  0.00    +0.000 N 
ATOM     17  C   UNL     1       4.846   3.800  18.357  0.00  0.00    +0.000 C 
ATOM     18  C   UNL     1       4.895   3.226  16.939  0.00  0.00    +0.000 C 
ATOM     19  C   UNL     1       5.694   4.127  15.997  0.00  0.00    +0.000 C 
ATOM     20  C   UNL     1       5.166   5.571  16.033  0.00  0.00    +0.000 C 
ATOM     21  F   UNL     1       5.975   6.374  15.289  0.00  0.00    +0.000 F 
ATOM     22  C   UNL     1       5.082   6.115  17.459  0.00  0.00    +0.000 C 
ATOM     23  N   UNL     1       2.961   6.878  19.100  0.00  0.00    +0.000 NA
ATOM     24  H   UNL     1       2.052   9.118  19.153  0.00  0.00    +0.000 HD
BRANCH  19  25
ATOM     25  O   UNL     1       7.085   4.024  16.326  0.00  0.00    +0.000 OA
ATOM     26  H   UNL     1       7.235   4.387  17.215  0.00  0.00    +0.000 HD
ENDBRANCH  19  25
ENDBRANCH   6  10
BRANCH   1  28
ATOM     27  C   UNL     1      -3.990  12.702  24.294  0.00  0.00    +0.000 C 
ATOM     28  C   UNL     1      -3.045  13.223  23.213  0.00  0.00    +0.000 C 
BRANCH  28  29
ATOM     29  O   UNL     1      -2.227  14.245  23.775  0.00  0.00    +0.000 OA
ATOM     30  H   UNL     1      -1.314  13.900  23.746  0.00  0.00    +0.000 HD
ENDBRANCH  28  29
ENDBRANCH   1  28
BRANCH   9  31
ATOM     31  C   UNL     1      -2.013  12.739  20.193  0.00  0.00    +0.000 C 
ATOM     32  C   UNL     1      -2.402  11.868  18.998  0.00  0.00    +0.000 C 
BRANCH  31  33
ATOM     33  C   UNL     1      -1.063  13.882  19.831  0.00  0.00    +0.000 C 
ATOM     34  F   UNL     1      -0.589  13.796  18.570  0.00  0.00    +0.000 F 
ATOM     35  F   UNL     1      -1.646  15.095  19.954  0.00  0.00    +0.000 F 
ATOM     36  F   UNL     1       0.012  13.871  20.657  0.00  0.00    +0.000 F 
ENDBRANCH  31  33
ENDBRANCH   9  31
TORSDOF 6
ENDMDL
MODEL 8
REMARK VINA RESULT:      -7.2      3.160      4.242
REMARK  Name = 
REMARK  8 active torsions:
REMARK  status: ('A' for Active; 'I' for Inactive)
REMARK    1  A    between atoms: C_1  and  C_2
REMARK    2  A    between atoms: C_2  and  O_3
REMARK    3  A    between atoms: C_2  and  C_4
REMARK    4  A    between atoms: C_9  and  N_10
REMARK    5  A    between atoms: C_19  and  O_20
REMARK    6  A    between atoms: N_27  and  C_28
REMARK    7  A    between atoms: C_28  and  C_29
REMARK    8  A    between atoms: C_28  and  C_30
REMARK                            x       y       z     vdW  Elec       q    Type
REMARK                         _______ _______ _______ _____ _____    ______ ____
ROOT
ATOM      1  C   UNL     1      -1.139  12.975  22.821  0.00  0.00    +0.000 A 
ATOM      2  N   UNL     1      -1.317  11.796  23.392  0.00  0.00    +0.000 NA
ATOM      3  C   UNL     1      -0.622  10.889  22.643  0.00  0.00    +0.000 A 
ATOM      4  C   UNL     1      -0.522   9.507  22.769  0.00  0.00    +0.000 A 
ATOM      5  N   UNL     1       0.185   8.789  21.858  0.00  0.00    +0.000 NA
ATOM      6  C   UNL     1       0.836   9.414  20.851  0.00  0.00    +0.000 A 
ATOM      7  C   UNL     1       0.843  10.802  20.704  0.00  0.00    +0.000 A 
ATOM      8  C   UNL     1       0.056  11.521  21.613  0.00  0.00    +0.000 A 
ATOM      9  N   UNL     1      -0.291  12.861  21.732  0.00  0.00    +0.000 N 
ENDROOT
BRANCH   6  10
ATOM     10  N   UNL     1       1.451   8.646  19.850  0.00  0.00    +0.000 N 
ATOM     11  C   UNL     1       1.930   7.338  19.991  0.00  0.00    +0.000 A 
ATOM     12  C   UNL     1       1.360   6.471  20.898  0.00  0.00    +0.000 A 
ATOM     13  C   UNL     1       1.851   5.198  20.919  0.00  0.00    +0.000 A 
ATOM     14  N   UNL     1       2.826   4.780  20.102  0.00  0.00    +0.000 NA
ATOM     15  C   UNL     1       3.328   5.661  19.225  0.00  0.00    +0.000 A 
ATOM     16  N   UNL     1       4.276   5.213  18.338  0.00  0.00    +0.000 N 
ATOM     17  C   UNL     1       4.779   3.848  18.425  0.00  0.00    +0.000 C 
ATOM     18  C   UNL     1       4.790   3.237  17.021  0.00  0.00    +0.000 C 
ATOM     19  C   UNL     1       5.554   4.118  16.033  0.00  0.00    +0.000 C 
ATOM     20  C   UNL     1       5.019   5.559  16.046  0.00  0.00    +0.000 C 
ATOM     21  F   UNL     1       5.800   6.347  15.258  0.00  0.00    +0.000 F 
ATOM     22  C   UNL     1       4.973   6.140  17.460  0.00  0.00    +0.000 C 
ATOM     23  N   UNL     1       2.897   6.933  19.142  0.00  0.00    +0.000 NA
ATOM     24  H   UNL     1       1.975   9.169  19.164  0.00  0.00    +0.000 HD
BRANCH  19  25
ATOM     25  O   UNL     1       6.956   4.032  16.323  0.00  0.00    +0.000 OA
ATOM     26  H   UNL     1       7.452   3.927  15.495  0.00  0.00    +0.000 HD
ENDBRANCH  19  25
ENDBRANCH   6  10
BRANCH   1  28
ATOM     27  C   UNL     1      -3.063  14.077  24.042  0.00  0.00    +0.000 C 
ATOM     28  C   UNL     1      -1.689  14.249  23.396  0.00  0.00    +0.000 C 
BRANCH  28  29
ATOM     29  O   UNL     1      -0.757  14.636  24.402  0.00  0.00    +0.000 OA
ATOM     30  H   UNL     1      -1.206  14.477  25.255  0.00  0.00    +0.000 HD
ENDBRANCH  28  29
ENDBRANCH   1  28
BRANCH   9  31
ATOM     31  C   UNL     1       0.172  13.872  20.787  0.00  0.00    +0.000 C 
ATOM     32  C   UNL     1       0.987  15.032  21.358  0.00  0.00    +0.000 C 
BRANCH  31  33
ATOM     33  C   UNL     1      -0.925  14.315  19.817  0.00  0.00    +0.000 C 
ATOM     34  F   UNL     1      -1.709  15.295  20.319  0.00  0.00    +0.000 F 
ATOM     35  F   UNL     1      -0.426  14.766  18.646  0.00  0.00    +0.000 F 
ATOM     36  F   UNL     1      -1.739  13.270  19.528  0.00  0.00    +0.000 F 
ENDBRANCH  31  33
ENDBRANCH   9  31
TORSDOF 6
ENDMDL
MODEL 9
REMARK VINA RESULT:      -7.2      1.108      1.211
REMARK  Name = 
REMARK  8 active torsions:
REMARK  status: ('A' for Active; 'I' for Inactive)
REMARK    1  A    between atoms: C_1  and  C_2
REMARK    2  A    between atoms: C_2  and  O_3
REMARK    3  A    between atoms: C_2  and  C_4
REMARK    4  A    between atoms: C_9  and  N_10
REMARK    5  A    between atoms: C_19  and  O_20
REMARK    6  A    between atoms: N_27  and  C_28
REMARK    7  A    between atoms: C_28  and  C_29
REMARK    8  A    between atoms: C_28  and  C_30
REMARK                            x       y       z     vdW  Elec       q    Type
REMARK                         _______ _______ _______ _____ _____    ______ ____
ROOT
ATOM      1  C   UNL     1       0.688  15.553  19.563  0.00  0.00    +0.000 A 
ATOM      2  N   UNL     1      -0.448  14.898  19.393  0.00  0.00    +0.000 NA
ATOM      3  C   UNL     1      -0.114  13.621  19.042  0.00  0.00    +0.000 A 
ATOM      4  C   UNL     1      -0.923  12.543  18.693  0.00  0.00    +0.000 A 
ATOM      5  N   UNL     1      -0.363  11.366  18.313  0.00  0.00    +0.000 NA
ATOM      6  C   UNL     1       0.981  11.215  18.316  0.00  0.00    +0.000 A 
ATOM      7  C   UNL     1       1.852  12.225  18.725  0.00  0.00    +0.000 A 
ATOM      8  C   UNL     1       1.261  13.453  19.050  0.00  0.00    +0.000 A 
ATOM      9  N   UNL     1       1.767  14.705  19.379  0.00  0.00    +0.000 N 
ENDROOT
BRANCH   6  10
ATOM     10  N   UNL     1       1.540  10.036  17.799  0.00  0.00    +0.000 N 
ATOM     11  C   UNL     1       1.925   8.911  18.537  0.00  0.00    +0.000 A 
ATOM     12  C   UNL     1       1.295   8.594  19.721  0.00  0.00    +0.000 A 
ATOM     13  C   UNL     1       1.696   7.445  20.337  0.00  0.00    +0.000 A 
ATOM     14  N   UNL     1       2.638   6.638  19.835  0.00  0.00    +0.000 NA
ATOM     15  C   UNL     1       3.201   6.986  18.668  0.00  0.00    +0.000 A 
ATOM     16  N   UNL     1       4.115   6.122  18.115  0.00  0.00    +0.000 N 
ATOM     17  C   UNL     1       4.521   4.921  18.833  0.00  0.00    +0.000 C 
ATOM     18  C   UNL     1       4.488   3.735  17.865  0.00  0.00    +0.000 C 
ATOM     19  C   UNL     1       5.312   4.014  16.609  0.00  0.00    +0.000 C 
ATOM     20  C   UNL     1       4.880   5.331  15.944  0.00  0.00    +0.000 C 
ATOM     21  F   UNL     1       5.715   5.620  14.909  0.00  0.00    +0.000 F 
ATOM     22  C   UNL     1       4.876   6.498  16.934  0.00  0.00    +0.000 C 
ATOM     23  N   UNL     1       2.861   8.103  17.999  0.00  0.00    +0.000 NA
ATOM     24  H   UNL     1       2.099  10.153  16.966  0.00  0.00    +0.000 HD
BRANCH  19  25
ATOM     25  O   UNL     1       6.705   3.983  16.951  0.00  0.00    +0.000 OA
ATOM     26  H   UNL     1       6.894   3.180  17.463  0.00  0.00    +0.000 HD
ENDBRANCH  19  25
ENDBRANCH   6  10
BRANCH   1  28
ATOM     27  C   UNL     1      -0.207  17.902  19.267  0.00  0.00    +0.000 C 
ATOM     28  C   UNL     1       0.742  16.980  20.030  0.00  0.00    +0.000 C 
BRANCH  28  29
ATOM     29  O   UNL     1       0.340  16.941  21.396  0.00  0.00    +0.000 OA
ATOM     30  H   UNL     1       1.166  16.888  21.914  0.00  0.00    +0.000 HD
ENDBRANCH  28  29
ENDBRANCH   1  28
BRANCH   9  31
ATOM     31  C   UNL     1       3.200  14.974  19.435  0.00  0.00    +0.000 C 
ATOM     32  C   UNL     1       3.746  15.544  20.745  0.00  0.00    +0.000 C 
BRANCH  31  33
ATOM     33  C   UNL     1       3.709  15.706  18.192  0.00  0.00    +0.000 C 
ATOM     34  F   UNL     1       5.010  15.456  17.928  0.00  0.00    +0.000 F 
ATOM     35  F   UNL     1       3.009  15.384  17.083  0.00  0.00    +0.000 F 
ATOM     36  F   UNL     1       3.593  17.047  18.363  0.00  0.00    +0.000 F 
ENDBRANCH  31  33
ENDBRANCH   9  31
TORSDOF 6
ENDMDL
