MODEL 1
REMARK VINA RESULT:      -7.2      0.000      0.000
REMARK  Name = 
REMARK  11 active torsions:
REMARK  status: ('A' for Active; 'I' for Inactive)
REMARK    1  A    between atoms: C_1  and  C_2
REMARK    2  A    between atoms: C_2  and  C_3
REMARK    3  A    between atoms: C_3  and  C_4
REMARK    4  A    between atoms: C_4  and  C_5
REMARK    5  A    between atoms: C_5  and  CA_6
REMARK    6  A    between atoms: CA_6  and  C_7
REMARK    7  A    between atoms: CA_6  and  N_9
REMARK    8  A    between atoms: C_7  and  O_8
REMARK    9  A    between atoms: C_10  and  C_12
REMARK   10  A    between atoms: C_13  and  C_14
REMARK   11  A    between atoms: C_15  and  C_16
REMARK                            x       y       z     vdW  Elec       q    Type
REMARK                         _______ _______ _______ _____ _____    ______ ____
ROOT
ATOM      1  N   UNL     1       5.818   4.113  15.717  0.00  0.00    +0.000 N 
ATOM      2  C   UNL     1       6.455   4.453  16.888  0.00  0.00    +0.000 C 
ATOM      3  O   UNL     1       7.606   4.853  16.952  0.00  0.00    +0.000 OA
ATOM      4  H   UNL     1       4.848   3.822  15.714  0.00  0.00    +0.000 HD
ENDROOT
BRANCH   2   5
ATOM      5  C   UNL     1       5.620   4.237  18.096  0.00  0.00    +0.000 C 
ATOM      6  C   UNL     1       4.631   3.329  18.079  0.00  0.00    +0.000 C 
BRANCH   6   7
ATOM      7  C   UNL     1       3.670   3.174  19.159  0.00  0.00    +0.000 A 
ATOM      8  C   UNL     1       2.409   3.656  19.116  0.00  0.00    +0.000 A 
ATOM      9  C   UNL     1       1.784   4.350  17.933  0.00  0.00    +0.000 C 
ATOM     10  N   UNL     1       1.569   3.507  20.198  0.00  0.00    +0.000 N 
ATOM     11  C   UNL     1       1.901   2.868  21.357  0.00  0.00    +0.000 A 
ATOM     12  O   UNL     1       1.120   2.785  22.294  0.00  0.00    +0.000 OA
ATOM     13  N   UNL     1       3.150   2.328  21.391  0.00  0.00    +0.000 N 
ATOM     14  C   UNL     1       4.065   2.391  20.379  0.00  0.00    +0.000 A 
ATOM     15  O   UNL     1       5.157   1.831  20.470  0.00  0.00    +0.000 OA
ATOM     16  H   UNL     1       0.632   3.890  20.173  0.00  0.00    +0.000 HD
ATOM     17  H   UNL     1       3.407   1.812  22.217  0.00  0.00    +0.000 HD
ENDBRANCH   6   7
ENDBRANCH   2   5
BRANCH   1  18
ATOM     18  CA  UNL     1       6.501   4.206  14.424  0.00  0.00    +0.000 C 
BRANCH  18  19
ATOM     19  C   UNL     1       5.589   3.681  13.284  0.00  0.00    +0.000 C 
BRANCH  19  20
ATOM     20  C   UNL     1       6.392   3.079  12.122  0.00  0.00    +0.000 C 
BRANCH  20  21
ATOM     21  C   UNL     1       5.627   2.013  11.333  0.00  0.00    +0.000 C 
BRANCH  21  23
ATOM     22  C   UNL     1       6.090  -0.474  11.370  0.00  0.00    +0.000 C 
ATOM     23  C   UNL     1       6.583   0.890  10.922  0.00  0.00    +0.000 C 
ENDBRANCH  21  23
ENDBRANCH  20  21
ENDBRANCH  19  20
ENDBRANCH  18  19
BRANCH  18  24
ATOM     24  C   UNL     1       6.993   5.650  14.194  0.00  0.00    +0.000 C 
BRANCH  24  25
ATOM     25  O   UNL     1       8.390   5.691  13.900  0.00  0.00    +0.000 OA
ATOM     26  H   UNL     1       8.653   4.811  13.578  0.00  0.00    +0.000 HD
ENDBRANCH  24  25
ENDBRANCH  18  24
ENDBRANCH   1  18
TORSDOF 9
ENDMDL
MODEL 2
REMARK VINA RESULT:      -7.1      5.209      8.305
REMARK  Name = 
REMARK  11 active torsions:
REMARK  status: ('A' for Active; 'I' for Inactive)
REMARK    1  A    between atoms: C_1  and  C_2
REMARK    2  A    between atoms: C_2  and  C_3
REMARK    3  A    between atoms: C_3  and  C_4
REMARK    4  A    between atoms: C_4  and  C_5
REMARK    5  A    between atoms: C_5  and  CA_6
REMARK    6  A    between atoms: CA_6  and  C_7
REMARK    7  A    between atoms: CA_6  and  N_9
REMARK    8  A    between atoms: C_7  and  O_8
REMARK    9  A    between atoms: C_10  and  C_12
REMARK   10  A    between atoms: C_13  and  C_14
REMARK   11  A    between atoms: C_15  and  C_16
REMARK                            x       y       z     vdW  Elec       q    Type
REMARK                         _______ _______ _______ _____ _____    ______ ____
ROOT
ATOM      1  N   UNL     1       1.207   9.111  19.483  0.00  0.00    +0.000 N 
ATOM      2  C   UNL     1       1.949   8.507  18.495  0.00  0.00    +0.000 C 
ATOM      3  O   UNL     1       2.236   9.034  17.432  0.00  0.00    +0.000 OA
ATOM      4  H   UNL     1       1.028   8.644  20.364  0.00  0.00    +0.000 HD
ENDROOT
BRANCH   2   5
ATOM      5  C   UNL     1       2.335   7.111  18.819  0.00  0.00    +0.000 C 
ATOM      6  C   UNL     1       2.965   6.357  17.904  0.00  0.00    +0.000 C 
BRANCH   6   7
ATOM      7  C   UNL     1       3.229   4.938  18.084  0.00  0.00    +0.000 A 
ATOM      8  C   UNL     1       4.366   4.449  18.624  0.00  0.00    +0.000 A 
ATOM      9  C   UNL     1       5.489   5.282  19.185  0.00  0.00    +0.000 C 
ATOM     10  N   UNL     1       4.561   3.088  18.721  0.00  0.00    +0.000 N 
ATOM     11  C   UNL     1       3.661   2.143  18.325  0.00  0.00    +0.000 A 
ATOM     12  O   UNL     1       3.898   0.948  18.417  0.00  0.00    +0.000 OA
ATOM     13  N   UNL     1       2.487   2.624  17.832  0.00  0.00    +0.000 N 
ATOM     14  C   UNL     1       2.166   3.946  17.703  0.00  0.00    +0.000 A 
ATOM     15  O   UNL     1       1.060   4.297  17.295  0.00  0.00    +0.000 OA
ATOM     16  H   UNL     1       5.425   2.724  19.103  0.00  0.00    +0.000 HD
ATOM     17  H   UNL     1       1.785   1.950  17.572  0.00  0.00    +0.000 HD
ENDBRANCH   6   7
ENDBRANCH   2   5
BRANCH   1  18
ATOM     18  CA  UNL     1       0.688  10.472  19.322  0.00  0.00    +0.000 C 
BRANCH  18  19
ATOM     19  C   UNL     1      -0.860  10.460  19.223  0.00  0.00    +0.000 C 
BRANCH  19  20
ATOM     20  C   UNL     1      -1.353  10.255  17.784  0.00  0.00    +0.000 C 
BRANCH  20  21
ATOM     21  C   UNL     1      -2.811   9.796  17.693  0.00  0.00    +0.000 C 
BRANCH  21  23
ATOM     22  C   UNL     1      -2.809  10.844  15.389  0.00  0.00    +0.000 C 
ATOM     23  C   UNL     1      -3.213   9.642  16.224  0.00  0.00    +0.000 C 
ENDBRANCH  21  23
ENDBRANCH  20  21
ENDBRANCH  19  20
ENDBRANCH  18  19
BRANCH  18  24
ATOM     24  C   UNL     1       1.220  11.373  20.455  0.00  0.00    +0.000 C 
BRANCH  24  25
ATOM     25  O   UNL     1       1.117  10.735  21.730  0.00  0.00    +0.000 OA
ATOM     26  H   UNL     1       1.577   9.881  21.673  0.00  0.00    +0.000 HD
ENDBRANCH  24  25
ENDBRANCH  18  24
ENDBRANCH   1  18
TORSDOF 9
ENDMDL
MODEL 3
REMARK VINA RESULT:      -7.1      1.317      1.794
REMARK  Name = 
REMARK  11 active torsions:
REMARK  status: ('A' for Active; 'I' for Inactive)
REMARK    1  A    between atoms: C_1  and  C_2
REMARK    2  A    between atoms: C_2  and  C_3
REMARK    3  A    between atoms: C_3  and  C_4
REMARK    4  A    between atoms: C_4  and  C_5
REMARK    5  A    between atoms: C_5  and  CA_6
REMARK    6  A    between atoms: CA_6  and  C_7
REMARK    7  A    between atoms: CA_6  and  N_9
REMARK    8  A    between atoms: C_7  and  O_8
REMARK    9  A    between atoms: C_10  and  C_12
REMARK   10  A    between atoms: C_13  and  C_14
REMARK   11  A    between atoms: C_15  and  C_16
REMARK                            x       y       z     vdW  Elec       q    Type
REMARK                         _______ _______ _______ _____ _____    ______ ____
ROOT
ATOM      1  N   UNL     1       5.871   3.889  14.879  0.00  0.00    +0.000 N 
ATOM      2  C   UNL     1       6.125   4.061  16.220  0.00  0.00    +0.000 C 
ATOM      3  O   UNL     1       7.217   4.354  16.681  0.00  0.00    +0.000 OA
ATOM      4  H   UNL     1       4.937   3.684  14.545  0.00  0.00    +0.000 HD
ENDROOT
BRANCH   2   5
ATOM      5  C   UNL     1       4.943   3.803  17.080  0.00  0.00    +0.000 C 
ATOM      6  C   UNL     1       4.946   4.195  18.364  0.00  0.00    +0.000 C 
BRANCH   6   7
ATOM      7  C   UNL     1       3.902   3.837  19.311  0.00  0.00    +0.000 A 
ATOM      8  C   UNL     1       2.716   4.476  19.397  0.00  0.00    +0.000 A 
ATOM      9  C   UNL     1       2.264   5.593  18.492  0.00  0.00    +0.000 C 
ATOM     10  N   UNL     1       1.793   4.106  20.351  0.00  0.00    +0.000 N 
ATOM     11  C   UNL     1       1.964   3.090  21.245  0.00  0.00    +0.000 A 
ATOM     12  O   UNL     1       1.117   2.820  22.084  0.00  0.00    +0.000 OA
ATOM     13  N   UNL     1       3.132   2.401  21.131  0.00  0.00    +0.000 N 
ATOM     14  C   UNL     1       4.115   2.657  20.218  0.00  0.00    +0.000 A 
ATOM     15  O   UNL     1       5.120   1.952  20.147  0.00  0.00    +0.000 OA
ATOM     16  H   UNL     1       0.914   4.604  20.430  0.00  0.00    +0.000 HD
ATOM     17  H   UNL     1       3.267   1.617  21.749  0.00  0.00    +0.000 HD
ENDBRANCH   6   7
ENDBRANCH   2   5
BRANCH   1  18
ATOM     18  CA  UNL     1       6.929   4.048  13.877  0.00  0.00    +0.000 C 
BRANCH  18  19
ATOM     19  C   UNL     1       6.453   3.534  12.493  0.00  0.00    +0.000 C 
BRANCH  19  20
ATOM     20  C   UNL     1       4.925   3.561  12.352  0.00  0.00    +0.000 C 
BRANCH  20  21
ATOM     21  C   UNL     1       4.409   2.818  11.116  0.00  0.00    +0.000 C 
BRANCH  21  23
ATOM     22  C   UNL     1       3.015   4.218   9.534  0.00  0.00    +0.000 C 
ATOM     23  C   UNL     1       3.007   3.322  10.759  0.00  0.00    +0.000 C 
ENDBRANCH  21  23
ENDBRANCH  20  21
ENDBRANCH  19  20
ENDBRANCH  18  19
BRANCH  18  24
ATOM     24  C   UNL     1       7.411   5.512  13.851  0.00  0.00    +0.000 C 
BRANCH  24  25
ATOM     25  O   UNL     1       8.158   5.801  12.667  0.00  0.00    +0.000 OA
ATOM     26  H   UNL     1       9.057   6.055  12.937  0.00  0.00    +0.000 HD
ENDBRANCH  24  25
ENDBRANCH  18  24
ENDBRANCH   1  18
TORSDOF 9
ENDMDL
MODEL 4
REMARK VINA RESULT:      -7.1      1.222      1.636
REMARK  Name = 
REMARK  11 active torsions:
REMARK  status: ('A' for Active; 'I' for Inactive)
REMARK    1  A    between atoms: C_1  and  C_2
REMARK    2  A    between atoms: C_2  and  C_3
REMARK    3  A    between atoms: C_3  and  C_4
REMARK    4  A    between atoms: C_4  and  C_5
REMARK    5  A    between atoms: C_5  and  CA_6
REMARK    6  A    between atoms: CA_6  and  C_7
REMARK    7  A    between atoms: CA_6  and  N_9
REMARK    8  A    between atoms: C_7  and  O_8
REMARK    9  A    between atoms: C_10  and  C_12
REMARK   10  A    between atoms: C_13  and  C_14
REMARK   11  A    between atoms: C_15  and  C_16
REMARK                            x       y       z     vdW  Elec       q    Type
REMARK                         _______ _______ _______ _____ _____    ______ ____
ROOT
ATOM      1  N   UNL     1       5.927   3.975  15.783  0.00  0.00    +0.000 N 
ATOM      2  C   UNL     1       5.165   5.004  16.285  0.00  0.00    +0.000 C 
ATOM      3  O   UNL     1       5.016   6.083  15.732  0.00  0.00    +0.000 OA
ATOM      4  H   UNL     1       5.987   3.085  16.263  0.00  0.00    +0.000 HD
ENDROOT
BRANCH   2   5
ATOM      5  C   UNL     1       4.568   4.702  17.611  0.00  0.00    +0.000 C 
ATOM      6  C   UNL     1       3.965   3.522  17.825  0.00  0.00    +0.000 C 
BRANCH   6   7
ATOM      7  C   UNL     1       3.217   3.216  19.034  0.00  0.00    +0.000 A 
ATOM      8  C   UNL     1       1.885   3.403  19.160  0.00  0.00    +0.000 A 
ATOM      9  C   UNL     1       0.968   3.880  18.065  0.00  0.00    +0.000 C 
ATOM     10  N   UNL     1       1.254   3.129  20.354  0.00  0.00    +0.000 N 
ATOM     11  C   UNL     1       1.874   2.641  21.467  0.00  0.00    +0.000 A 
ATOM     12  O   UNL     1       1.265   2.436  22.507  0.00  0.00    +0.000 OA
ATOM     13  N   UNL     1       3.206   2.393  21.334  0.00  0.00    +0.000 N 
ATOM     14  C   UNL     1       3.939   2.604  20.201  0.00  0.00    +0.000 A 
ATOM     15  O   UNL     1       5.131   2.305  20.147  0.00  0.00    +0.000 OA
ATOM     16  H   UNL     1       0.260   3.294  20.455  0.00  0.00    +0.000 HD
ATOM     17  H   UNL     1       3.681   1.991  22.125  0.00  0.00    +0.000 HD
ENDBRANCH   6   7
ENDBRANCH   2   5
BRANCH   1  18
ATOM     18  CA  UNL     1       6.640   4.107  14.510  0.00  0.00    +0.000 C 
BRANCH  18  19
ATOM     19  C   UNL     1       5.668   3.922  13.316  0.00  0.00    +0.000 C 
BRANCH  19  20
ATOM     20  C   UNL     1       6.202   2.929  12.274  0.00  0.00    +0.000 C 
BRANCH  20  21
ATOM     21  C   UNL     1       5.165   2.521  11.225  0.00  0.00    +0.000 C 
BRANCH  21  23
ATOM     22  C   UNL     1       3.284   3.755  10.065  0.00  0.00    +0.000 C 
ATOM     23  C   UNL     1       3.898   3.364  11.396  0.00  0.00    +0.000 C 
ENDBRANCH  21  23
ENDBRANCH  20  21
ENDBRANCH  19  20
ENDBRANCH  18  19
BRANCH  18  24
ATOM     24  C   UNL     1       7.404   5.446  14.473  0.00  0.00    +0.000 C 
BRANCH  24  25
ATOM     25  O   UNL     1       8.291   5.518  13.355  0.00  0.00    +0.000 OA
ATOM     26  H   UNL     1       8.702   4.643  13.245  0.00  0.00    +0.000 HD
ENDBRANCH  24  25
ENDBRANCH  18  24
ENDBRANCH   1  18
TORSDOF 9
ENDMDL
MODEL 5
REMARK VINA RESULT:      -7.1      1.847      2.410
REMARK  Name = 
REMARK  11 active torsions:
REMARK  status: ('A' for Active; 'I' for Inactive)
REMARK    1  A    between atoms: C_1  and  C_2
REMARK    2  A    between atoms: C_2  and  C_3
REMARK    3  A    between atoms: C_3  and  C_4
REMARK    4  A    between atoms: C_4  and  C_5
REMARK    5  A    between atoms: C_5  and  CA_6
REMARK    6  A    between atoms: CA_6  and  C_7
REMARK    7  A    between atoms: CA_6  and  N_9
REMARK    8  A    between atoms: C_7  and  O_8
REMARK    9  A    between atoms: C_10  and  C_12
REMARK   10  A    between atoms: C_13  and  C_14
REMARK   11  A    between atoms: C_15  and  C_16
REMARK                            x       y       z     vdW  Elec       q    Type
REMARK                         _______ _______ _______ _____ _____    ______ ____
ROOT
ATOM      1  N   UNL     1       6.181   4.395  13.789  0.00  0.00    +0.000 N 
ATOM      2  C   UNL     1       6.372   4.547  15.143  0.00  0.00    +0.000 C 
ATOM      3  O   UNL     1       7.467   4.561  15.684  0.00  0.00    +0.000 OA
ATOM      4  H   UNL     1       5.252   4.429  13.385  0.00  0.00    +0.000 HD
ENDROOT
BRANCH   2   5
ATOM      5  C   UNL     1       5.105   4.644  15.910  0.00  0.00    +0.000 C 
ATOM      6  C   UNL     1       5.111   4.482  17.243  0.00  0.00    +0.000 C 
BRANCH   6   7
ATOM      7  C   UNL     1       3.899   4.399  18.042  0.00  0.00    +0.000 A 
ATOM      8  C   UNL     1       3.194   5.476  18.450  0.00  0.00    +0.000 A 
ATOM      9  C   UNL     1       3.502   6.905  18.084  0.00  0.00    +0.000 C 
ATOM     10  N   UNL     1       2.078   5.319  19.243  0.00  0.00    +0.000 N 
ATOM     11  C   UNL     1       1.581   4.117  19.656  0.00  0.00    +0.000 A 
ATOM     12  O   UNL     1       0.598   4.040  20.377  0.00  0.00    +0.000 OA
ATOM     13  N   UNL     1       2.250   3.021  19.204  0.00  0.00    +0.000 N 
ATOM     14  C   UNL     1       3.354   3.045  18.400  0.00  0.00    +0.000 A 
ATOM     15  O   UNL     1       3.869   2.005  17.993  0.00  0.00    +0.000 OA
ATOM     16  H   UNL     1       1.565   6.129  19.568  0.00  0.00    +0.000 HD
ATOM     17  H   UNL     1       1.880   2.119  19.457  0.00  0.00    +0.000 HD
ENDBRANCH   6   7
ENDBRANCH   2   5
BRANCH   1  18
ATOM     18  CA  UNL     1       7.312   4.229  12.874  0.00  0.00    +0.000 C 
BRANCH  18  19
ATOM     19  C   UNL     1       6.902   3.373  11.647  0.00  0.00    +0.000 C 
BRANCH  19  20
ATOM     20  C   UNL     1       5.754   2.406  11.965  0.00  0.00    +0.000 C 
BRANCH  20  21
ATOM     21  C   UNL     1       4.642   2.404  10.913  0.00  0.00    +0.000 C 
BRANCH  21  23
ATOM     22  C   UNL     1       3.067   4.034   9.786  0.00  0.00    +0.000 C 
ATOM     23  C   UNL     1       3.776   3.657  11.074  0.00  0.00    +0.000 C 
ENDBRANCH  21  23
ENDBRANCH  20  21
ENDBRANCH  19  20
ENDBRANCH  18  19
BRANCH  18  24
ATOM     24  C   UNL     1       7.883   5.610  12.490  0.00  0.00    +0.000 C 
BRANCH  24  25
ATOM     25  O   UNL     1       8.954   5.996  13.352  0.00  0.00    +0.000 OA
ATOM     26  H   UNL     1       8.591   6.591  14.031  0.00  0.00    +0.000 HD
ENDBRANCH  24  25
ENDBRANCH  18  24
ENDBRANCH   1  18
TORSDOF 9
ENDMDL
MODEL 6
REMARK VINA RESULT:      -6.9      5.232      8.085
REMARK  Name = 
REMARK  11 active torsions:
REMARK  status: ('A' for Active; 'I' for Inactive)
REMARK    1  A    between atoms: C_1  and  C_2
REMARK    2  A    between atoms: C_2  and  C_3
REMARK    3  A    between atoms: C_3  and  C_4
REMARK    4  A    between atoms: C_4  and  C_5
REMARK    5  A    between atoms: C_5  and  CA_6
REMARK    6  A    between atoms: CA_6  and  C_7
REMARK    7  A    between atoms: CA_6  and  N_9
REMARK    8  A    between atoms: C_7  and  O_8
REMARK    9  A    between atoms: C_10  and  C_12
REMARK   10  A    between atoms: C_13  and  C_14
REMARK   11  A    between atoms: C_15  and  C_16
REMARK                            x       y       z     vdW  Elec       q    Type
REMARK                         _______ _______ _______ _____ _____    ______ ____
ROOT
ATOM      1  N   UNL     1       1.284   9.328  19.167  0.00  0.00    +0.000 N 
ATOM      2  C   UNL     1       2.035   8.544  18.322  0.00  0.00    +0.000 C 
ATOM      3  O   UNL     1       2.178   8.762  17.129  0.00  0.00    +0.000 OA
ATOM      4  H   UNL     1       1.229   9.125  20.158  0.00  0.00    +0.000 HD
ENDROOT
BRANCH   2   5
ATOM      5  C   UNL     1       2.627   7.358  18.989  0.00  0.00    +0.000 C 
ATOM      6  C   UNL     1       3.120   6.348  18.255  0.00  0.00    +0.000 C 
BRANCH   6   7
ATOM      7  C   UNL     1       3.565   5.087  18.827  0.00  0.00    +0.000 A 
ATOM      8  C   UNL     1       2.774   4.276  19.562  0.00  0.00    +0.000 A 
ATOM      9  C   UNL     1       1.311   4.507  19.838  0.00  0.00    +0.000 C 
ATOM     10  N   UNL     1       3.281   3.117  20.108  0.00  0.00    +0.000 N 
ATOM     11  C   UNL     1       4.563   2.679  19.949  0.00  0.00    +0.000 A 
ATOM     12  O   UNL     1       4.963   1.650  20.475  0.00  0.00    +0.000 OA
ATOM     13  N   UNL     1       5.354   3.458  19.162  0.00  0.00    +0.000 N 
ATOM     14  C   UNL     1       4.965   4.616  18.551  0.00  0.00    +0.000 A 
ATOM     15  O   UNL     1       5.728   5.235  17.812  0.00  0.00    +0.000 OA
ATOM     16  H   UNL     1       2.693   2.523  20.680  0.00  0.00    +0.000 HD
ATOM     17  H   UNL     1       6.293   3.136  18.990  0.00  0.00    +0.000 HD
ENDBRANCH   6   7
ENDBRANCH   2   5
BRANCH   1  18
ATOM     18  CA  UNL     1       0.577  10.514  18.679  0.00  0.00    +0.000 C 
BRANCH  18  19
ATOM     19  C   UNL     1      -0.751  10.718  19.454  0.00  0.00    +0.000 C 
BRANCH  19  20
ATOM     20  C   UNL     1      -1.984  10.592  18.547  0.00  0.00    +0.000 C 
BRANCH  20  21
ATOM     21  C   UNL     1      -1.678   9.982  17.176  0.00  0.00    +0.000 C 
BRANCH  21  23
ATOM     22  C   UNL     1      -3.840  11.212  16.708  0.00  0.00    +0.000 C 
ATOM     23  C   UNL     1      -2.572  10.629  16.114  0.00  0.00    +0.000 C 
ENDBRANCH  21  23
ENDBRANCH  20  21
ENDBRANCH  19  20
ENDBRANCH  18  19
BRANCH  18  24
ATOM     24  C   UNL     1       1.510  11.741  18.735  0.00  0.00    +0.000 C 
BRANCH  24  25
ATOM     25  O   UNL     1       2.298  11.860  17.549  0.00  0.00    +0.000 OA
ATOM     26  H   UNL     1       1.749  11.580  16.797  0.00  0.00    +0.000 HD
ENDBRANCH  24  25
ENDBRANCH  18  24
ENDBRANCH   1  18
TORSDOF 9
ENDMDL
MODEL 7
REMARK VINA RESULT:      -6.8      5.342      8.807
REMARK  Name = 
REMARK  11 active torsions:
REMARK  status: ('A' for Active; 'I' for Inactive)
REMARK    1  A    between atoms: C_1  and  C_2
REMARK    2  A    between atoms: C_2  and  C_3
REMARK    3  A    between atoms: C_3  and  C_4
REMARK    4  A    between atoms: C_4  and  C_5
REMARK    5  A    between atoms: C_5  and  CA_6
REMARK    6  A    between atoms: CA_6  and  C_7
REMARK    7  A    between atoms: CA_6  and  N_9
REMARK    8  A    between atoms: C_7  and  O_8
REMARK    9  A    between atoms: C_10  and  C_12
REMARK   10  A    between atoms: C_13  and  C_14
REMARK   11  A    between atoms: C_15  and  C_16
REMARK                            x       y       z     vdW  Elec       q    Type
REMARK                         _______ _______ _______ _____ _____    ______ ____
ROOT
ATOM      1  N   UNL     1       1.505   8.963  19.169  0.00  0.00    +0.000 N 
ATOM      2  C   UNL     1       2.273   8.345  18.210  0.00  0.00    +0.000 C 
ATOM      3  O   UNL     1       2.316   8.687  17.038  0.00  0.00    +0.000 OA
ATOM      4  H   UNL     1       1.535   8.664  20.137  0.00  0.00    +0.000 HD
ENDROOT
BRANCH   2   5
ATOM      5  C   UNL     1       3.023   7.171  18.723  0.00  0.00    +0.000 C 
ATOM      6  C   UNL     1       2.656   5.929  18.366  0.00  0.00    +0.000 C 
BRANCH   6   7
ATOM      7  C   UNL     1       3.231   4.728  18.949  0.00  0.00    +0.000 A 
ATOM      8  C   UNL     1       2.619   3.989  19.900  0.00  0.00    +0.000 A 
ATOM      9  C   UNL     1       1.237   4.245  20.444  0.00  0.00    +0.000 C 
ATOM     10  N   UNL     1       3.248   2.887  20.437  0.00  0.00    +0.000 N 
ATOM     11  C   UNL     1       4.480   2.436  20.062  0.00  0.00    +0.000 A 
ATOM     12  O   UNL     1       4.997   1.461  20.589  0.00  0.00    +0.000 OA
ATOM     13  N   UNL     1       5.081   3.138  19.063  0.00  0.00    +0.000 N 
ATOM     14  C   UNL     1       4.555   4.234  18.440  0.00  0.00    +0.000 A 
ATOM     15  O   UNL     1       5.143   4.782  17.509  0.00  0.00    +0.000 OA
ATOM     16  H   UNL     1       2.798   2.349  21.167  0.00  0.00    +0.000 HD
ATOM     17  H   UNL     1       5.973   2.802  18.736  0.00  0.00    +0.000 HD
ENDBRANCH   6   7
ENDBRANCH   2   5
BRANCH   1  18
ATOM     18  CA  UNL     1       0.653  10.109  18.840  0.00  0.00    +0.000 C 
BRANCH  18  19
ATOM     19  C   UNL     1      -0.602  10.138  19.752  0.00  0.00    +0.000 C 
BRANCH  19  20
ATOM     20  C   UNL     1      -0.266   9.839  21.220  0.00  0.00    +0.000 C 
BRANCH  20  21
ATOM     21  C   UNL     1      -0.289  11.078  22.120  0.00  0.00    +0.000 C 
BRANCH  21  23
ATOM     22  C   UNL     1      -2.398  12.039  23.137  0.00  0.00    +0.000 C 
ATOM     23  C   UNL     1      -1.375  10.919  23.188  0.00  0.00    +0.000 C 
ENDBRANCH  21  23
ENDBRANCH  20  21
ENDBRANCH  19  20
ENDBRANCH  18  19
BRANCH  18  24
ATOM     24  C   UNL     1       1.478  11.410  18.899  0.00  0.00    +0.000 C 
BRANCH  24  25
ATOM     25  O   UNL     1       2.167  11.655  17.671  0.00  0.00    +0.000 OA
ATOM     26  H   UNL     1       1.682  12.347  17.190  0.00  0.00    +0.000 HD
ENDBRANCH  24  25
ENDBRANCH  18  24
ENDBRANCH   1  18
TORSDOF 9
ENDMDL
MODEL 8
REMARK VINA RESULT:      -6.8      5.262      8.315
REMARK  Name = 
REMARK  11 active torsions:
REMARK  status: ('A' for Active; 'I' for Inactive)
REMARK    1  A    between atoms: C_1  and  C_2
REMARK    2  A    between atoms: C_2  and  C_3
REMARK    3  A    between atoms: C_3  and  C_4
REMARK    4  A    between atoms: C_4  and  C_5
REMARK    5  A    between atoms: C_5  and  CA_6
REMARK    6  A    between atoms: CA_6  and  C_7
REMARK    7  A    between atoms: CA_6  and  N_9
REMARK    8  A    between atoms: C_7  and  O_8
REMARK    9  A    between atoms: C_10  and  C_12
REMARK   10  A    between atoms: C_13  and  C_14
REMARK   11  A    between atoms: C_15  and  C_16
REMARK                            x       y       z     vdW  Elec       q    Type
REMARK                         _______ _______ _______ _____ _____    ______ ____
ROOT
ATOM      1  N   UNL     1       1.138   9.220  19.495  0.00  0.00    +0.000 N 
ATOM      2  C   UNL     1       1.888   8.608  18.518  0.00  0.00    +0.000 C 
ATOM      3  O   UNL     1       1.897   8.947  17.345  0.00  0.00    +0.000 OA
ATOM      4  H   UNL     1       1.196   8.924  20.462  0.00  0.00    +0.000 HD
ENDROOT
BRANCH   2   5
ATOM      5  C   UNL     1       2.662   7.442  19.014  0.00  0.00    +0.000 C 
ATOM      6  C   UNL     1       2.579   6.260  18.382  0.00  0.00    +0.000 C 
BRANCH   6   7
ATOM      7  C   UNL     1       3.173   5.036  18.896  0.00  0.00    +0.000 A 
ATOM      8  C   UNL     1       2.544   4.197  19.747  0.00  0.00    +0.000 A 
ATOM      9  C   UNL     1       1.126   4.353  20.231  0.00  0.00    +0.000 C 
ATOM     10  N   UNL     1       3.190   3.078  20.225  0.00  0.00    +0.000 N 
ATOM     11  C   UNL     1       4.458   2.707  19.885  0.00  0.00    +0.000 A 
ATOM     12  O   UNL     1       4.987   1.712  20.357  0.00  0.00    +0.000 OA
ATOM     13  N   UNL     1       5.081   3.514  18.983  0.00  0.00    +0.000 N 
ATOM     14  C   UNL     1       4.543   4.637  18.423  0.00  0.00    +0.000 A 
ATOM     15  O   UNL     1       5.154   5.284  17.575  0.00  0.00    +0.000 OA
ATOM     16  H   UNL     1       2.725   2.463  20.882  0.00  0.00    +0.000 HD
ATOM     17  H   UNL     1       6.002   3.241  18.679  0.00  0.00    +0.000 HD
ENDBRANCH   6   7
ENDBRANCH   2   5
BRANCH   1  18
ATOM     18  CA  UNL     1       0.266  10.357  19.186  0.00  0.00    +0.000 C 
BRANCH  18  19
ATOM     19  C   UNL     1      -1.132   9.866  18.728  0.00  0.00    +0.000 C 
BRANCH  19  20
ATOM     20  C   UNL     1      -1.612  10.573  17.453  0.00  0.00    +0.000 C 
BRANCH  20  21
ATOM     21  C   UNL     1      -3.045  11.102  17.546  0.00  0.00    +0.000 C 
BRANCH  21  23
ATOM     22  C   UNL     1      -2.872  10.217  15.181  0.00  0.00    +0.000 C 
ATOM     23  C   UNL     1      -3.775  10.853  16.222  0.00  0.00    +0.000 C 
ENDBRANCH  21  23
ENDBRANCH  20  21
ENDBRANCH  19  20
ENDBRANCH  18  19
BRANCH  18  24
ATOM     24  C   UNL     1       0.210  11.318  20.391  0.00  0.00    +0.000 C 
BRANCH  24  25
ATOM     25  O   UNL     1       1.175  10.974  21.387  0.00  0.00    +0.000 OA
ATOM     26  H   UNL     1       1.729  11.756  21.549  0.00  0.00    +0.000 HD
ENDBRANCH  24  25
ENDBRANCH  18  24
ENDBRANCH   1  18
TORSDOF 9
ENDMDL
MODEL 9
REMARK VINA RESULT:      -6.8      3.067      3.672
REMARK  Name = 
REMARK  11 active torsions:
REMARK  status: ('A' for Active; 'I' for Inactive)
REMARK    1  A    between atoms: C_1  and  C_2
REMARK    2  A    between atoms: C_2  and  C_3
REMARK    3  A    between atoms: C_3  and  C_4
REMARK    4  A    between atoms: C_4  and  C_5
REMARK    5  A    between atoms: C_5  and  CA_6
REMARK    6  A    between atoms: CA_6  and  C_7
REMARK    7  A    between atoms: CA_6  and  N_9
REMARK    8  A    between atoms: C_7  and  O_8
REMARK    9  A    between atoms: C_10  and  C_12
REMARK   10  A    between atoms: C_13  and  C_14
REMARK   11  A    between atoms: C_15  and  C_16
REMARK                            x       y       z     vdW  Elec       q    Type
REMARK                         _______ _______ _______ _____ _____    ______ ____
ROOT
ATOM      1  N   UNL     1       4.848   4.796  16.572  0.00  0.00    +0.000 N 
ATOM      2  C   UNL     1       4.043   4.009  17.363  0.00  0.00    +0.000 C 
ATOM      3  O   UNL     1       4.062   2.788  17.363  0.00  0.00    +0.000 OA
ATOM      4  H   UNL     1       4.820   5.806  16.638  0.00  0.00    +0.000 HD
ENDROOT
BRANCH   2   5
ATOM      5  C   UNL     1       3.093   4.789  18.196  0.00  0.00    +0.000 C 
ATOM      6  C   UNL     1       3.236   6.118  18.316  0.00  0.00    +0.000 C 
BRANCH   6   7
ATOM      7  C   UNL     1       2.452   6.925  19.238  0.00  0.00    +0.000 A 
ATOM      8  C   UNL     1       2.018   8.173  18.959  0.00  0.00    +0.000 A 
ATOM      9  C   UNL     1       2.207   8.885  17.644  0.00  0.00    +0.000 C 
ATOM     10  N   UNL     1       1.317   8.893  19.901  0.00  0.00    +0.000 N 
ATOM     11  C   UNL     1       0.984   8.433  21.141  0.00  0.00    +0.000 A 
ATOM     12  O   UNL     1       0.377   9.125  21.945  0.00  0.00    +0.000 OA
ATOM     13  N   UNL     1       1.366   7.155  21.413  0.00  0.00    +0.000 N 
ATOM     14  C   UNL     1       2.047   6.335  20.559  0.00  0.00    +0.000 A 
ATOM     15  O   UNL     1       2.310   5.173  20.863  0.00  0.00    +0.000 OA
ATOM     16  H   UNL     1       1.013   9.838  19.699  0.00  0.00    +0.000 HD
ATOM     17  H   UNL     1       1.096   6.772  22.305  0.00  0.00    +0.000 HD
ENDBRANCH   6   7
ENDBRANCH   2   5
BRANCH   1  18
ATOM     18  CA  UNL     1       5.813   4.205  15.642  0.00  0.00    +0.000 C 
BRANCH  18  19
ATOM     19  C   UNL     1       5.344   4.390  14.175  0.00  0.00    +0.000 C 
BRANCH  19  20
ATOM     20  C   UNL     1       6.202   3.595  13.181  0.00  0.00    +0.000 C 
BRANCH  20  21
ATOM     21  C   UNL     1       5.467   3.231  11.888  0.00  0.00    +0.000 C 
BRANCH  21  23
ATOM     22  C   UNL     1       7.251   1.661  11.018  0.00  0.00    +0.000 C 
ATOM     23  C   UNL     1       5.813   1.795  11.484  0.00  0.00    +0.000 C 
ENDBRANCH  21  23
ENDBRANCH  20  21
ENDBRANCH  19  20
ENDBRANCH  18  19
BRANCH  18  24
ATOM     24  C   UNL     1       7.219   4.780  15.909  0.00  0.00    +0.000 C 
BRANCH  24  25
ATOM     25  O   UNL     1       7.869   4.105  16.987  0.00  0.00    +0.000 OA
ATOM     26  H   UNL     1       7.626   4.557  17.812  0.00  0.00    +0.000 HD
ENDBRANCH  24  25
ENDBRANCH  18  24
ENDBRANCH   1  18
TORSDOF 9
ENDMDL
