MODEL 1
REMARK VINA RESULT:      -7.0      0.000      0.000
REMARK  Name = 
REMARK  3 active torsions:
REMARK  status: ('A' for Active; 'I' for Inactive)
REMARK    1  A    between atoms: C_1  and  C_2
REMARK    2  A    between atoms: N_4  and  C_5
REMARK    3  A    between atoms: C_10  and  C_11
REMARK                            x       y       z     vdW  Elec       q    Type
REMARK                         _______ _______ _______ _____ _____    ______ ____
ROOT
ATOM      1  C   UNL     1       6.778   4.934  15.404  0.00  0.00    +0.000 A 
ATOM      2  C   UNL     1       7.684   4.881  16.469  0.00  0.00    +0.000 A 
ATOM      3  C   UNL     1       7.279   4.594  17.776  0.00  0.00    +0.000 A 
ATOM      4  C   UNL     1       5.922   4.358  17.965  0.00  0.00    +0.000 A 
ATOM      5  N   UNL     1       5.201   4.014  19.076  0.00  0.00    +0.000 N 
ATOM      6  C   UNL     1       3.882   3.890  18.722  0.00  0.00    +0.000 A 
ATOM      7  N   UNL     1       3.720   4.151  17.436  0.00  0.00    +0.000 NA
ATOM      8  C   UNL     1       4.978   4.434  16.951  0.00  0.00    +0.000 A 
ATOM      9  C   UNL     1       5.403   4.750  15.646  0.00  0.00    +0.000 A 
ATOM     10  H   UNL     1       5.569   3.849  20.000  0.00  0.00    +0.000 HD
ENDROOT
BRANCH   1  14
ATOM     11  C   UNL     1       7.493   4.876  11.696  0.00  0.00    +0.000 C 
ATOM     12  C   UNL     1       6.876   4.370  12.973  0.00  0.00    +0.000 C 
ATOM     13  O   UNL     1       6.177   3.362  12.966  0.00  0.00    +0.000 OA
ATOM     14  N   UNL     1       7.188   5.160  14.070  0.00  0.00    +0.000 N 
ATOM     15  H   UNL     1       7.649   6.041  13.884  0.00  0.00    +0.000 HD
ENDBRANCH   1  14
BRANCH   6  16
ATOM     16  C   UNL     1       2.851   3.515  19.646  0.00  0.00    +0.000 A 
ATOM     17  C   UNL     1       1.507   3.815  19.560  0.00  0.00    +0.000 A 
ATOM     18  C   UNL     1       0.759   3.292  20.657  0.00  0.00    +0.000 A 
ATOM     19  C   UNL     1       1.555   2.606  21.545  0.00  0.00    +0.000 A 
ATOM     20  S   UNL     1       3.190   2.588  21.053  0.00  0.00    +0.000 S 
ENDBRANCH   6  16
TORSDOF 2
ENDMDL
MODEL 2
REMARK VINA RESULT:      -6.9      4.049      4.553
REMARK  Name = 
REMARK  3 active torsions:
REMARK  status: ('A' for Active; 'I' for Inactive)
REMARK    1  A    between atoms: C_1  and  C_2
REMARK    2  A    between atoms: N_4  and  C_5
REMARK    3  A    between atoms: C_10  and  C_11
REMARK                            x       y       z     vdW  Elec       q    Type
REMARK                         _______ _______ _______ _____ _____    ______ ____
ROOT
ATOM      1  C   UNL     1       4.651   5.095  17.110  0.00  0.00    +0.000 A 
ATOM      2  C   UNL     1       4.690   4.300  18.262  0.00  0.00    +0.000 A 
ATOM      3  C   UNL     1       4.037   4.669  19.442  0.00  0.00    +0.000 A 
ATOM      4  C   UNL     1       3.339   5.871  19.412  0.00  0.00    +0.000 A 
ATOM      5  N   UNL     1       2.569   6.502  20.350  0.00  0.00    +0.000 N 
ATOM      6  C   UNL     1       2.092   7.670  19.812  0.00  0.00    +0.000 A 
ATOM      7  N   UNL     1       2.532   7.825  18.575  0.00  0.00    +0.000 NA
ATOM      8  C   UNL     1       3.298   6.712  18.309  0.00  0.00    +0.000 A 
ATOM      9  C   UNL     1       3.985   6.334  17.138  0.00  0.00    +0.000 A 
ATOM     10  H   UNL     1       2.355   6.164  21.275  0.00  0.00    +0.000 HD
ENDROOT
BRANCH   1  14
ATOM     11  C   UNL     1       6.833   4.516  14.082  0.00  0.00    +0.000 C 
ATOM     12  C   UNL     1       6.496   5.104  15.427  0.00  0.00    +0.000 C 
ATOM     13  O   UNL     1       7.288   5.852  15.992  0.00  0.00    +0.000 OA
ATOM     14  N   UNL     1       5.255   4.698  15.895  0.00  0.00    +0.000 N 
ATOM     15  H   UNL     1       4.790   3.960  15.381  0.00  0.00    +0.000 HD
ENDBRANCH   1  14
BRANCH   6  16
ATOM     16  C   UNL     1       1.228   8.568  20.522  0.00  0.00    +0.000 A 
ATOM     17  C   UNL     1       0.879   8.508  21.856  0.00  0.00    +0.000 A 
ATOM     18  C   UNL     1      -0.010   9.557  22.237  0.00  0.00    +0.000 A 
ATOM     19  C   UNL     1      -0.310  10.387  21.182  0.00  0.00    +0.000 A 
ATOM     20  S   UNL     1       0.481   9.908  19.747  0.00  0.00    +0.000 S 
ENDBRANCH   6  16
TORSDOF 2
ENDMDL
MODEL 3
REMARK VINA RESULT:      -6.7      4.509      5.361
REMARK  Name = 
REMARK  3 active torsions:
REMARK  status: ('A' for Active; 'I' for Inactive)
REMARK    1  A    between atoms: C_1  and  C_2
REMARK    2  A    between atoms: N_4  and  C_5
REMARK    3  A    between atoms: C_10  and  C_11
REMARK                            x       y       z     vdW  Elec       q    Type
REMARK                         _______ _______ _______ _____ _____    ______ ____
ROOT
ATOM      1  C   UNL     1       3.771   5.033  17.839  0.00  0.00    +0.000 A 
ATOM      2  C   UNL     1       3.534   4.212  18.948  0.00  0.00    +0.000 A 
ATOM      3  C   UNL     1       2.854   4.670  20.080  0.00  0.00    +0.000 A 
ATOM      4  C   UNL     1       2.419   5.990  20.048  0.00  0.00    +0.000 A 
ATOM      5  N   UNL     1       1.702   6.736  20.943  0.00  0.00    +0.000 N 
ATOM      6  C   UNL     1       1.527   7.993  20.425  0.00  0.00    +0.000 A 
ATOM      7  N   UNL     1       2.110   8.094  19.243  0.00  0.00    +0.000 NA
ATOM      8  C   UNL     1       2.660   6.856  18.992  0.00  0.00    +0.000 A 
ATOM      9  C   UNL     1       3.370   6.382  17.870  0.00  0.00    +0.000 A 
ATOM     10  H   UNL     1       1.334   6.420  21.827  0.00  0.00    +0.000 HD
ENDROOT
BRANCH   1  14
ATOM     11  C   UNL     1       6.106   3.859  15.113  0.00  0.00    +0.000 C 
ATOM     12  C   UNL     1       5.760   4.344  16.496  0.00  0.00    +0.000 C 
ATOM     13  O   UNL     1       6.642   4.502  17.335  0.00  0.00    +0.000 OA
ATOM     14  N   UNL     1       4.401   4.560  16.665  0.00  0.00    +0.000 N 
ATOM     15  H   UNL     1       3.789   4.237  15.926  0.00  0.00    +0.000 HD
ENDBRANCH   1  14
BRANCH   6  16
ATOM     16  C   UNL     1       0.795   9.027  21.098  0.00  0.00    +0.000 A 
ATOM     17  C   UNL     1       0.378   9.031  22.413  0.00  0.00    +0.000 A 
ATOM     18  C   UNL     1      -0.336  10.217  22.757  0.00  0.00    +0.000 A 
ATOM     19  C   UNL     1      -0.440  11.083  21.694  0.00  0.00    +0.000 A 
ATOM     20  S   UNL     1       0.326  10.473  20.296  0.00  0.00    +0.000 S 
ENDBRANCH   6  16
TORSDOF 2
ENDMDL
MODEL 4
REMARK VINA RESULT:      -6.6      4.307      4.921
REMARK  Name = 
REMARK  3 active torsions:
REMARK  status: ('A' for Active; 'I' for Inactive)
REMARK    1  A    between atoms: C_1  and  C_2
REMARK    2  A    between atoms: N_4  and  C_5
REMARK    3  A    between atoms: C_10  and  C_11
REMARK                            x       y       z     vdW  Elec       q    Type
REMARK                         _______ _______ _______ _____ _____    ______ ____
ROOT
ATOM      1  C   UNL     1       4.343   5.178  17.388  0.00  0.00    +0.000 A 
ATOM      2  C   UNL     1       4.262   4.455  18.584  0.00  0.00    +0.000 A 
ATOM      3  C   UNL     1       3.575   4.939  19.701  0.00  0.00    +0.000 A 
ATOM      4  C   UNL     1       2.968   6.182  19.562  0.00  0.00    +0.000 A 
ATOM      5  N   UNL     1       2.197   6.921  20.417  0.00  0.00    +0.000 N 
ATOM      6  C   UNL     1       1.835   8.084  19.787  0.00  0.00    +0.000 A 
ATOM      7  N   UNL     1       2.351   8.133  18.570  0.00  0.00    +0.000 NA
ATOM      8  C   UNL     1       3.048   6.955  18.414  0.00  0.00    +0.000 A 
ATOM      9  C   UNL     1       3.768   6.460  17.308  0.00  0.00    +0.000 A 
ATOM     10  H   UNL     1       1.910   6.655  21.346  0.00  0.00    +0.000 HD
ENDROOT
BRANCH   1  14
ATOM     11  C   UNL     1       6.580   4.358  14.458  0.00  0.00    +0.000 C 
ATOM     12  C   UNL     1       6.193   5.094  15.714  0.00  0.00    +0.000 C 
ATOM     13  O   UNL     1       6.927   5.964  16.172  0.00  0.00    +0.000 OA
ATOM     14  N   UNL     1       4.981   4.667  16.235  0.00  0.00    +0.000 N 
ATOM     15  H   UNL     1       4.572   3.837  15.825  0.00  0.00    +0.000 HD
ENDBRANCH   1  14
BRANCH   6  16
ATOM     16  C   UNL     1       1.001   9.081  20.393  0.00  0.00    +0.000 A 
ATOM     17  C   UNL     1       0.201  10.002  19.747  0.00  0.00    +0.000 A 
ATOM     18  C   UNL     1      -0.492  10.856  20.655  0.00  0.00    +0.000 A 
ATOM     19  C   UNL     1      -0.202  10.559  21.967  0.00  0.00    +0.000 A 
ATOM     20  S   UNL     1       0.891   9.255  22.099  0.00  0.00    +0.000 S 
ENDBRANCH   6  16
TORSDOF 2
ENDMDL
MODEL 5
REMARK VINA RESULT:      -6.6      3.263      7.173
REMARK  Name = 
REMARK  3 active torsions:
REMARK  status: ('A' for Active; 'I' for Inactive)
REMARK    1  A    between atoms: C_1  and  C_2
REMARK    2  A    between atoms: N_4  and  C_5
REMARK    3  A    between atoms: C_10  and  C_11
REMARK                            x       y       z     vdW  Elec       q    Type
REMARK                         _______ _______ _______ _____ _____    ______ ____
ROOT
ATOM      1  C   UNL     1       3.467   4.324  19.367  0.00  0.00    +0.000 A 
ATOM      2  C   UNL     1       3.268   5.689  19.132  0.00  0.00    +0.000 A 
ATOM      3  C   UNL     1       3.778   6.331  17.999  0.00  0.00    +0.000 A 
ATOM      4  C   UNL     1       4.495   5.538  17.110  0.00  0.00    +0.000 A 
ATOM      5  N   UNL     1       5.084   5.819  15.908  0.00  0.00    +0.000 N 
ATOM      6  C   UNL     1       5.662   4.673  15.425  0.00  0.00    +0.000 A 
ATOM      7  N   UNL     1       5.483   3.671  16.268  0.00  0.00    +0.000 NA
ATOM      8  C   UNL     1       4.752   4.190  17.314  0.00  0.00    +0.000 A 
ATOM      9  C   UNL     1       4.251   3.568  18.475  0.00  0.00    +0.000 A 
ATOM     10  H   UNL     1       5.079   6.707  15.432  0.00  0.00    +0.000 HD
ENDROOT
BRANCH   1  14
ATOM     11  C   UNL     1       1.300   2.564  21.911  0.00  0.00    +0.000 C 
ATOM     12  C   UNL     1       1.589   3.218  20.585  0.00  0.00    +0.000 C 
ATOM     13  O   UNL     1       0.707   3.313  19.737  0.00  0.00    +0.000 OA
ATOM     14  N   UNL     1       2.901   3.655  20.476  0.00  0.00    +0.000 N 
ATOM     15  H   UNL     1       3.543   3.366  21.203  0.00  0.00    +0.000 HD
ENDBRANCH   1  14
BRANCH   6  16
ATOM     16  C   UNL     1       6.348   4.607  14.167  0.00  0.00    +0.000 A 
ATOM     17  C   UNL     1       7.456   5.336  13.784  0.00  0.00    +0.000 A 
ATOM     18  C   UNL     1       7.880   5.030  12.456  0.00  0.00    +0.000 A 
ATOM     19  C   UNL     1       7.084   4.074  11.868  0.00  0.00    +0.000 A 
ATOM     20  S   UNL     1       5.842   3.547  12.913  0.00  0.00    +0.000 S 
ENDBRANCH   6  16
TORSDOF 2
ENDMDL
MODEL 6
REMARK VINA RESULT:      -6.6      1.261      1.407
REMARK  Name = 
REMARK  3 active torsions:
REMARK  status: ('A' for Active; 'I' for Inactive)
REMARK    1  A    between atoms: C_1  and  C_2
REMARK    2  A    between atoms: N_4  and  C_5
REMARK    3  A    between atoms: C_10  and  C_11
REMARK                            x       y       z     vdW  Elec       q    Type
REMARK                         _______ _______ _______ _____ _____    ______ ____
ROOT
ATOM      1  C   UNL     1       6.530   4.552  14.987  0.00  0.00    +0.000 A 
ATOM      2  C   UNL     1       7.551   4.698  15.934  0.00  0.00    +0.000 A 
ATOM      3  C   UNL     1       7.318   4.563  17.306  0.00  0.00    +0.000 A 
ATOM      4  C   UNL     1       6.013   4.272  17.685  0.00  0.00    +0.000 A 
ATOM      5  N   UNL     1       5.450   4.035  18.909  0.00  0.00    +0.000 N 
ATOM      6  C   UNL     1       4.113   3.784  18.736  0.00  0.00    +0.000 A 
ATOM      7  N   UNL     1       3.788   3.860  17.457  0.00  0.00    +0.000 NA
ATOM      8  C   UNL     1       4.959   4.153  16.792  0.00  0.00    +0.000 A 
ATOM      9  C   UNL     1       5.210   4.318  15.415  0.00  0.00    +0.000 A 
ATOM     10  H   UNL     1       5.930   4.018  19.796  0.00  0.00    +0.000 HD
ENDROOT
BRANCH   1  14
ATOM     11  C   UNL     1       7.760   5.205  11.477  0.00  0.00    +0.000 C 
ATOM     12  C   UNL     1       7.804   5.311  12.979  0.00  0.00    +0.000 C 
ATOM     13  O   UNL     1       8.695   5.952  13.528  0.00  0.00    +0.000 OA
ATOM     14  N   UNL     1       6.770   4.623  13.597  0.00  0.00    +0.000 N 
ATOM     15  H   UNL     1       6.207   4.019  13.011  0.00  0.00    +0.000 HD
ENDBRANCH   1  14
BRANCH   6  16
ATOM     16  C   UNL     1       3.224   3.472  19.817  0.00  0.00    +0.000 A 
ATOM     17  C   UNL     1       3.397   2.501  20.784  0.00  0.00    +0.000 A 
ATOM     18  C   UNL     1       2.312   2.453  21.710  0.00  0.00    +0.000 A 
ATOM     19  C   UNL     1       1.347   3.390  21.423  0.00  0.00    +0.000 A 
ATOM     20  S   UNL     1       1.751   4.325  20.053  0.00  0.00    +0.000 S 
ENDBRANCH   6  16
TORSDOF 2
ENDMDL
MODEL 7
REMARK VINA RESULT:      -6.6      1.461      1.722
REMARK  Name = 
REMARK  3 active torsions:
REMARK  status: ('A' for Active; 'I' for Inactive)
REMARK    1  A    between atoms: C_1  and  C_2
REMARK    2  A    between atoms: N_4  and  C_5
REMARK    3  A    between atoms: C_10  and  C_11
REMARK                            x       y       z     vdW  Elec       q    Type
REMARK                         _______ _______ _______ _____ _____    ______ ____
ROOT
ATOM      1  C   UNL     1       5.826   4.939  14.919  0.00  0.00    +0.000 A 
ATOM      2  C   UNL     1       5.512   6.240  15.330  0.00  0.00    +0.000 A 
ATOM      3  C   UNL     1       4.752   6.494  16.475  0.00  0.00    +0.000 A 
ATOM      4  C   UNL     1       4.322   5.382  17.191  0.00  0.00    +0.000 A 
ATOM      5  N   UNL     1       3.613   5.265  18.355  0.00  0.00    +0.000 N 
ATOM      6  C   UNL     1       3.460   3.933  18.643  0.00  0.00    +0.000 A 
ATOM      7  N   UNL     1       4.027   3.188  17.710  0.00  0.00    +0.000 NA
ATOM      8  C   UNL     1       4.575   4.073  16.808  0.00  0.00    +0.000 A 
ATOM      9  C   UNL     1       5.321   3.839  15.636  0.00  0.00    +0.000 A 
ATOM     10  H   UNL     1       3.277   6.022  18.931  0.00  0.00    +0.000 HD
ENDROOT
BRANCH   1  14
ATOM     11  C   UNL     1       7.413   3.826  11.677  0.00  0.00    +0.000 C 
ATOM     12  C   UNL     1       6.294   3.940  12.679  0.00  0.00    +0.000 C 
ATOM     13  O   UNL     1       5.208   3.414  12.456  0.00  0.00    +0.000 OA
ATOM     14  N   UNL     1       6.648   4.676  13.800  0.00  0.00    +0.000 N 
ATOM     15  H   UNL     1       7.531   5.170  13.763  0.00  0.00    +0.000 HD
ENDBRANCH   1  14
BRANCH   6  16
ATOM     16  C   UNL     1       2.781   3.453  19.812  0.00  0.00    +0.000 A 
ATOM     17  C   UNL     1       3.311   2.675  20.822  0.00  0.00    +0.000 A 
ATOM     18  C   UNL     1       2.354   2.369  21.835  0.00  0.00    +0.000 A 
ATOM     19  C   UNL     1       1.125   2.926  21.569  0.00  0.00    +0.000 A 
ATOM     20  S   UNL     1       1.129   3.816  20.113  0.00  0.00    +0.000 S 
ENDBRANCH   6  16
TORSDOF 2
ENDMDL
MODEL 8
REMARK VINA RESULT:      -6.5      5.341      7.995
REMARK  Name = 
REMARK  3 active torsions:
REMARK  status: ('A' for Active; 'I' for Inactive)
REMARK    1  A    between atoms: C_1  and  C_2
REMARK    2  A    between atoms: N_4  and  C_5
REMARK    3  A    between atoms: C_10  and  C_11
REMARK                            x       y       z     vdW  Elec       q    Type
REMARK                         _______ _______ _______ _____ _____    ______ ____
ROOT
ATOM      1  C   UNL     1       1.039   8.877  20.044  0.00  0.00    +0.000 A 
ATOM      2  C   UNL     1       1.136   9.702  18.917  0.00  0.00    +0.000 A 
ATOM      3  C   UNL     1       1.971   9.394  17.839  0.00  0.00    +0.000 A 
ATOM      4  C   UNL     1       2.703   8.216  17.941  0.00  0.00    +0.000 A 
ATOM      5  N   UNL     1       3.564   7.599  17.076  0.00  0.00    +0.000 N 
ATOM      6  C   UNL     1       4.017   6.443  17.658  0.00  0.00    +0.000 A 
ATOM      7  N   UNL     1       3.496   6.295  18.863  0.00  0.00    +0.000 NA
ATOM      8  C   UNL     1       2.671   7.382  19.049  0.00  0.00    +0.000 A 
ATOM      9  C   UNL     1       1.842   7.725  20.136  0.00  0.00    +0.000 A 
ATOM     10  H   UNL     1       3.813   7.916  16.151  0.00  0.00    +0.000 HD
ENDROOT
BRANCH   1  14
ATOM     11  C   UNL     1      -0.687   9.680  23.305  0.00  0.00    +0.000 C 
ATOM     12  C   UNL     1       0.505   9.477  22.408  0.00  0.00    +0.000 C 
ATOM     13  O   UNL     1       1.643   9.611  22.849  0.00  0.00    +0.000 OA
ATOM     14  N   UNL     1       0.150   9.149  21.108  0.00  0.00    +0.000 N 
ATOM     15  H   UNL     1      -0.830   9.227  20.867  0.00  0.00    +0.000 HD
ENDBRANCH   1  14
BRANCH   6  16
ATOM     16  C   UNL     1       4.922   5.538  17.010  0.00  0.00    +0.000 A 
ATOM     17  C   UNL     1       4.619   4.308  16.461  0.00  0.00    +0.000 A 
ATOM     18  C   UNL     1       5.762   3.663  15.901  0.00  0.00    +0.000 A 
ATOM     19  C   UNL     1       6.902   4.421  16.038  0.00  0.00    +0.000 A 
ATOM     20  S   UNL     1       6.591   5.903  16.828  0.00  0.00    +0.000 S 
ENDBRANCH   6  16
TORSDOF 2
ENDMDL
MODEL 9
REMARK VINA RESULT:      -6.5      5.496      6.817
REMARK  Name = 
REMARK  3 active torsions:
REMARK  status: ('A' for Active; 'I' for Inactive)
REMARK    1  A    between atoms: C_1  and  C_2
REMARK    2  A    between atoms: N_4  and  C_5
REMARK    3  A    between atoms: C_10  and  C_11
REMARK                            x       y       z     vdW  Elec       q    Type
REMARK                         _______ _______ _______ _____ _____    ______ ____
ROOT
ATOM      1  C   UNL     1       2.981   5.409  18.897  0.00  0.00    +0.000 A 
ATOM      2  C   UNL     1       3.242   6.334  17.879  0.00  0.00    +0.000 A 
ATOM      3  C   UNL     1       2.790   7.656  17.941  0.00  0.00    +0.000 A 
ATOM      4  C   UNL     1       2.067   8.009  19.075  0.00  0.00    +0.000 A 
ATOM      5  N   UNL     1       1.524   9.198  19.477  0.00  0.00    +0.000 N 
ATOM      6  C   UNL     1       0.915   9.014  20.692  0.00  0.00    +0.000 A 
ATOM      7  N   UNL     1       1.030   7.756  21.083  0.00  0.00    +0.000 NA
ATOM      8  C   UNL     1       1.751   7.123  20.095  0.00  0.00    +0.000 A 
ATOM      9  C   UNL     1       2.194   5.788  20.000  0.00  0.00    +0.000 A 
ATOM     10  H   UNL     1       1.579  10.078  18.987  0.00  0.00    +0.000 HD
ENDROOT
BRANCH   1  14
ATOM     11  C   UNL     1       3.695   1.732  18.420  0.00  0.00    +0.000 C 
ATOM     12  C   UNL     1       2.912   3.004  18.231  0.00  0.00    +0.000 C 
ATOM     13  O   UNL     1       1.882   3.004  17.563  0.00  0.00    +0.000 OA
ATOM     14  N   UNL     1       3.489   4.091  18.871  0.00  0.00    +0.000 N 
ATOM     15  H   UNL     1       4.417   3.958  19.253  0.00  0.00    +0.000 HD
ENDBRANCH   1  14
BRANCH   6  16
ATOM     16  C   UNL     1       0.263  10.068  21.413  0.00  0.00    +0.000 A 
ATOM     17  C   UNL     1      -0.515   9.944  22.547  0.00  0.00    +0.000 A 
ATOM     18  C   UNL     1      -1.020  11.198  23.004  0.00  0.00    +0.000 A 
ATOM     19  C   UNL     1      -0.609  12.241  22.206  0.00  0.00    +0.000 A 
ATOM     20  S   UNL     1       0.383  11.710  20.923  0.00  0.00    +0.000 S 
ENDBRANCH   6  16
TORSDOF 2
ENDMDL
