MODEL 1
REMARK VINA RESULT:      -9.0      0.000      0.000
REMARK  Name = 
REMARK  4 active torsions:
REMARK  status: ('A' for Active; 'I' for Inactive)
REMARK    1  A    between atoms: C_5  and  C_6
REMARK    2  A    between atoms: N_20  and  C_21
REMARK    3  A    between atoms: C_24  and  C_25
REMARK    4  A    between atoms: C_25  and  N_26
REMARK                            x       y       z     vdW  Elec       q    Type
REMARK                         _______ _______ _______ _____ _____    ______ ____
ROOT
ATOM      1  C   UNL     1      -1.828  12.142  18.983  0.00  0.00    +0.000 A 
ATOM      2  N   UNL     1      -2.651  12.734  19.840  0.00  0.00    +0.000 NA
ATOM      3  C   UNL     1      -2.488  12.468  21.148  0.00  0.00    +0.000 A 
ATOM      4  N   UNL     1      -3.131  13.339  22.022  0.00  0.00    +0.000 N 
ATOM      5  C   UNL     1      -3.365  12.862  23.367  0.00  0.00    +0.000 C 
ATOM      6  C   UNL     1      -4.251  13.793  24.215  0.00  0.00    +0.000 C 
ATOM      7  O   UNL     1      -4.410  15.125  23.741  0.00  0.00    +0.000 OA
ATOM      8  C   UNL     1      -4.768  15.238  22.371  0.00  0.00    +0.000 C 
ATOM      9  C   UNL     1      -4.097  14.253  21.405  0.00  0.00    +0.000 C 
ATOM     10  N   UNL     1      -1.649  11.469  21.561  0.00  0.00    +0.000 NA
ATOM     11  C   UNL     1      -0.811  10.935  20.632  0.00  0.00    +0.000 A 
ATOM     12  C   UNL     1      -0.648  11.680  19.483  0.00  0.00    +0.000 A 
ATOM     13  C   UNL     1       0.512  12.571  19.937  0.00  0.00    +0.000 C 
ATOM     14  C   UNL     1       1.271  11.624  20.898  0.00  0.00    +0.000 C 
ATOM     15  N   UNL     1       0.543  10.316  20.921  0.00  0.00    +0.000 N 
ENDROOT
BRANCH   1  20
ATOM     16  N   UNL     1      -4.270   9.872  14.500  0.00  0.00    +0.000 N 
ATOM     17  C   UNL     1      -3.672  10.435  15.607  0.00  0.00    +0.000 A 
ATOM     18  N   UNL     1      -2.398  10.126  15.839  0.00  0.00    +0.000 NA
ATOM     19  C   UNL     1      -1.839  10.674  16.943  0.00  0.00    +0.000 A 
ATOM     20  C   UNL     1      -2.497  11.493  17.846  0.00  0.00    +0.000 A 
ATOM     21  C   UNL     1      -3.813  11.717  17.497  0.00  0.00    +0.000 A 
ATOM     22  N   UNL     1      -4.421  11.204  16.401  0.00  0.00    +0.000 NA
ATOM     23  H   UNL     1      -3.781   9.020  14.258  0.00  0.00    +0.000 HD
ATOM     24  H   UNL     1      -5.261   9.792  14.670  0.00  0.00    +0.000 HD
ENDBRANCH   1  20
BRANCH  15  25
ATOM     25  C   UNL     1       1.148   9.397  19.952  0.00  0.00    +0.000 A 
ATOM     26  C   UNL     1       1.379   9.791  18.616  0.00  0.00    +0.000 A 
ATOM     27  C   UNL     1       2.153   9.000  17.735  0.00  0.00    +0.000 A 
ATOM     28  C   UNL     1       2.732   7.791  18.149  0.00  0.00    +0.000 A 
ATOM     29  C   UNL     1       2.367   7.319  19.416  0.00  0.00    +0.000 A 
ATOM     30  C   UNL     1       1.560   8.084  20.274  0.00  0.00    +0.000 A 
ATOM     31  F   UNL     1       1.201   7.497  21.429  0.00  0.00    +0.000 F 
BRANCH  28  32
ATOM     32  C   UNL     1       3.630   6.960  17.249  0.00  0.00    +0.000 C 
BRANCH  32  33
ATOM     33  N   UNL     1       4.643   6.083  17.838  0.00  0.00    +0.000 NA
ATOM     34  C   UNL     1       6.057   6.389  17.602  0.00  0.00    +0.000 C 
ATOM     35  C   UNL     1       6.680   5.669  16.392  0.00  0.00    +0.000 C 
ATOM     36  O   UNL     1       6.411   4.261  16.391  0.00  0.00    +0.000 OA
ATOM     37  C   UNL     1       5.006   3.999  16.488  0.00  0.00    +0.000 C 
ATOM     38  C   UNL     1       4.406   4.640  17.742  0.00  0.00    +0.000 C 
ENDBRANCH  32  33
ENDBRANCH  28  32
ENDBRANCH  15  25
TORSDOF 4
ENDMDL
MODEL 2
REMARK VINA RESULT:      -9.0      2.551      4.100
REMARK  Name = 
REMARK  4 active torsions:
REMARK  status: ('A' for Active; 'I' for Inactive)
REMARK    1  A    between atoms: C_5  and  C_6
REMARK    2  A    between atoms: N_20  and  C_21
REMARK    3  A    between atoms: C_24  and  C_25
REMARK    4  A    between atoms: C_25  and  N_26
REMARK                            x       y       z     vdW  Elec       q    Type
REMARK                         _______ _______ _______ _____ _____    ______ ____
ROOT
ATOM      1  C   UNL     1       0.963  12.641  20.838  0.00  0.00    +0.000 A 
ATOM      2  N   UNL     1      -0.117  13.395  21.001  0.00  0.00    +0.000 NA
ATOM      3  C   UNL     1      -1.316  12.819  20.804  0.00  0.00    +0.000 A 
ATOM      4  N   UNL     1      -2.409  13.527  21.295  0.00  0.00    +0.000 N 
ATOM      5  C   UNL     1      -3.703  13.203  20.737  0.00  0.00    +0.000 C 
ATOM      6  C   UNL     1      -4.830  14.154  21.178  0.00  0.00    +0.000 C 
ATOM      7  O   UNL     1      -4.570  14.961  22.321  0.00  0.00    +0.000 OA
ATOM      8  C   UNL     1      -3.334  15.660  22.297  0.00  0.00    +0.000 C 
ATOM      9  C   UNL     1      -2.132  14.903  21.717  0.00  0.00    +0.000 C 
ATOM     10  N   UNL     1      -1.412  11.570  20.256  0.00  0.00    +0.000 NA
ATOM     11  C   UNL     1      -0.266  10.844  20.154  0.00  0.00    +0.000 A 
ATOM     12  C   UNL     1       0.789  11.293  20.919  0.00  0.00    +0.000 A 
ATOM     13  C   UNL     1       0.488  10.531  22.213  0.00  0.00    +0.000 C 
ATOM     14  C   UNL     1      -0.163   9.237  21.666  0.00  0.00    +0.000 C 
ATOM     15  N   UNL     1      -0.179   9.330  20.173  0.00  0.00    +0.000 N 
ENDROOT
BRANCH   1  20
ATOM     16  N   UNL     1       4.782  15.157  17.629  0.00  0.00    +0.000 N 
ATOM     17  C   UNL     1       3.836  14.535  18.416  0.00  0.00    +0.000 A 
ATOM     18  N   UNL     1       3.993  14.610  19.736  0.00  0.00    +0.000 NA
ATOM     19  C   UNL     1       3.065  13.973  20.487  0.00  0.00    +0.000 A 
ATOM     20  C   UNL     1       2.002  13.240  19.988  0.00  0.00    +0.000 A 
ATOM     21  C   UNL     1       1.968  13.229  18.608  0.00  0.00    +0.000 A 
ATOM     22  N   UNL     1       2.863  13.855  17.807  0.00  0.00    +0.000 NA
ATOM     23  H   UNL     1       5.644  15.239  18.150  0.00  0.00    +0.000 HD
ATOM     24  H   UNL     1       4.833  14.680  16.741  0.00  0.00    +0.000 HD
ENDBRANCH   1  20
BRANCH  15  25
ATOM     25  C   UNL     1       1.003   8.659  19.622  0.00  0.00    +0.000 A 
ATOM     26  C   UNL     1       1.636   7.606  20.319  0.00  0.00    +0.000 A 
ATOM     27  C   UNL     1       2.634   6.811  19.708  0.00  0.00    +0.000 A 
ATOM     28  C   UNL     1       3.037   7.028  18.382  0.00  0.00    +0.000 A 
ATOM     29  C   UNL     1       2.533   8.170  17.749  0.00  0.00    +0.000 A 
ATOM     30  C   UNL     1       1.576   8.987  18.373  0.00  0.00    +0.000 A 
ATOM     31  F   UNL     1       1.227  10.103  17.710  0.00  0.00    +0.000 F 
BRANCH  28  32
ATOM     32  C   UNL     1       4.050   6.142  17.676  0.00  0.00    +0.000 C 
BRANCH  32  33
ATOM     33  N   UNL     1       5.023   6.734  16.757  0.00  0.00    +0.000 NA
ATOM     34  C   UNL     1       5.182   6.140  15.427  0.00  0.00    +0.000 C 
ATOM     35  C   UNL     1       6.294   5.081  15.321  0.00  0.00    +0.000 C 
ATOM     36  O   UNL     1       7.536   5.529  15.879  0.00  0.00    +0.000 OA
ATOM     37  C   UNL     1       7.369   5.979  17.229  0.00  0.00    +0.000 C 
ATOM     38  C   UNL     1       6.327   7.097  17.318  0.00  0.00    +0.000 C 
ENDBRANCH  32  33
ENDBRANCH  28  32
ENDBRANCH  15  25
TORSDOF 4
ENDMDL
MODEL 3
REMARK VINA RESULT:      -9.0      2.524      3.973
REMARK  Name = 
REMARK  4 active torsions:
REMARK  status: ('A' for Active; 'I' for Inactive)
REMARK    1  A    between atoms: C_5  and  C_6
REMARK    2  A    between atoms: N_20  and  C_21
REMARK    3  A    between atoms: C_24  and  C_25
REMARK    4  A    between atoms: C_25  and  N_26
REMARK                            x       y       z     vdW  Elec       q    Type
REMARK                         _______ _______ _______ _____ _____    ______ ____
ROOT
ATOM      1  C   UNL     1       0.872  12.542  20.939  0.00  0.00    +0.000 A 
ATOM      2  N   UNL     1      -0.251  13.206  21.180  0.00  0.00    +0.000 NA
ATOM      3  C   UNL     1      -1.413  12.554  20.999  0.00  0.00    +0.000 A 
ATOM      4  N   UNL     1      -2.533  13.155  21.566  0.00  0.00    +0.000 N 
ATOM      5  C   UNL     1      -3.822  12.764  21.040  0.00  0.00    +0.000 C 
ATOM      6  C   UNL     1      -4.996  13.607  21.572  0.00  0.00    +0.000 C 
ATOM      7  O   UNL     1      -4.747  14.374  22.745  0.00  0.00    +0.000 OA
ATOM      8  C   UNL     1      -3.566  15.163  22.711  0.00  0.00    +0.000 C 
ATOM      9  C   UNL     1      -2.338  14.525  22.048  0.00  0.00    +0.000 C 
ATOM     10  N   UNL     1      -1.442  11.329  20.391  0.00  0.00    +0.000 NA
ATOM     11  C   UNL     1      -0.253  10.695  20.209  0.00  0.00    +0.000 A 
ATOM     12  C   UNL     1       0.799  11.182  20.957  0.00  0.00    +0.000 A 
ATOM     13  C   UNL     1       0.606  10.338  22.220  0.00  0.00    +0.000 C 
ATOM     14  C   UNL     1       0.027   9.028  21.631  0.00  0.00    +0.000 C 
ATOM     15  N   UNL     1      -0.057   9.192  20.146  0.00  0.00    +0.000 N 
ENDROOT
BRANCH   1  20
ATOM     16  N   UNL     1       4.625  15.017  17.622  0.00  0.00    +0.000 N 
ATOM     17  C   UNL     1       3.703  14.407  18.445  0.00  0.00    +0.000 A 
ATOM     18  N   UNL     1       2.604  13.917  17.875  0.00  0.00    +0.000 NA
ATOM     19  C   UNL     1       1.703  13.343  18.706  0.00  0.00    +0.000 A 
ATOM     20  C   UNL     1       1.830  13.257  20.082  0.00  0.00    +0.000 A 
ATOM     21  C   UNL     1       3.004  13.818  20.542  0.00  0.00    +0.000 A 
ATOM     22  N   UNL     1       3.944  14.397  19.757  0.00  0.00    +0.000 NA
ATOM     23  H   UNL     1       4.158  15.343  16.786  0.00  0.00    +0.000 HD
ATOM     24  H   UNL     1       5.132  15.708  18.155  0.00  0.00    +0.000 HD
ENDBRANCH   1  20
BRANCH  15  25
ATOM     25  C   UNL     1       1.147   8.638  19.518  0.00  0.00    +0.000 A 
ATOM     26  C   UNL     1       1.838   7.550  20.096  0.00  0.00    +0.000 A 
ATOM     27  C   UNL     1       2.862   6.870  19.398  0.00  0.00    +0.000 A 
ATOM     28  C   UNL     1       3.235   7.240  18.097  0.00  0.00    +0.000 A 
ATOM     29  C   UNL     1       2.671   8.416  17.589  0.00  0.00    +0.000 A 
ATOM     30  C   UNL     1       1.687   9.119  18.304  0.00  0.00    +0.000 A 
ATOM     31  F   UNL     1       1.277  10.279  17.763  0.00  0.00    +0.000 F 
BRANCH  28  32
ATOM     32  C   UNL     1       4.278   6.480  17.294  0.00  0.00    +0.000 C 
BRANCH  32  33
ATOM     33  N   UNL     1       4.987   5.353  17.899  0.00  0.00    +0.000 NA
ATOM     34  C   UNL     1       6.111   5.633  18.797  0.00  0.00    +0.000 C 
ATOM     35  C   UNL     1       7.492   5.648  18.118  0.00  0.00    +0.000 C 
ATOM     36  O   UNL     1       7.715   4.495  17.296  0.00  0.00    +0.000 OA
ATOM     37  C   UNL     1       6.663   4.326  16.339  0.00  0.00    +0.000 C 
ATOM     38  C   UNL     1       5.298   4.219  17.024  0.00  0.00    +0.000 C 
ENDBRANCH  32  33
ENDBRANCH  28  32
ENDBRANCH  15  25
TORSDOF 4
ENDMDL
MODEL 4
REMARK VINA RESULT:      -8.7      2.741      4.287
REMARK  Name = 
REMARK  4 active torsions:
REMARK  status: ('A' for Active; 'I' for Inactive)
REMARK    1  A    between atoms: C_5  and  C_6
REMARK    2  A    between atoms: N_20  and  C_21
REMARK    3  A    between atoms: C_24  and  C_25
REMARK    4  A    between atoms: C_25  and  N_26
REMARK                            x       y       z     vdW  Elec       q    Type
REMARK                         _______ _______ _______ _____ _____    ______ ____
ROOT
ATOM      1  C   UNL     1       0.838  12.692  20.842  0.00  0.00    +0.000 A 
ATOM      2  N   UNL     1      -0.229  13.474  20.954  0.00  0.00    +0.000 NA
ATOM      3  C   UNL     1      -1.436  12.915  20.760  0.00  0.00    +0.000 A 
ATOM      4  N   UNL     1      -2.522  13.664  21.203  0.00  0.00    +0.000 N 
ATOM      5  C   UNL     1      -3.813  13.343  20.635  0.00  0.00    +0.000 C 
ATOM      6  C   UNL     1      -4.928  14.335  21.017  0.00  0.00    +0.000 C 
ATOM      7  O   UNL     1      -4.670  15.183  22.130  0.00  0.00    +0.000 OA
ATOM      8  C   UNL     1      -3.419  15.856  22.099  0.00  0.00    +0.000 C 
ATOM      9  C   UNL     1      -2.224  15.051  21.571  0.00  0.00    +0.000 C 
ATOM     10  N   UNL     1      -1.550  11.646  20.263  0.00  0.00    +0.000 NA
ATOM     11  C   UNL     1      -0.418  10.893  20.210  0.00  0.00    +0.000 A 
ATOM     12  C   UNL     1       0.635  11.352  20.975  0.00  0.00    +0.000 A 
ATOM     13  C   UNL     1       0.296  10.651  22.294  0.00  0.00    +0.000 C 
ATOM     14  C   UNL     1      -0.373   9.349  21.789  0.00  0.00    +0.000 C 
ATOM     15  N   UNL     1      -0.362   9.379  20.293  0.00  0.00    +0.000 N 
ENDROOT
BRANCH   1  20
ATOM     16  N   UNL     1       4.764  14.996  17.602  0.00  0.00    +0.000 N 
ATOM     17  C   UNL     1       3.792  14.426  18.397  0.00  0.00    +0.000 A 
ATOM     18  N   UNL     1       3.938  14.534  19.715  0.00  0.00    +0.000 NA
ATOM     19  C   UNL     1       2.984  13.948  20.475  0.00  0.00    +0.000 A 
ATOM     20  C   UNL     1       1.903  13.234  19.985  0.00  0.00    +0.000 A 
ATOM     21  C   UNL     1       1.882  13.184  18.606  0.00  0.00    +0.000 A 
ATOM     22  N   UNL     1       2.804  13.759  17.797  0.00  0.00    +0.000 NA
ATOM     23  H   UNL     1       5.623  15.065  18.130  0.00  0.00    +0.000 HD
ATOM     24  H   UNL     1       4.808  14.491  16.729  0.00  0.00    +0.000 HD
ENDBRANCH   1  20
BRANCH  15  25
ATOM     25  C   UNL     1       0.815   8.663  19.792  0.00  0.00    +0.000 A 
ATOM     26  C   UNL     1       1.448   7.666  20.567  0.00  0.00    +0.000 A 
ATOM     27  C   UNL     1       2.440   6.821  20.016  0.00  0.00    +0.000 A 
ATOM     28  C   UNL     1       2.836   6.930  18.675  0.00  0.00    +0.000 A 
ATOM     29  C   UNL     1       2.333   8.021  17.955  0.00  0.00    +0.000 A 
ATOM     30  C   UNL     1       1.382   8.888  18.518  0.00  0.00    +0.000 A 
ATOM     31  F   UNL     1       1.033   9.950  17.770  0.00  0.00    +0.000 F 
BRANCH  28  32
ATOM     32  C   UNL     1       3.843   5.988  18.036  0.00  0.00    +0.000 C 
BRANCH  32  33
ATOM     33  N   UNL     1       3.403   4.692  17.518  0.00  0.00    +0.000 NA
ATOM     34  C   UNL     1       1.987   4.332  17.642  0.00  0.00    +0.000 C 
ATOM     35  C   UNL     1       1.634   3.523  18.902  0.00  0.00    +0.000 C 
ATOM     36  O   UNL     1       2.509   2.404  19.101  0.00  0.00    +0.000 OA
ATOM     37  C   UNL     1       3.882   2.812  19.110  0.00  0.00    +0.000 C 
ATOM     38  C   UNL     1       4.255   3.537  17.814  0.00  0.00    +0.000 C 
ENDBRANCH  32  33
ENDBRANCH  28  32
ENDBRANCH  15  25
TORSDOF 4
ENDMDL
MODEL 5
REMARK VINA RESULT:      -8.6      2.818      3.778
REMARK  Name = 
REMARK  4 active torsions:
REMARK  status: ('A' for Active; 'I' for Inactive)
REMARK    1  A    between atoms: C_5  and  C_6
REMARK    2  A    between atoms: N_20  and  C_21
REMARK    3  A    between atoms: C_24  and  C_25
REMARK    4  A    between atoms: C_25  and  N_26
REMARK                            x       y       z     vdW  Elec       q    Type
REMARK                         _______ _______ _______ _____ _____    ______ ____
ROOT
ATOM      1  C   UNL     1       1.326  12.133  21.219  0.00  0.00    +0.000 A 
ATOM      2  N   UNL     1       0.328  12.811  21.773  0.00  0.00    +0.000 NA
ATOM      3  C   UNL     1      -0.854  12.183  21.905  0.00  0.00    +0.000 A 
ATOM      4  N   UNL     1      -1.760  12.789  22.771  0.00  0.00    +0.000 N 
ATOM      5  C   UNL     1      -3.154  12.434  22.612  0.00  0.00    +0.000 C 
ATOM      6  C   UNL     1      -4.116  13.284  23.463  0.00  0.00    +0.000 C 
ATOM      7  O   UNL     1      -3.537  14.016  24.537  0.00  0.00    +0.000 OA
ATOM      8  C   UNL     1      -2.392  14.785  24.195  0.00  0.00    +0.000 C 
ATOM      9  C   UNL     1      -1.409  14.143  23.207  0.00  0.00    +0.000 C 
ATOM     10  N   UNL     1      -1.078  10.975  21.305  0.00  0.00    +0.000 NA
ATOM     11  C   UNL     1       0.000  10.325  20.790  0.00  0.00    +0.000 A 
ATOM     12  C   UNL     1       1.228  10.775  21.229  0.00  0.00    +0.000 A 
ATOM     13  C   UNL     1       1.370   9.902  22.480  0.00  0.00    +0.000 C 
ATOM     14  C   UNL     1       0.621   8.618  22.047  0.00  0.00    +0.000 C 
ATOM     15  N   UNL     1       0.136   8.821  20.646  0.00  0.00    +0.000 N 
ENDROOT
BRANCH   1  20
ATOM     16  N   UNL     1       3.817  15.073  17.173  0.00  0.00    +0.000 N 
ATOM     17  C   UNL     1       3.199  14.345  18.167  0.00  0.00    +0.000 A 
ATOM     18  N   UNL     1       3.555  14.601  19.424  0.00  0.00    +0.000 NA
ATOM     19  C   UNL     1       2.951  13.859  20.381  0.00  0.00    +0.000 A 
ATOM     20  C   UNL     1       2.028  12.853  20.146  0.00  0.00    +0.000 A 
ATOM     21  C   UNL     1       1.765  12.680  18.802  0.00  0.00    +0.000 A 
ATOM     22  N   UNL     1       2.331  13.399  17.804  0.00  0.00    +0.000 NA
ATOM     23  H   UNL     1       4.710  15.405  17.513  0.00  0.00    +0.000 HD
ATOM     24  H   UNL     1       3.831  14.523  16.327  0.00  0.00    +0.000 HD
ENDBRANCH   1  20
BRANCH  15  25
ATOM     25  C   UNL     1       1.107   8.263  19.700  0.00  0.00    +0.000 A 
ATOM     26  C   UNL     1       1.459   8.955  18.520  0.00  0.00    +0.000 A 
ATOM     27  C   UNL     1       2.545   8.538  17.715  0.00  0.00    +0.000 A 
ATOM     28  C   UNL     1       3.327   7.424  18.055  0.00  0.00    +0.000 A 
ATOM     29  C   UNL     1       2.879   6.643  19.128  0.00  0.00    +0.000 A 
ATOM     30  C   UNL     1       1.771   7.032  19.899  0.00  0.00    +0.000 A 
ATOM     31  F   UNL     1       1.377   6.165  20.848  0.00  0.00    +0.000 F 
BRANCH  28  32
ATOM     32  C   UNL     1       4.545   6.999  17.252  0.00  0.00    +0.000 C 
BRANCH  32  33
ATOM     33  N   UNL     1       4.997   5.608  17.291  0.00  0.00    +0.000 NA
ATOM     34  C   UNL     1       5.999   5.224  18.289  0.00  0.00    +0.000 C 
ATOM     35  C   UNL     1       7.457   5.288  17.797  0.00  0.00    +0.000 C 
ATOM     36  O   UNL     1       7.643   4.622  16.541  0.00  0.00    +0.000 OA
ATOM     37  C   UNL     1       6.735   5.117  15.550  0.00  0.00    +0.000 C 
ATOM     38  C   UNL     1       5.281   4.968  16.003  0.00  0.00    +0.000 C 
ENDBRANCH  32  33
ENDBRANCH  28  32
ENDBRANCH  15  25
TORSDOF 4
ENDMDL
MODEL 6
REMARK VINA RESULT:      -8.4      0.604      1.093
REMARK  Name = 
REMARK  4 active torsions:
REMARK  status: ('A' for Active; 'I' for Inactive)
REMARK    1  A    between atoms: C_5  and  C_6
REMARK    2  A    between atoms: N_20  and  C_21
REMARK    3  A    between atoms: C_24  and  C_25
REMARK    4  A    between atoms: C_25  and  N_26
REMARK                            x       y       z     vdW  Elec       q    Type
REMARK                         _______ _______ _______ _____ _____    ______ ____
ROOT
ATOM      1  C   UNL     1      -1.681  12.126  19.039  0.00  0.00    +0.000 A 
ATOM      2  N   UNL     1      -2.520  12.733  19.870  0.00  0.00    +0.000 NA
ATOM      3  C   UNL     1      -2.431  12.432  21.177  0.00  0.00    +0.000 A 
ATOM      4  N   UNL     1      -3.080  13.310  22.040  0.00  0.00    +0.000 N 
ATOM      5  C   UNL     1      -3.398  12.814  23.361  0.00  0.00    +0.000 C 
ATOM      6  C   UNL     1      -4.285  13.763  24.188  0.00  0.00    +0.000 C 
ATOM      7  O   UNL     1      -4.367  15.110  23.738  0.00  0.00    +0.000 OA
ATOM      8  C   UNL     1      -4.654  15.268  22.355  0.00  0.00    +0.000 C 
ATOM      9  C   UNL     1      -3.977  14.276  21.400  0.00  0.00    +0.000 C 
ATOM     10  N   UNL     1      -1.654  11.391  21.606  0.00  0.00    +0.000 NA
ATOM     11  C   UNL     1      -0.795  10.842  20.706  0.00  0.00    +0.000 A 
ATOM     12  C   UNL     1      -0.547  11.604  19.583  0.00  0.00    +0.000 A 
ATOM     13  C   UNL     1       0.626  12.436  20.112  0.00  0.00    +0.000 C 
ATOM     14  C   UNL     1       1.298  11.437  21.086  0.00  0.00    +0.000 C 
ATOM     15  N   UNL     1       0.518  10.161  21.044  0.00  0.00    +0.000 N 
ENDROOT
BRANCH   1  20
ATOM     16  N   UNL     1      -4.216   9.668  14.708  0.00  0.00    +0.000 N 
ATOM     17  C   UNL     1      -3.586  10.272  15.776  0.00  0.00    +0.000 A 
ATOM     18  N   UNL     1      -4.296  11.135  16.498  0.00  0.00    +0.000 NA
ATOM     19  C   UNL     1      -3.650  11.731  17.527  0.00  0.00    +0.000 A 
ATOM     20  C   UNL     1      -2.320  11.529  17.857  0.00  0.00    +0.000 A 
ATOM     21  C   UNL     1      -1.698  10.627  17.018  0.00  0.00    +0.000 A 
ATOM     22  N   UNL     1      -2.296   9.994  15.981  0.00  0.00    +0.000 NA
ATOM     23  H   UNL     1      -4.982  10.254  14.403  0.00  0.00    +0.000 HD
ATOM     24  H   UNL     1      -3.524   9.430  14.014  0.00  0.00    +0.000 HD
ENDBRANCH   1  20
BRANCH  15  25
ATOM     25  C   UNL     1       1.130   9.238  20.084  0.00  0.00    +0.000 A 
ATOM     26  C   UNL     1       1.425   9.646  18.763  0.00  0.00    +0.000 A 
ATOM     27  C   UNL     1       2.207   8.845  17.900  0.00  0.00    +0.000 A 
ATOM     28  C   UNL     1       2.732   7.612  18.315  0.00  0.00    +0.000 A 
ATOM     29  C   UNL     1       2.305   7.132  19.559  0.00  0.00    +0.000 A 
ATOM     30  C   UNL     1       1.489   7.908  20.398  0.00  0.00    +0.000 A 
ATOM     31  F   UNL     1       1.069   7.315  21.530  0.00  0.00    +0.000 F 
BRANCH  28  32
ATOM     32  C   UNL     1       3.639   6.767  17.436  0.00  0.00    +0.000 C 
BRANCH  32  33
ATOM     33  N   UNL     1       4.015   5.418  17.859  0.00  0.00    +0.000 NA
ATOM     34  C   UNL     1       4.665   5.248  19.162  0.00  0.00    +0.000 C 
ATOM     35  C   UNL     1       6.204   5.257  19.123  0.00  0.00    +0.000 C 
ATOM     36  O   UNL     1       6.734   4.378  18.122  0.00  0.00    +0.000 OA
ATOM     37  C   UNL     1       6.177   4.661  16.833  0.00  0.00    +0.000 C 
ATOM     38  C   UNL     1       4.649   4.562  16.853  0.00  0.00    +0.000 C 
ENDBRANCH  32  33
ENDBRANCH  28  32
ENDBRANCH  15  25
TORSDOF 4
ENDMDL
MODEL 7
REMARK VINA RESULT:      -8.4      2.479      3.705
REMARK  Name = 
REMARK  4 active torsions:
REMARK  status: ('A' for Active; 'I' for Inactive)
REMARK    1  A    between atoms: C_5  and  C_6
REMARK    2  A    between atoms: N_20  and  C_21
REMARK    3  A    between atoms: C_24  and  C_25
REMARK    4  A    between atoms: C_25  and  N_26
REMARK                            x       y       z     vdW  Elec       q    Type
REMARK                         _______ _______ _______ _____ _____    ______ ____
ROOT
ATOM      1  C   UNL     1       0.415  12.978  20.715  0.00  0.00    +0.000 A 
ATOM      2  N   UNL     1      -0.712  13.640  20.948  0.00  0.00    +0.000 NA
ATOM      3  C   UNL     1      -1.863  12.945  20.910  0.00  0.00    +0.000 A 
ATOM      4  N   UNL     1      -2.965  13.581  21.473  0.00  0.00    +0.000 N 
ATOM      5  C   UNL     1      -4.271  13.105  21.072  0.00  0.00    +0.000 C 
ATOM      6  C   UNL     1      -5.436  13.976  21.576  0.00  0.00    +0.000 C 
ATOM      7  O   UNL     1      -5.143  14.875  22.640  0.00  0.00    +0.000 OA
ATOM      8  C   UNL     1      -3.989  15.681  22.448  0.00  0.00    +0.000 C 
ATOM      9  C   UNL     1      -2.783  15.001  21.787  0.00  0.00    +0.000 C 
ATOM     10  N   UNL     1      -1.891  11.660  20.444  0.00  0.00    +0.000 NA
ATOM     11  C   UNL     1      -0.696  11.036  20.262  0.00  0.00    +0.000 A 
ATOM     12  C   UNL     1       0.382  11.627  20.887  0.00  0.00    +0.000 A 
ATOM     13  C   UNL     1       0.286  10.926  22.245  0.00  0.00    +0.000 C 
ATOM     14  C   UNL     1      -0.287   9.546  21.840  0.00  0.00    +0.000 C 
ATOM     15  N   UNL     1      -0.461   9.540  20.354  0.00  0.00    +0.000 N 
ENDROOT
BRANCH   1  20
ATOM     16  N   UNL     1       3.970  15.422  17.164  0.00  0.00    +0.000 N 
ATOM     17  C   UNL     1       3.090  14.824  18.041  0.00  0.00    +0.000 A 
ATOM     18  N   UNL     1       3.228  13.516  18.250  0.00  0.00    +0.000 NA
ATOM     19  C   UNL     1       2.340  12.948  19.098  0.00  0.00    +0.000 A 
ATOM     20  C   UNL     1       1.301  13.613  19.728  0.00  0.00    +0.000 A 
ATOM     21  C   UNL     1       1.263  14.956  19.411  0.00  0.00    +0.000 A 
ATOM     22  N   UNL     1       2.130  15.579  18.577  0.00  0.00    +0.000 NA
ATOM     23  H   UNL     1       4.327  14.723  16.526  0.00  0.00    +0.000 HD
ATOM     24  H   UNL     1       3.522  16.225  16.750  0.00  0.00    +0.000 HD
ENDBRANCH   1  20
BRANCH  15  25
ATOM     25  C   UNL     1       0.721   8.947  19.721  0.00  0.00    +0.000 A 
ATOM     26  C   UNL     1       1.494   7.970  20.387  0.00  0.00    +0.000 A 
ATOM     27  C   UNL     1       2.497   7.236  19.713  0.00  0.00    +0.000 A 
ATOM     28  C   UNL     1       2.767   7.438  18.351  0.00  0.00    +0.000 A 
ATOM     29  C   UNL     1       2.121   8.516  17.734  0.00  0.00    +0.000 A 
ATOM     30  C   UNL     1       1.157   9.276  18.418  0.00  0.00    +0.000 A 
ATOM     31  F   UNL     1       0.664  10.339  17.758  0.00  0.00    +0.000 F 
BRANCH  28  32
ATOM     32  C   UNL     1       3.785   6.612  17.583  0.00  0.00    +0.000 C 
BRANCH  32  33
ATOM     33  N   UNL     1       5.165   6.527  18.059  0.00  0.00    +0.000 NA
ATOM     34  C   UNL     1       6.249   6.843  17.124  0.00  0.00    +0.000 C 
ATOM     35  C   UNL     1       6.832   5.630  16.376  0.00  0.00    +0.000 C 
ATOM     36  O   UNL     1       7.158   4.546  17.256  0.00  0.00    +0.000 OA
ATOM     37  C   UNL     1       6.034   4.173  18.063  0.00  0.00    +0.000 C 
ATOM     38  C   UNL     1       5.514   5.361  18.875  0.00  0.00    +0.000 C 
ENDBRANCH  32  33
ENDBRANCH  28  32
ENDBRANCH  15  25
TORSDOF 4
ENDMDL
MODEL 8
REMARK VINA RESULT:      -8.3      2.678      3.920
REMARK  Name = 
REMARK  4 active torsions:
REMARK  status: ('A' for Active; 'I' for Inactive)
REMARK    1  A    between atoms: C_5  and  C_6
REMARK    2  A    between atoms: N_20  and  C_21
REMARK    3  A    between atoms: C_24  and  C_25
REMARK    4  A    between atoms: C_25  and  N_26
REMARK                            x       y       z     vdW  Elec       q    Type
REMARK                         _______ _______ _______ _____ _____    ______ ____
ROOT
ATOM      1  C   UNL     1       0.082  13.685  20.633  0.00  0.00    +0.000 A 
ATOM      2  N   UNL     1      -1.012  14.430  20.726  0.00  0.00    +0.000 NA
ATOM      3  C   UNL     1      -2.200  13.802  20.685  0.00  0.00    +0.000 A 
ATOM      4  N   UNL     1      -3.291  14.555  21.110  0.00  0.00    +0.000 N 
ATOM      5  C   UNL     1      -4.599  14.114  20.677  0.00  0.00    +0.000 C 
ATOM      6  C   UNL     1      -5.734  15.098  21.015  0.00  0.00    +0.000 C 
ATOM      7  O   UNL     1      -5.447  16.086  21.998  0.00  0.00    +0.000 OA
ATOM      8  C   UNL     1      -4.235  16.801  21.799  0.00  0.00    +0.000 C 
ATOM      9  C   UNL     1      -3.039  15.987  21.289  0.00  0.00    +0.000 C 
ATOM     10  N   UNL     1      -2.283  12.478  20.352  0.00  0.00    +0.000 NA
ATOM     11  C   UNL     1      -1.121  11.772  20.311  0.00  0.00    +0.000 A 
ATOM     12  C   UNL     1      -0.045  12.364  20.940  0.00  0.00    +0.000 A 
ATOM     13  C   UNL     1      -0.263  11.817  22.353  0.00  0.00    +0.000 C 
ATOM     14  C   UNL     1      -0.898  10.436  22.056  0.00  0.00    +0.000 C 
ATOM     15  N   UNL     1      -0.986  10.283  20.570  0.00  0.00    +0.000 N 
ENDROOT
BRANCH   1  20
ATOM     16  N   UNL     1       3.982  15.530  17.083  0.00  0.00    +0.000 N 
ATOM     17  C   UNL     1       3.018  15.080  17.960  0.00  0.00    +0.000 A 
ATOM     18  N   UNL     1       3.046  13.791  18.292  0.00  0.00    +0.000 NA
ATOM     19  C   UNL     1       2.076  13.368  19.136  0.00  0.00    +0.000 A 
ATOM     20  C   UNL     1       1.062  14.161  19.645  0.00  0.00    +0.000 A 
ATOM     21  C   UNL     1       1.140  15.467  19.207  0.00  0.00    +0.000 A 
ATOM     22  N   UNL     1       2.092  15.948  18.372  0.00  0.00    +0.000 NA
ATOM     23  H   UNL     1       4.316  14.751  16.531  0.00  0.00    +0.000 HD
ATOM     24  H   UNL     1       3.617  16.321  16.575  0.00  0.00    +0.000 HD
ENDBRANCH   1  20
BRANCH  15  25
ATOM     25  C   UNL     1       0.190   9.560  20.077  0.00  0.00    +0.000 A 
ATOM     26  C   UNL     1       0.863   8.619  20.888  0.00  0.00    +0.000 A 
ATOM     27  C   UNL     1       1.855   7.762  20.357  0.00  0.00    +0.000 A 
ATOM     28  C   UNL     1       2.213   7.802  19.002  0.00  0.00    +0.000 A 
ATOM     29  C   UNL     1       1.670   8.842  18.237  0.00  0.00    +0.000 A 
ATOM     30  C   UNL     1       0.719   9.723  18.777  0.00  0.00    +0.000 A 
ATOM     31  F   UNL     1       0.330  10.735  17.981  0.00  0.00    +0.000 F 
BRANCH  28  32
ATOM     32  C   UNL     1       3.219   6.842  18.389  0.00  0.00    +0.000 C 
BRANCH  32  33
ATOM     33  N   UNL     1       3.416   5.517  18.977  0.00  0.00    +0.000 NA
ATOM     34  C   UNL     1       4.776   4.974  19.040  0.00  0.00    +0.000 C 
ATOM     35  C   UNL     1       5.173   4.087  17.846  0.00  0.00    +0.000 C 
ATOM     36  O   UNL     1       4.190   3.085  17.554  0.00  0.00    +0.000 OA
ATOM     37  C   UNL     1       2.894   3.666  17.365  0.00  0.00    +0.000 C 
ATOM     38  C   UNL     1       2.462   4.473  18.592  0.00  0.00    +0.000 C 
ENDBRANCH  32  33
ENDBRANCH  28  32
ENDBRANCH  15  25
TORSDOF 4
ENDMDL
MODEL 9
REMARK VINA RESULT:      -8.2      0.940      1.271
REMARK  Name = 
REMARK  4 active torsions:
REMARK  status: ('A' for Active; 'I' for Inactive)
REMARK    1  A    between atoms: C_5  and  C_6
REMARK    2  A    between atoms: N_20  and  C_21
REMARK    3  A    between atoms: C_24  and  C_25
REMARK    4  A    between atoms: C_25  and  N_26
REMARK                            x       y       z     vdW  Elec       q    Type
REMARK                         _______ _______ _______ _____ _____    ______ ____
ROOT
ATOM      1  C   UNL     1      -1.936  12.182  18.913  0.00  0.00    +0.000 A 
ATOM      2  N   UNL     1      -2.778  12.829  19.710  0.00  0.00    +0.000 NA
ATOM      3  C   UNL     1      -2.660  12.631  21.034  0.00  0.00    +0.000 A 
ATOM      4  N   UNL     1      -3.320  13.555  21.839  0.00  0.00    +0.000 N 
ATOM      5  C   UNL     1      -3.603  13.153  23.200  0.00  0.00    +0.000 C 
ATOM      6  C   UNL     1      -4.503  14.138  23.968  0.00  0.00    +0.000 C 
ATOM      7  O   UNL     1      -4.628  15.445  23.418  0.00  0.00    +0.000 OA
ATOM      8  C   UNL     1      -4.941  15.490  22.033  0.00  0.00    +0.000 C 
ATOM      9  C   UNL     1      -4.252  14.446  21.144  0.00  0.00    +0.000 C 
ATOM     10  N   UNL     1      -1.850  11.646  21.527  0.00  0.00    +0.000 NA
ATOM     11  C   UNL     1      -0.989  11.052  20.656  0.00  0.00    +0.000 A 
ATOM     12  C   UNL     1      -0.779  11.733  19.475  0.00  0.00    +0.000 A 
ATOM     13  C   UNL     1       0.378  12.632  19.919  0.00  0.00    +0.000 C 
ATOM     14  C   UNL     1       1.092  11.728  20.953  0.00  0.00    +0.000 C 
ATOM     15  N   UNL     1       0.346  10.433  21.022  0.00  0.00    +0.000 N 
ENDROOT
BRANCH   1  20
ATOM     16  N   UNL     1      -4.272   9.711  14.479  0.00  0.00    +0.000 N 
ATOM     17  C   UNL     1      -3.700  10.324  15.574  0.00  0.00    +0.000 A 
ATOM     18  N   UNL     1      -2.426  10.043  15.837  0.00  0.00    +0.000 NA
ATOM     19  C   UNL     1      -1.893  10.639  16.929  0.00  0.00    +0.000 A 
ATOM     20  C   UNL     1      -2.576  11.481  17.790  0.00  0.00    +0.000 A 
ATOM     21  C   UNL     1      -3.890  11.672  17.412  0.00  0.00    +0.000 A 
ATOM     22  N   UNL     1      -4.473  11.110  16.326  0.00  0.00    +0.000 NA
ATOM     23  H   UNL     1      -3.767   8.859  14.277  0.00  0.00    +0.000 HD
ATOM     24  H   UNL     1      -5.264   9.623  14.637  0.00  0.00    +0.000 HD
ENDBRANCH   1  20
BRANCH  15  25
ATOM     25  C   UNL     1       0.969   9.456  20.124  0.00  0.00    +0.000 A 
ATOM     26  C   UNL     1       1.182   9.750  18.758  0.00  0.00    +0.000 A 
ATOM     27  C   UNL     1       1.971   8.912  17.937  0.00  0.00    +0.000 A 
ATOM     28  C   UNL     1       2.583   7.755  18.439  0.00  0.00    +0.000 A 
ATOM     29  C   UNL     1       2.238   7.374  19.742  0.00  0.00    +0.000 A 
ATOM     30  C   UNL     1       1.416   8.183  20.543  0.00  0.00    +0.000 A 
ATOM     31  F   UNL     1       1.080   7.680  21.744  0.00  0.00    +0.000 F 
BRANCH  28  32
ATOM     32  C   UNL     1       3.498   6.878  17.600  0.00  0.00    +0.000 C 
BRANCH  32  33
ATOM     33  N   UNL     1       3.207   5.452  17.450  0.00  0.00    +0.000 NA
ATOM     34  C   UNL     1       2.525   4.757  18.545  0.00  0.00    +0.000 C 
ATOM     35  C   UNL     1       3.461   4.072  19.557  0.00  0.00    +0.000 C 
ATOM     36  O   UNL     1       4.459   3.262  18.923  0.00  0.00    +0.000 OA
ATOM     37  C   UNL     1       5.198   4.010  17.952  0.00  0.00    +0.000 C 
ATOM     38  C   UNL     1       4.273   4.614  16.893  0.00  0.00    +0.000 C 
ENDBRANCH  32  33
ENDBRANCH  28  32
ENDBRANCH  15  25
TORSDOF 4
ENDMDL
