MODEL 1
REMARK VINA RESULT:      -8.0      0.000      0.000
REMARK  Name = 
REMARK  9 active torsions:
REMARK  status: ('A' for Active; 'I' for Inactive)
REMARK    1  A    between atoms: C_1  and  N_2
REMARK    2  A    between atoms: N_2  and  C_3
REMARK    3  A    between atoms: N_2  and  C_14
REMARK    4  A    between atoms: C_3  and  C_4
REMARK    5  A    between atoms: C_6  and  C_7
REMARK    6  A    between atoms: C_6  and  C_8
REMARK    7  A    between atoms: N_9  and  O_10
REMARK    8  A    between atoms: C_11  and  C_12
REMARK    9  A    between atoms: C_11  and  C_13
REMARK                            x       y       z     vdW  Elec       q    Type
REMARK                         _______ _______ _______ _____ _____    ______ ____
ROOT
ATOM      1  C   UNL     1       2.240   7.405  19.321  0.00  0.00    +0.000 C 
ATOM      2  N   UNL     1       2.977   6.323  18.637  0.00  0.00    +0.000 NA
ENDROOT
BRANCH   2   3
ATOM      3  C   UNL     1       2.617   4.961  19.174  0.00  0.00    +0.000 C 
ATOM      4  C   UNL     1       1.932   4.121  18.037  0.00  0.00    +0.000 C 
ATOM      5  C   UNL     1       1.513   2.721  18.516  0.00  0.00    +0.000 C 
ATOM      6  C   UNL     1       2.755   1.941  18.955  0.00  0.00    +0.000 C 
ATOM      7  C   UNL     1       3.459   2.696  20.088  0.00  0.00    +0.000 C 
ATOM      8  C   UNL     1       2.496   2.814  21.276  0.00  0.00    +0.000 C 
ATOM      9  C   UNL     1       1.248   3.598  20.859  0.00  0.00    +0.000 C 
ATOM     10  C   UNL     1       0.547   2.872  19.700  0.00  0.00    +0.000 C 
ATOM     11  C   UNL     1       1.658   5.011  20.402  0.00  0.00    +0.000 C 
ATOM     12  C   UNL     1       3.864   4.119  19.606  0.00  0.00    +0.000 C 
ENDBRANCH   2   3
BRANCH   2  13
ATOM     13  C   UNL     1       4.426   6.661  18.604  0.00  0.00    +0.000 C 
BRANCH  13  14
ATOM     14  C   UNL     1       5.204   6.039  17.454  0.00  0.00    +0.000 C 
ATOM     15  C   UNL     1       4.698   5.403  16.379  0.00  0.00    +0.000 C 
ATOM     16  C   UNL     1       5.767   4.900  15.455  0.00  0.00    +0.000 C 
ATOM     17  C   UNL     1       5.822   3.366  15.502  0.00  0.00    +0.000 C 
ATOM     18  C   UNL     1       5.544   5.368  14.015  0.00  0.00    +0.000 C 
ATOM     19  N   UNL     1       6.964   5.595  15.969  0.00  0.00    +0.000 NA
ATOM     20  C   UNL     1       6.727   5.998  17.387  0.00  0.00    +0.000 C 
ATOM     21  C   UNL     1       7.441   7.351  17.539  0.00  0.00    +0.000 C 
ATOM     22  C   UNL     1       7.273   5.004  18.426  0.00  0.00    +0.000 C 
BRANCH  19  23
ATOM     23  O   UNL     1       8.165   4.810  15.813  0.00  0.00    +0.000 OA
ATOM     24  H   UNL     1       8.312   4.502  16.729  0.00  0.00    +0.000 HD
ENDBRANCH  19  23
ENDBRANCH  13  14
ENDBRANCH   2  13
TORSDOF 4
ENDMDL
MODEL 2
REMARK VINA RESULT:      -8.0      0.083      1.579
REMARK  Name = 
REMARK  9 active torsions:
REMARK  status: ('A' for Active; 'I' for Inactive)
REMARK    1  A    between atoms: C_1  and  N_2
REMARK    2  A    between atoms: N_2  and  C_3
REMARK    3  A    between atoms: N_2  and  C_14
REMARK    4  A    between atoms: C_3  and  C_4
REMARK    5  A    between atoms: C_6  and  C_7
REMARK    6  A    between atoms: C_6  and  C_8
REMARK    7  A    between atoms: N_9  and  O_10
REMARK    8  A    between atoms: C_11  and  C_12
REMARK    9  A    between atoms: C_11  and  C_13
REMARK                            x       y       z     vdW  Elec       q    Type
REMARK                         _______ _______ _______ _____ _____    ______ ____
ROOT
ATOM      1  C   UNL     1       2.348   7.381  19.422  0.00  0.00    +0.000 C 
ATOM      2  N   UNL     1       3.026   6.299  18.680  0.00  0.00    +0.000 NA
ENDROOT
BRANCH   2   3
ATOM      3  C   UNL     1       2.582   4.931  19.135  0.00  0.00    +0.000 C 
ATOM      4  C   UNL     1       3.830   4.125  19.643  0.00  0.00    +0.000 C 
ATOM      5  C   UNL     1       3.460   2.705  20.105  0.00  0.00    +0.000 C 
ATOM      6  C   UNL     1       2.480   2.791  21.278  0.00  0.00    +0.000 C 
ATOM      7  C   UNL     1       1.222   3.547  20.839  0.00  0.00    +0.000 C 
ATOM      8  C   UNL     1       0.559   2.776  19.690  0.00  0.00    +0.000 C 
ATOM      9  C   UNL     1       1.521   2.685  18.501  0.00  0.00    +0.000 C 
ATOM     10  C   UNL     1       2.805   1.959  18.933  0.00  0.00    +0.000 C 
ATOM     11  C   UNL     1       1.876   4.104  18.018  0.00  0.00    +0.000 C 
ATOM     12  C   UNL     1       1.602   4.976  20.355  0.00  0.00    +0.000 C 
ENDBRANCH   2   3
BRANCH   2  13
ATOM     13  C   UNL     1       4.492   6.551  18.674  0.00  0.00    +0.000 C 
BRANCH  13  14
ATOM     14  C   UNL     1       5.237   5.984  17.475  0.00  0.00    +0.000 C 
ATOM     15  C   UNL     1       4.702   5.377  16.398  0.00  0.00    +0.000 C 
ATOM     16  C   UNL     1       5.743   4.924  15.418  0.00  0.00    +0.000 C 
ATOM     17  C   UNL     1       5.825   3.391  15.408  0.00  0.00    +0.000 C 
ATOM     18  C   UNL     1       5.460   5.438  14.004  0.00  0.00    +0.000 C 
ATOM     19  N   UNL     1       6.948   5.621  15.913  0.00  0.00    +0.000 NA
ATOM     20  C   UNL     1       6.757   5.971  17.351  0.00  0.00    +0.000 C 
ATOM     21  C   UNL     1       7.455   7.329  17.526  0.00  0.00    +0.000 C 
ATOM     22  C   UNL     1       7.356   4.950  18.335  0.00  0.00    +0.000 C 
BRANCH  19  23
ATOM     23  O   UNL     1       8.154   4.862  15.685  0.00  0.00    +0.000 OA
ATOM     24  H   UNL     1       7.815   4.126  15.138  0.00  0.00    +0.000 HD
ENDBRANCH  19  23
ENDBRANCH  13  14
ENDBRANCH   2  13
TORSDOF 4
ENDMDL
MODEL 3
REMARK VINA RESULT:      -7.9      0.180      1.584
REMARK  Name = 
REMARK  9 active torsions:
REMARK  status: ('A' for Active; 'I' for Inactive)
REMARK    1  A    between atoms: C_1  and  N_2
REMARK    2  A    between atoms: N_2  and  C_3
REMARK    3  A    between atoms: N_2  and  C_14
REMARK    4  A    between atoms: C_3  and  C_4
REMARK    5  A    between atoms: C_6  and  C_7
REMARK    6  A    between atoms: C_6  and  C_8
REMARK    7  A    between atoms: N_9  and  O_10
REMARK    8  A    between atoms: C_11  and  C_12
REMARK    9  A    between atoms: C_11  and  C_13
REMARK                            x       y       z     vdW  Elec       q    Type
REMARK                         _______ _______ _______ _____ _____    ______ ____
ROOT
ATOM      1  C   UNL     1       2.402   7.242  19.422  0.00  0.00    +0.000 C 
ATOM      2  N   UNL     1       3.091   6.175  18.668  0.00  0.00    +0.000 NA
ENDROOT
BRANCH   2   3
ATOM      3  C   UNL     1       2.678   4.798  19.124  0.00  0.00    +0.000 C 
ATOM      4  C   UNL     1       1.672   4.930  20.323  0.00  0.00    +0.000 C 
ATOM      5  C   UNL     1       1.220   3.562  20.860  0.00  0.00    +0.000 C 
ATOM      6  C   UNL     1       0.491   2.796  19.753  0.00  0.00    +0.000 C 
ATOM      7  C   UNL     1       1.431   2.608  18.558  0.00  0.00    +0.000 C 
ATOM      8  C   UNL     1       2.649   1.793  19.011  0.00  0.00    +0.000 C 
ATOM      9  C   UNL     1       3.398   2.546  20.115  0.00  0.00    +0.000 C 
ATOM     10  C   UNL     1       2.459   2.774  21.311  0.00  0.00    +0.000 C 
ATOM     11  C   UNL     1       3.875   3.908  19.575  0.00  0.00    +0.000 C 
ATOM     12  C   UNL     1       1.902   3.993  18.028  0.00  0.00    +0.000 C 
ENDBRANCH   2   3
BRANCH   2  13
ATOM     13  C   UNL     1       4.552   6.454  18.646  0.00  0.00    +0.000 C 
BRANCH  13  14
ATOM     14  C   UNL     1       5.286   5.937  17.417  0.00  0.00    +0.000 C 
ATOM     15  C   UNL     1       4.745   5.338  16.338  0.00  0.00    +0.000 C 
ATOM     16  C   UNL     1       5.777   4.940  15.325  0.00  0.00    +0.000 C 
ATOM     17  C   UNL     1       5.903   3.411  15.278  0.00  0.00    +0.000 C 
ATOM     18  C   UNL     1       5.446   5.478  13.931  0.00  0.00    +0.000 C 
ATOM     19  N   UNL     1       6.971   5.662  15.809  0.00  0.00    +0.000 NA
ATOM     20  C   UNL     1       6.803   5.973  17.259  0.00  0.00    +0.000 C 
ATOM     21  C   UNL     1       7.464   7.348  17.450  0.00  0.00    +0.000 C 
ATOM     22  C   UNL     1       7.455   4.949  18.205  0.00  0.00    +0.000 C 
BRANCH  19  23
ATOM     23  O   UNL     1       8.194   4.946  15.537  0.00  0.00    +0.000 OA
ATOM     24  H   UNL     1       8.432   4.630  16.431  0.00  0.00    +0.000 HD
ENDBRANCH  19  23
ENDBRANCH  13  14
ENDBRANCH   2  13
TORSDOF 4
ENDMDL
MODEL 4
REMARK VINA RESULT:      -7.7      3.172      5.857
REMARK  Name = 
REMARK  9 active torsions:
REMARK  status: ('A' for Active; 'I' for Inactive)
REMARK    1  A    between atoms: C_1  and  N_2
REMARK    2  A    between atoms: N_2  and  C_3
REMARK    3  A    between atoms: N_2  and  C_14
REMARK    4  A    between atoms: C_3  and  C_4
REMARK    5  A    between atoms: C_6  and  C_7
REMARK    6  A    between atoms: C_6  and  C_8
REMARK    7  A    between atoms: N_9  and  O_10
REMARK    8  A    between atoms: C_11  and  C_12
REMARK    9  A    between atoms: C_11  and  C_13
REMARK                            x       y       z     vdW  Elec       q    Type
REMARK                         _______ _______ _______ _____ _____    ______ ____
ROOT
ATOM      1  C   UNL     1       4.675   6.664  17.512  0.00  0.00    +0.000 C 
ATOM      2  N   UNL     1       3.511   6.563  18.415  0.00  0.00    +0.000 NA
ENDROOT
BRANCH   2   3
ATOM      3  C   UNL     1       3.088   5.133  18.640  0.00  0.00    +0.000 C 
ATOM      4  C   UNL     1       2.838   4.902  20.173  0.00  0.00    +0.000 C 
ATOM      5  C   UNL     1       2.423   3.455  20.486  0.00  0.00    +0.000 C 
ATOM      6  C   UNL     1       1.108   3.135  19.770  0.00  0.00    +0.000 C 
ATOM      7  C   UNL     1       1.292   3.315  18.260  0.00  0.00    +0.000 C 
ATOM      8  C   UNL     1       2.374   2.342  17.775  0.00  0.00    +0.000 C 
ATOM      9  C   UNL     1       3.702   2.649  18.475  0.00  0.00    +0.000 C 
ATOM     10  C   UNL     1       3.528   2.507  19.995  0.00  0.00    +0.000 C 
ATOM     11  C   UNL     1       4.135   4.090  18.144  0.00  0.00    +0.000 C 
ATOM     12  C   UNL     1       1.730   4.775  17.947  0.00  0.00    +0.000 C 
ENDBRANCH   2   3
BRANCH   2  13
ATOM     13  C   UNL     1       2.451   7.502  17.958  0.00  0.00    +0.000 C 
BRANCH  13  14
ATOM     14  C   UNL     1       1.795   8.317  19.062  0.00  0.00    +0.000 C 
ATOM     15  C   UNL     1       1.600   7.944  20.342  0.00  0.00    +0.000 C 
ATOM     16  C   UNL     1       0.902   8.999  21.147  0.00  0.00    +0.000 C 
ATOM     17  C   UNL     1      -0.520   8.538  21.497  0.00  0.00    +0.000 C 
ATOM     18  C   UNL     1       1.667   9.342  22.428  0.00  0.00    +0.000 C 
ATOM     19  N   UNL     1       0.987  10.170  20.251  0.00  0.00    +0.000 NA
ATOM     20  C   UNL     1       1.192   9.701  18.848  0.00  0.00    +0.000 C 
ATOM     21  C   UNL     1       2.121  10.747  18.212  0.00  0.00    +0.000 C 
ATOM     22  C   UNL     1      -0.103   9.589  18.024  0.00  0.00    +0.000 C 
BRANCH  19  23
ATOM     23  O   UNL     1      -0.155  11.044  20.379  0.00  0.00    +0.000 OA
ATOM     24  H   UNL     1      -0.565  10.952  19.496  0.00  0.00    +0.000 HD
ENDBRANCH  19  23
ENDBRANCH  13  14
ENDBRANCH   2  13
TORSDOF 4
ENDMDL
MODEL 5
REMARK VINA RESULT:      -7.7      3.181      5.622
REMARK  Name = 
REMARK  9 active torsions:
REMARK  status: ('A' for Active; 'I' for Inactive)
REMARK    1  A    between atoms: C_1  and  N_2
REMARK    2  A    between atoms: N_2  and  C_3
REMARK    3  A    between atoms: N_2  and  C_14
REMARK    4  A    between atoms: C_3  and  C_4
REMARK    5  A    between atoms: C_6  and  C_7
REMARK    6  A    between atoms: C_6  and  C_8
REMARK    7  A    between atoms: N_9  and  O_10
REMARK    8  A    between atoms: C_11  and  C_12
REMARK    9  A    between atoms: C_11  and  C_13
REMARK                            x       y       z     vdW  Elec       q    Type
REMARK                         _______ _______ _______ _____ _____    ______ ____
ROOT
ATOM      1  C   UNL     1       4.593   6.656  17.445  0.00  0.00    +0.000 C 
ATOM      2  N   UNL     1       3.482   6.586  18.416  0.00  0.00    +0.000 NA
ENDROOT
BRANCH   2   3
ATOM      3  C   UNL     1       3.093   5.164  18.736  0.00  0.00    +0.000 C 
ATOM      4  C   UNL     1       1.816   4.779  17.908  0.00  0.00    +0.000 C 
ATOM      5  C   UNL     1       1.343   3.344  18.197  0.00  0.00    +0.000 C 
ATOM      6  C   UNL     1       2.443   2.356  17.800  0.00  0.00    +0.000 C 
ATOM      7  C   UNL     1       3.716   2.661  18.596  0.00  0.00    +0.000 C 
ATOM      8  C   UNL     1       3.414   2.498  20.091  0.00  0.00    +0.000 C 
ATOM      9  C   UNL     1       2.320   3.485  20.511  0.00  0.00    +0.000 C 
ATOM     10  C   UNL     1       1.044   3.215  19.698  0.00  0.00    +0.000 C 
ATOM     11  C   UNL     1       2.798   4.925  20.247  0.00  0.00    +0.000 C 
ATOM     12  C   UNL     1       4.182   4.119  18.316  0.00  0.00    +0.000 C 
ENDBRANCH   2   3
BRANCH   2  13
ATOM     13  C   UNL     1       2.385   7.489  17.974  0.00  0.00    +0.000 C 
BRANCH  13  14
ATOM     14  C   UNL     1       1.757   8.325  19.080  0.00  0.00    +0.000 C 
ATOM     15  C   UNL     1       1.562   7.963  20.363  0.00  0.00    +0.000 C 
ATOM     16  C   UNL     1       0.894   9.038  21.167  0.00  0.00    +0.000 C 
ATOM     17  C   UNL     1      -0.535   8.612  21.529  0.00  0.00    +0.000 C 
ATOM     18  C   UNL     1       1.677   9.369  22.440  0.00  0.00    +0.000 C 
ATOM     19  N   UNL     1       1.001  10.202  20.264  0.00  0.00    +0.000 NA
ATOM     20  C   UNL     1       1.184   9.722  18.863  0.00  0.00    +0.000 C 
ATOM     21  C   UNL     1       2.134  10.742  18.214  0.00  0.00    +0.000 C 
ATOM     22  C   UNL     1      -0.119   9.636  18.048  0.00  0.00    +0.000 C 
BRANCH  19  23
ATOM     23  O   UNL     1      -0.119  11.104  20.396  0.00  0.00    +0.000 OA
ATOM     24  H   UNL     1      -0.745  10.556  20.909  0.00  0.00    +0.000 HD
ENDBRANCH  19  23
ENDBRANCH  13  14
ENDBRANCH   2  13
TORSDOF 4
ENDMDL
MODEL 6
REMARK VINA RESULT:      -7.7      3.215      5.774
REMARK  Name = 
REMARK  9 active torsions:
REMARK  status: ('A' for Active; 'I' for Inactive)
REMARK    1  A    between atoms: C_1  and  N_2
REMARK    2  A    between atoms: N_2  and  C_3
REMARK    3  A    between atoms: N_2  and  C_14
REMARK    4  A    between atoms: C_3  and  C_4
REMARK    5  A    between atoms: C_6  and  C_7
REMARK    6  A    between atoms: C_6  and  C_8
REMARK    7  A    between atoms: N_9  and  O_10
REMARK    8  A    between atoms: C_11  and  C_12
REMARK    9  A    between atoms: C_11  and  C_13
REMARK                            x       y       z     vdW  Elec       q    Type
REMARK                         _______ _______ _______ _____ _____    ______ ____
ROOT
ATOM      1  C   UNL     1       4.568   6.668  17.494  0.00  0.00    +0.000 C 
ATOM      2  N   UNL     1       3.433   6.618  18.438  0.00  0.00    +0.000 NA
ENDROOT
BRANCH   2   3
ATOM      3  C   UNL     1       2.985   5.204  18.715  0.00  0.00    +0.000 C 
ATOM      4  C   UNL     1       4.124   4.209  18.292  0.00  0.00    +0.000 C 
ATOM      5  C   UNL     1       3.732   2.740  18.525  0.00  0.00    +0.000 C 
ATOM      6  C   UNL     1       3.475   2.511  20.016  0.00  0.00    +0.000 C 
ATOM      7  C   UNL     1       2.350   3.438  20.489  0.00  0.00    +0.000 C 
ATOM      8  C   UNL     1       1.074   3.104  19.707  0.00  0.00    +0.000 C 
ATOM      9  C   UNL     1       1.307   3.334  18.210  0.00  0.00    +0.000 C 
ATOM     10  C   UNL     1       2.456   2.436  17.724  0.00  0.00    +0.000 C 
ATOM     11  C   UNL     1       1.675   4.810  17.967  0.00  0.00    +0.000 C 
ATOM     12  C   UNL     1       2.742   4.922  20.236  0.00  0.00    +0.000 C 
ENDBRANCH   2   3
BRANCH   2  13
ATOM     13  C   UNL     1       2.381   7.570  17.991  0.00  0.00    +0.000 C 
BRANCH  13  14
ATOM     14  C   UNL     1       1.733   8.379  19.105  0.00  0.00    +0.000 C 
ATOM     15  C   UNL     1       1.561   8.006  20.388  0.00  0.00    +0.000 C 
ATOM     16  C   UNL     1       0.863   9.055  21.202  0.00  0.00    +0.000 C 
ATOM     17  C   UNL     1      -0.548   8.578  21.573  0.00  0.00    +0.000 C 
ATOM     18  C   UNL     1       1.643   9.406  22.471  0.00  0.00    +0.000 C 
ATOM     19  N   UNL     1       0.923  10.225  20.303  0.00  0.00    +0.000 NA
ATOM     20  C   UNL     1       1.112   9.757  18.899  0.00  0.00    +0.000 C 
ATOM     21  C   UNL     1       2.021  10.811  18.247  0.00  0.00    +0.000 C 
ATOM     22  C   UNL     1      -0.194   9.630  18.094  0.00  0.00    +0.000 C 
BRANCH  19  23
ATOM     23  O   UNL     1      -0.225  11.088  20.447  0.00  0.00    +0.000 OA
ATOM     24  H   UNL     1      -0.537  11.146  19.523  0.00  0.00    +0.000 HD
ENDBRANCH  19  23
ENDBRANCH  13  14
ENDBRANCH   2  13
TORSDOF 4
ENDMDL
MODEL 7
REMARK VINA RESULT:      -7.6      0.845      2.721
REMARK  Name = 
REMARK  9 active torsions:
REMARK  status: ('A' for Active; 'I' for Inactive)
REMARK    1  A    between atoms: C_1  and  N_2
REMARK    2  A    between atoms: N_2  and  C_3
REMARK    3  A    between atoms: N_2  and  C_14
REMARK    4  A    between atoms: C_3  and  C_4
REMARK    5  A    between atoms: C_6  and  C_7
REMARK    6  A    between atoms: C_6  and  C_8
REMARK    7  A    between atoms: N_9  and  O_10
REMARK    8  A    between atoms: C_11  and  C_12
REMARK    9  A    between atoms: C_11  and  C_13
REMARK                            x       y       z     vdW  Elec       q    Type
REMARK                         _______ _______ _______ _____ _____    ______ ____
ROOT
ATOM      1  C   UNL     1       2.930   6.960  19.689  0.00  0.00    +0.000 C 
ATOM      2  N   UNL     1       2.406   6.092  18.615  0.00  0.00    +0.000 NA
ENDROOT
BRANCH   2   3
ATOM      3  C   UNL     1       2.293   4.653  19.050  0.00  0.00    +0.000 C 
ATOM      4  C   UNL     1       1.147   4.523  20.116  0.00  0.00    +0.000 C 
ATOM      5  C   UNL     1       0.984   3.081  20.627  0.00  0.00    +0.000 C 
ATOM      6  C   UNL     1       0.609   2.166  19.459  0.00  0.00    +0.000 C 
ATOM      7  C   UNL     1       1.705   2.225  18.390  0.00  0.00    +0.000 C 
ATOM      8  C   UNL     1       3.022   1.735  19.005  0.00  0.00    +0.000 C 
ATOM      9  C   UNL     1       3.420   2.643  20.173  0.00  0.00    +0.000 C 
ATOM     10  C   UNL     1       2.315   2.622  21.242  0.00  0.00    +0.000 C 
ATOM     11  C   UNL     1       3.609   4.084  19.662  0.00  0.00    +0.000 C 
ATOM     12  C   UNL     1       1.880   3.688  17.888  0.00  0.00    +0.000 C 
ENDBRANCH   2   3
BRANCH   2  13
ATOM     13  C   UNL     1       3.168   6.347  17.362  0.00  0.00    +0.000 C 
BRANCH  13  14
ATOM     14  C   UNL     1       4.664   6.082  17.455  0.00  0.00    +0.000 C 
ATOM     15  C   UNL     1       5.542   6.661  18.297  0.00  0.00    +0.000 C 
ATOM     16  C   UNL     1       6.943   6.168  18.092  0.00  0.00    +0.000 C 
ATOM     17  C   UNL     1       7.809   7.283  17.489  0.00  0.00    +0.000 C 
ATOM     18  C   UNL     1       7.571   5.671  19.396  0.00  0.00    +0.000 C 
ATOM     19  N   UNL     1       6.727   4.992  17.225  0.00  0.00    +0.000 NA
ATOM     20  C   UNL     1       5.413   5.129  16.530  0.00  0.00    +0.000 C 
ATOM     21  C   UNL     1       4.856   3.699  16.447  0.00  0.00    +0.000 C 
ATOM     22  C   UNL     1       5.505   5.732  15.117  0.00  0.00    +0.000 C 
BRANCH  19  23
ATOM     23  O   UNL     1       7.818   4.780  16.304  0.00  0.00    +0.000 OA
ATOM     24  H   UNL     1       7.373   4.276  15.595  0.00  0.00    +0.000 HD
ENDBRANCH  19  23
ENDBRANCH  13  14
ENDBRANCH   2  13
TORSDOF 4
ENDMDL
MODEL 8
REMARK VINA RESULT:      -7.6      0.833      2.292
REMARK  Name = 
REMARK  9 active torsions:
REMARK  status: ('A' for Active; 'I' for Inactive)
REMARK    1  A    between atoms: C_1  and  N_2
REMARK    2  A    between atoms: N_2  and  C_3
REMARK    3  A    between atoms: N_2  and  C_14
REMARK    4  A    between atoms: C_3  and  C_4
REMARK    5  A    between atoms: C_6  and  C_7
REMARK    6  A    between atoms: C_6  and  C_8
REMARK    7  A    between atoms: N_9  and  O_10
REMARK    8  A    between atoms: C_11  and  C_12
REMARK    9  A    between atoms: C_11  and  C_13
REMARK                            x       y       z     vdW  Elec       q    Type
REMARK                         _______ _______ _______ _____ _____    ______ ____
ROOT
ATOM      1  C   UNL     1       2.873   7.060  19.635  0.00  0.00    +0.000 C 
ATOM      2  N   UNL     1       2.338   6.134  18.616  0.00  0.00    +0.000 NA
ENDROOT
BRANCH   2   3
ATOM      3  C   UNL     1       2.230   4.721  19.131  0.00  0.00    +0.000 C 
ATOM      4  C   UNL     1       1.852   3.765  17.944  0.00  0.00    +0.000 C 
ATOM      5  C   UNL     1       1.701   2.302  18.397  0.00  0.00    +0.000 C 
ATOM      6  C   UNL     1       3.034   1.804  18.961  0.00  0.00    +0.000 C 
ATOM      7  C   UNL     1       3.448   2.682  20.146  0.00  0.00    +0.000 C 
ATOM      8  C   UNL     1       2.375   2.578  21.237  0.00  0.00    +0.000 C 
ATOM      9  C   UNL     1       1.032   3.080  20.695  0.00  0.00    +0.000 C 
ATOM     10  C   UNL     1       0.617   2.231  19.483  0.00  0.00    +0.000 C 
ATOM     11  C   UNL     1       1.171   4.552  20.263  0.00  0.00    +0.000 C 
ATOM     12  C   UNL     1       3.583   4.163  19.689  0.00  0.00    +0.000 C 
ENDBRANCH   2   3
BRANCH   2  13
ATOM     13  C   UNL     1       3.086   6.319  17.343  0.00  0.00    +0.000 C 
BRANCH  13  14
ATOM     14  C   UNL     1       4.585   6.078  17.438  0.00  0.00    +0.000 C 
ATOM     15  C   UNL     1       5.449   6.654  18.295  0.00  0.00    +0.000 C 
ATOM     16  C   UNL     1       6.860   6.190  18.087  0.00  0.00    +0.000 C 
ATOM     17  C   UNL     1       7.709   7.331  17.511  0.00  0.00    +0.000 C 
ATOM     18  C   UNL     1       7.490   5.677  19.384  0.00  0.00    +0.000 C 
ATOM     19  N   UNL     1       6.667   5.028  17.196  0.00  0.00    +0.000 NA
ATOM     20  C   UNL     1       5.355   5.156  16.497  0.00  0.00    +0.000 C 
ATOM     21  C   UNL     1       4.823   3.718  16.384  0.00  0.00    +0.000 C 
ATOM     22  C   UNL     1       5.443   5.788  15.097  0.00  0.00    +0.000 C 
BRANCH  19  23
ATOM     23  O   UNL     1       7.767   4.852  16.277  0.00  0.00    +0.000 OA
ATOM     24  H   UNL     1       8.189   5.733  16.316  0.00  0.00    +0.000 HD
ENDBRANCH  19  23
ENDBRANCH  13  14
ENDBRANCH   2  13
TORSDOF 4
ENDMDL
MODEL 9
REMARK VINA RESULT:      -7.6      0.843      2.811
REMARK  Name = 
REMARK  9 active torsions:
REMARK  status: ('A' for Active; 'I' for Inactive)
REMARK    1  A    between atoms: C_1  and  N_2
REMARK    2  A    between atoms: N_2  and  C_3
REMARK    3  A    between atoms: N_2  and  C_14
REMARK    4  A    between atoms: C_3  and  C_4
REMARK    5  A    between atoms: C_6  and  C_7
REMARK    6  A    between atoms: C_6  and  C_8
REMARK    7  A    between atoms: N_9  and  O_10
REMARK    8  A    between atoms: C_11  and  C_12
REMARK    9  A    between atoms: C_11  and  C_13
REMARK                            x       y       z     vdW  Elec       q    Type
REMARK                         _______ _______ _______ _____ _____    ______ ____
ROOT
ATOM      1  C   UNL     1       3.033   6.940  19.681  0.00  0.00    +0.000 C 
ATOM      2  N   UNL     1       2.425   6.107  18.624  0.00  0.00    +0.000 NA
ENDROOT
BRANCH   2   3
ATOM      3  C   UNL     1       2.221   4.680  19.070  0.00  0.00    +0.000 C 
ATOM      4  C   UNL     1       3.547   4.148  19.722  0.00  0.00    +0.000 C 
ATOM      5  C   UNL     1       3.425   2.686  20.185  0.00  0.00    +0.000 C 
ATOM      6  C   UNL     1       2.333   2.580  21.252  0.00  0.00    +0.000 C 
ATOM      7  C   UNL     1       1.000   3.061  20.669  0.00  0.00    +0.000 C 
ATOM      8  C   UNL     1       0.628   2.163  19.482  0.00  0.00    +0.000 C 
ATOM      9  C   UNL     1       1.706   2.261  18.398  0.00  0.00    +0.000 C 
ATOM     10  C   UNL     1       3.058   1.814  18.974  0.00  0.00    +0.000 C 
ATOM     11  C   UNL     1       1.815   3.719  17.913  0.00  0.00    +0.000 C 
ATOM     12  C   UNL     1       1.132   4.534  20.185  0.00  0.00    +0.000 C 
ENDBRANCH   2   3
BRANCH   2  13
ATOM     13  C   UNL     1       3.172   6.302  17.352  0.00  0.00    +0.000 C 
BRANCH  13  14
ATOM     14  C   UNL     1       4.670   6.048  17.443  0.00  0.00    +0.000 C 
ATOM     15  C   UNL     1       5.546   6.636  18.280  0.00  0.00    +0.000 C 
ATOM     16  C   UNL     1       6.951   6.153  18.073  0.00  0.00    +0.000 C 
ATOM     17  C   UNL     1       7.807   7.271  17.462  0.00  0.00    +0.000 C 
ATOM     18  C   UNL     1       7.585   5.666  19.377  0.00  0.00    +0.000 C 
ATOM     19  N   UNL     1       6.740   4.971  17.212  0.00  0.00    +0.000 NA
ATOM     20  C   UNL     1       5.424   5.096  16.520  0.00  0.00    +0.000 C 
ATOM     21  C   UNL     1       4.877   3.661  16.445  0.00  0.00    +0.000 C 
ATOM     22  C   UNL     1       5.508   5.692  15.103  0.00  0.00    +0.000 C 
BRANCH  19  23
ATOM     23  O   UNL     1       7.831   4.763  16.289  0.00  0.00    +0.000 OA
ATOM     24  H   UNL     1       7.884   5.638  15.857  0.00  0.00    +0.000 HD
ENDBRANCH  19  23
ENDBRANCH  13  14
ENDBRANCH   2  13
TORSDOF 4
ENDMDL
