MODEL 1
REMARK VINA RESULT:      -8.7      0.000      0.000
REMARK  Name = 
REMARK  11 active torsions:
REMARK  status: ('A' for Active; 'I' for Inactive)
REMARK    1  A    between atoms: C_1  and  C_2
REMARK    2  A    between atoms: C_2  and  C_3
REMARK    3  A    between atoms: C_3  and  C_4
REMARK    4  A    between atoms: C_3  and  C_5
REMARK    5  A    between atoms: C_5  and  N_6
REMARK    6  A    between atoms: C_5  and  C_7
REMARK    7  A    between atoms: C_7  and  N_8
REMARK    8  A    between atoms: N_8  and  C_20
REMARK    9  A    between atoms: C_9  and  C_11
REMARK   10  A    between atoms: C_13  and  C_14
REMARK   11  A    between atoms: C_23  and  C_24
REMARK                            x       y       z     vdW  Elec       q    Type
REMARK                         _______ _______ _______ _____ _____    ______ ____
ROOT
ATOM      1  N   UNL     1       6.070   5.175  16.990  0.00  0.00    +0.000 N 
ATOM      2  C   UNL     1       4.956   4.575  17.587  0.00  0.00    +0.000 C 
ATOM      3  O   UNL     1       4.644   3.407  17.355  0.00  0.00    +0.000 OA
ENDROOT
BRANCH   1   4
ATOM      4  C   UNL     1       6.702   6.328  17.506  0.00  0.00    +0.000 A 
ATOM      5  C   UNL     1       7.681   6.218  18.499  0.00  0.00    +0.000 A 
ATOM      6  C   UNL     1       8.421   7.339  18.881  0.00  0.00    +0.000 A 
ATOM      7  C   UNL     1       8.189   8.604  18.302  0.00  0.00    +0.000 A 
ATOM      8  C   UNL     1       7.185   8.690  17.318  0.00  0.00    +0.000 A 
ATOM      9  C   UNL     1       6.456   7.568  16.922  0.00  0.00    +0.000 A 
BRANCH   7  10
ATOM     10  C   UNL     1       8.969   9.799  18.706  0.00  0.00    +0.000 A 
ATOM     11  C   UNL     1       9.527  10.675  17.755  0.00  0.00    +0.000 A 
ATOM     12  C   UNL     1      10.291  11.782  18.142  0.00  0.00    +0.000 A 
ATOM     13  C   UNL     1      10.496  12.052  19.490  0.00  0.00    +0.000 A 
ATOM     14  C   UNL     1       9.941  11.217  20.452  0.00  0.00    +0.000 A 
ATOM     15  C   UNL     1       9.193  10.102  20.063  0.00  0.00    +0.000 A 
ENDBRANCH   7  10
ENDBRANCH   1   4
BRANCH   2  16
ATOM     16  C   UNL     1       4.061   5.398  18.502  0.00  0.00    +0.000 C 
ATOM     17  C   UNL     1       2.584   5.093  18.472  0.00  0.00    +0.000 C 
ATOM     18  C   UNL     1       3.085   6.412  17.911  0.00  0.00    +0.000 C 
BRANCH  18  19
ATOM     19  C   UNL     1       2.415   7.596  18.588  0.00  0.00    +0.000 A 
ATOM     20  C   UNL     1       1.985   7.627  19.917  0.00  0.00    +0.000 A 
ATOM     21  C   UNL     1       1.267   8.726  20.373  0.00  0.00    +0.000 A 
ATOM     22  N   UNL     1       0.954   9.800  19.615  0.00  0.00    +0.000 NA
ATOM     23  C   UNL     1       1.398   9.780  18.346  0.00  0.00    +0.000 A 
ATOM     24  C   UNL     1       2.122   8.729  17.808  0.00  0.00    +0.000 A 
ENDBRANCH  18  19
ENDBRANCH   2  16
BRANCH   1  25
ATOM     25  C   UNL     1       6.907   4.403  16.034  0.00  0.00    +0.000 C 
BRANCH  25  26
ATOM     26  C   UNL     1       6.792   4.909  14.549  0.00  0.00    +0.000 C 
BRANCH  26  27
ATOM     27  N   UNL     1       8.047   5.588  14.172  0.00  0.00    +0.000 NA
ATOM     28  H   UNL     1       8.049   6.534  14.555  0.00  0.00    +0.000 HD
ATOM     29  H   UNL     1       8.047   5.736  13.159  0.00  0.00    +0.000 HD
ENDBRANCH  26  27
BRANCH  26  30
ATOM     30  C   UNL     1       6.434   3.787  13.514  0.00  0.00    +0.000 C 
ATOM     31  C   UNL     1       7.227   3.914  12.198  0.00  0.00    +0.000 C 
BRANCH  30  33
ATOM     32  C   UNL     1       4.589   3.331  11.735  0.00  0.00    +0.000 C 
ATOM     33  C   UNL     1       4.919   3.724  13.176  0.00  0.00    +0.000 C 
ENDBRANCH  30  33
ENDBRANCH  26  30
ENDBRANCH  25  26
ENDBRANCH   1  25
TORSDOF 9
ENDMDL
MODEL 2
REMARK VINA RESULT:      -8.4      0.293      1.254
REMARK  Name = 
REMARK  11 active torsions:
REMARK  status: ('A' for Active; 'I' for Inactive)
REMARK    1  A    between atoms: C_1  and  C_2
REMARK    2  A    between atoms: C_2  and  C_3
REMARK    3  A    between atoms: C_3  and  C_4
REMARK    4  A    between atoms: C_3  and  C_5
REMARK    5  A    between atoms: C_5  and  N_6
REMARK    6  A    between atoms: C_5  and  C_7
REMARK    7  A    between atoms: C_7  and  N_8
REMARK    8  A    between atoms: N_8  and  C_20
REMARK    9  A    between atoms: C_9  and  C_11
REMARK   10  A    between atoms: C_13  and  C_14
REMARK   11  A    between atoms: C_23  and  C_24
REMARK                            x       y       z     vdW  Elec       q    Type
REMARK                         _______ _______ _______ _____ _____    ______ ____
ROOT
ATOM      1  N   UNL     1       6.191   5.281  16.918  0.00  0.00    +0.000 N 
ATOM      2  C   UNL     1       5.091   4.813  17.644  0.00  0.00    +0.000 C 
ATOM      3  O   UNL     1       4.662   3.668  17.507  0.00  0.00    +0.000 OA
ENDROOT
BRANCH   1   4
ATOM      4  C   UNL     1       6.965   6.396  17.310  0.00  0.00    +0.000 A 
ATOM      5  C   UNL     1       6.740   7.653  16.741  0.00  0.00    +0.000 A 
ATOM      6  C   UNL     1       7.388   8.780  17.252  0.00  0.00    +0.000 A 
ATOM      7  C   UNL     1       8.293   8.682  18.328  0.00  0.00    +0.000 A 
ATOM      8  C   UNL     1       8.515   7.401  18.871  0.00  0.00    +0.000 A 
ATOM      9  C   UNL     1       7.857   6.276  18.373  0.00  0.00    +0.000 A 
BRANCH   7  10
ATOM     10  C   UNL     1       8.986   9.875  18.874  0.00  0.00    +0.000 A 
ATOM     11  C   UNL     1       9.043  10.130  20.257  0.00  0.00    +0.000 A 
ATOM     12  C   UNL     1       9.669  11.274  20.764  0.00  0.00    +0.000 A 
ATOM     13  C   UNL     1      10.272  12.181  19.899  0.00  0.00    +0.000 A 
ATOM     14  C   UNL     1      10.248  11.946  18.530  0.00  0.00    +0.000 A 
ATOM     15  C   UNL     1       9.608  10.810  18.025  0.00  0.00    +0.000 A 
ENDBRANCH   7  10
ENDBRANCH   1   4
BRANCH   2  16
ATOM     16  C   UNL     1       4.359   5.756  18.587  0.00  0.00    +0.000 C 
ATOM     17  C   UNL     1       3.062   5.262  19.179  0.00  0.00    +0.000 C 
ATOM     18  C   UNL     1       3.036   6.391  18.163  0.00  0.00    +0.000 C 
BRANCH  18  19
ATOM     19  C   UNL     1       2.351   7.628  18.720  0.00  0.00    +0.000 A 
ATOM     20  C   UNL     1       1.852   7.756  20.019  0.00  0.00    +0.000 A 
ATOM     21  C   UNL     1       1.130   8.893  20.358  0.00  0.00    +0.000 A 
ATOM     22  N   UNL     1       0.875   9.916  19.513  0.00  0.00    +0.000 NA
ATOM     23  C   UNL     1       1.384   9.802  18.274  0.00  0.00    +0.000 A 
ATOM     24  C   UNL     1       2.119   8.707  17.848  0.00  0.00    +0.000 A 
ENDBRANCH  18  19
ENDBRANCH   2  16
BRANCH   1  25
ATOM     25  C   UNL     1       6.868   4.392  15.937  0.00  0.00    +0.000 C 
BRANCH  25  26
ATOM     26  C   UNL     1       6.734   4.884  14.448  0.00  0.00    +0.000 C 
BRANCH  26  27
ATOM     27  N   UNL     1       7.990   5.543  14.044  0.00  0.00    +0.000 NA
ATOM     28  H   UNL     1       8.769   4.896  14.168  0.00  0.00    +0.000 HD
ATOM     29  H   UNL     1       8.193   6.297  14.708  0.00  0.00    +0.000 HD
ENDBRANCH  26  27
BRANCH  26  30
ATOM     30  C   UNL     1       6.344   3.756  13.432  0.00  0.00    +0.000 C 
ATOM     31  C   UNL     1       7.168   3.815  12.130  0.00  0.00    +0.000 C 
BRANCH  30  33
ATOM     32  C   UNL     1       4.514   3.329  11.631  0.00  0.00    +0.000 C 
ATOM     33  C   UNL     1       4.835   3.754  13.065  0.00  0.00    +0.000 C 
ENDBRANCH  30  33
ENDBRANCH  26  30
ENDBRANCH  25  26
ENDBRANCH   1  25
TORSDOF 9
ENDMDL
MODEL 3
REMARK VINA RESULT:      -8.0      0.321      1.246
REMARK  Name = 
REMARK  11 active torsions:
REMARK  status: ('A' for Active; 'I' for Inactive)
REMARK    1  A    between atoms: C_1  and  C_2
REMARK    2  A    between atoms: C_2  and  C_3
REMARK    3  A    between atoms: C_3  and  C_4
REMARK    4  A    between atoms: C_3  and  C_5
REMARK    5  A    between atoms: C_5  and  N_6
REMARK    6  A    between atoms: C_5  and  C_7
REMARK    7  A    between atoms: C_7  and  N_8
REMARK    8  A    between atoms: N_8  and  C_20
REMARK    9  A    between atoms: C_9  and  C_11
REMARK   10  A    between atoms: C_13  and  C_14
REMARK   11  A    between atoms: C_23  and  C_24
REMARK                            x       y       z     vdW  Elec       q    Type
REMARK                         _______ _______ _______ _____ _____    ______ ____
ROOT
ATOM      1  N   UNL     1       6.022   5.215  16.856  0.00  0.00    +0.000 N 
ATOM      2  C   UNL     1       4.923   4.767  17.597  0.00  0.00    +0.000 C 
ATOM      3  O   UNL     1       4.473   3.629  17.469  0.00  0.00    +0.000 OA
ENDROOT
BRANCH   1   4
ATOM      4  C   UNL     1       6.819   6.319  17.234  0.00  0.00    +0.000 A 
ATOM      5  C   UNL     1       6.613   7.576  16.657  0.00  0.00    +0.000 A 
ATOM      6  C   UNL     1       7.285   8.694  17.155  0.00  0.00    +0.000 A 
ATOM      7  C   UNL     1       8.195   8.587  18.226  0.00  0.00    +0.000 A 
ATOM      8  C   UNL     1       8.398   7.307  18.777  0.00  0.00    +0.000 A 
ATOM      9  C   UNL     1       7.716   6.190  18.292  0.00  0.00    +0.000 A 
BRANCH   7  10
ATOM     10  C   UNL     1       8.914   9.771  18.758  0.00  0.00    +0.000 A 
ATOM     11  C   UNL     1       9.549  10.696  17.907  0.00  0.00    +0.000 A 
ATOM     12  C   UNL     1      10.253  11.792  18.415  0.00  0.00    +0.000 A 
ATOM     13  C   UNL     1      10.323  12.002  19.788  0.00  0.00    +0.000 A 
ATOM     14  C   UNL     1       9.690  11.116  20.652  0.00  0.00    +0.000 A 
ATOM     15  C   UNL     1       9.001  10.013  20.142  0.00  0.00    +0.000 A 
ENDBRANCH   7  10
ENDBRANCH   1   4
BRANCH   2  16
ATOM     16  C   UNL     1       4.218   5.726  18.545  0.00  0.00    +0.000 C 
ATOM     17  C   UNL     1       3.010   5.199  19.279  0.00  0.00    +0.000 C 
ATOM     18  C   UNL     1       2.827   6.257  18.206  0.00  0.00    +0.000 C 
BRANCH  18  19
ATOM     19  C   UNL     1       2.118   7.486  18.749  0.00  0.00    +0.000 A 
ATOM     20  C   UNL     1       1.791   8.623  18.005  0.00  0.00    +0.000 A 
ATOM     21  C   UNL     1       1.261   9.730  18.655  0.00  0.00    +0.000 A 
ATOM     22  N   UNL     1       1.020   9.792  19.983  0.00  0.00    +0.000 NA
ATOM     23  C   UNL     1       1.306   8.685  20.690  0.00  0.00    +0.000 A 
ATOM     24  C   UNL     1       1.833   7.535  20.126  0.00  0.00    +0.000 A 
ENDBRANCH  18  19
ENDBRANCH   2  16
BRANCH   1  25
ATOM     25  C   UNL     1       6.672   4.312  15.870  0.00  0.00    +0.000 C 
BRANCH  25  26
ATOM     26  C   UNL     1       6.669   4.880  14.402  0.00  0.00    +0.000 C 
BRANCH  26  27
ATOM     27  N   UNL     1       7.987   5.478  14.114  0.00  0.00    +0.000 NA
ATOM     28  H   UNL     1       8.026   5.758  13.134  0.00  0.00    +0.000 HD
ATOM     29  H   UNL     1       8.700   4.747  14.187  0.00  0.00    +0.000 HD
ENDBRANCH  26  27
BRANCH  26  30
ATOM     30  C   UNL     1       6.284   3.827  13.307  0.00  0.00    +0.000 C 
ATOM     31  C   UNL     1       7.218   3.872  12.081  0.00  0.00    +0.000 C 
BRANCH  30  33
ATOM     32  C   UNL     1       4.483   3.178  11.544  0.00  0.00    +0.000 C 
ATOM     33  C   UNL     1       4.816   3.957  12.817  0.00  0.00    +0.000 C 
ENDBRANCH  30  33
ENDBRANCH  26  30
ENDBRANCH  25  26
ENDBRANCH   1  25
TORSDOF 9
ENDMDL
MODEL 4
REMARK VINA RESULT:      -7.9      1.190      1.553
REMARK  Name = 
REMARK  11 active torsions:
REMARK  status: ('A' for Active; 'I' for Inactive)
REMARK    1  A    between atoms: C_1  and  C_2
REMARK    2  A    between atoms: C_2  and  C_3
REMARK    3  A    between atoms: C_3  and  C_4
REMARK    4  A    between atoms: C_3  and  C_5
REMARK    5  A    between atoms: C_5  and  N_6
REMARK    6  A    between atoms: C_5  and  C_7
REMARK    7  A    between atoms: C_7  and  N_8
REMARK    8  A    between atoms: N_8  and  C_20
REMARK    9  A    between atoms: C_9  and  C_11
REMARK   10  A    between atoms: C_13  and  C_14
REMARK   11  A    between atoms: C_23  and  C_24
REMARK                            x       y       z     vdW  Elec       q    Type
REMARK                         _______ _______ _______ _____ _____    ______ ____
ROOT
ATOM      1  N   UNL     1       6.602   5.306  17.982  0.00  0.00    +0.000 N 
ATOM      2  C   UNL     1       5.545   4.791  18.739  0.00  0.00    +0.000 C 
ATOM      3  O   UNL     1       5.351   3.580  18.845  0.00  0.00    +0.000 OA
ENDROOT
BRANCH   1   4
ATOM      4  C   UNL     1       7.114   6.612  18.147  0.00  0.00    +0.000 A 
ATOM      5  C   UNL     1       8.190   6.851  19.008  0.00  0.00    +0.000 A 
ATOM      6  C   UNL     1       8.799   8.107  19.039  0.00  0.00    +0.000 A 
ATOM      7  C   UNL     1       8.337   9.166  18.230  0.00  0.00    +0.000 A 
ATOM      8  C   UNL     1       7.241   8.904  17.386  0.00  0.00    +0.000 A 
ATOM      9  C   UNL     1       6.641   7.645  17.342  0.00  0.00    +0.000 A 
BRANCH   7  10
ATOM     10  C   UNL     1       8.978  10.504  18.259  0.00  0.00    +0.000 A 
ATOM     11  C   UNL     1       8.395  11.618  17.627  0.00  0.00    +0.000 A 
ATOM     12  C   UNL     1       9.020  12.870  17.630  0.00  0.00    +0.000 A 
ATOM     13  C   UNL     1      10.235  13.042  18.284  0.00  0.00    +0.000 A 
ATOM     14  C   UNL     1      10.825  11.965  18.933  0.00  0.00    +0.000 A 
ATOM     15  C   UNL     1      10.207  10.712  18.915  0.00  0.00    +0.000 A 
ENDBRANCH   7  10
ENDBRANCH   1   4
BRANCH   2  16
ATOM     16  C   UNL     1       4.565   5.745  19.405  0.00  0.00    +0.000 C 
ATOM     17  C   UNL     1       3.181   5.217  19.690  0.00  0.00    +0.000 C 
ATOM     18  C   UNL     1       3.368   6.284  18.625  0.00  0.00    +0.000 C 
BRANCH  18  19
ATOM     19  C   UNL     1       2.519   7.511  18.910  0.00  0.00    +0.000 A 
ATOM     20  C   UNL     1       1.884   7.788  20.123  0.00  0.00    +0.000 A 
ATOM     21  C   UNL     1       1.029   8.880  20.208  0.00  0.00    +0.000 A 
ATOM     22  N   UNL     1       0.765   9.724  19.186  0.00  0.00    +0.000 NA
ATOM     23  C   UNL     1       1.404   9.472  18.030  0.00  0.00    +0.000 A 
ATOM     24  C   UNL     1       2.275   8.409  17.855  0.00  0.00    +0.000 A 
ENDBRANCH  18  19
ENDBRANCH   2  16
BRANCH   1  25
ATOM     25  C   UNL     1       7.521   4.385  17.263  0.00  0.00    +0.000 C 
BRANCH  25  26
ATOM     26  C   UNL     1       6.973   3.915  15.865  0.00  0.00    +0.000 C 
BRANCH  26  27
ATOM     27  N   UNL     1       5.744   3.126  16.070  0.00  0.00    +0.000 NA
ATOM     28  H   UNL     1       5.246   3.036  15.184  0.00  0.00    +0.000 HD
ATOM     29  H   UNL     1       5.101   3.668  16.656  0.00  0.00    +0.000 HD
ENDBRANCH  26  27
BRANCH  26  30
ATOM     30  C   UNL     1       6.722   5.082  14.848  0.00  0.00    +0.000 C 
ATOM     31  C   UNL     1       5.248   5.530  14.805  0.00  0.00    +0.000 C 
BRANCH  30  33
ATOM     32  C   UNL     1       6.320   3.723  12.666  0.00  0.00    +0.000 C 
ATOM     33  C   UNL     1       7.182   4.748  13.403  0.00  0.00    +0.000 C 
ENDBRANCH  30  33
ENDBRANCH  26  30
ENDBRANCH  25  26
ENDBRANCH   1  25
TORSDOF 9
ENDMDL
MODEL 5
REMARK VINA RESULT:      -7.9      0.568      1.172
REMARK  Name = 
REMARK  11 active torsions:
REMARK  status: ('A' for Active; 'I' for Inactive)
REMARK    1  A    between atoms: C_1  and  C_2
REMARK    2  A    between atoms: C_2  and  C_3
REMARK    3  A    between atoms: C_3  and  C_4
REMARK    4  A    between atoms: C_3  and  C_5
REMARK    5  A    between atoms: C_5  and  N_6
REMARK    6  A    between atoms: C_5  and  C_7
REMARK    7  A    between atoms: C_7  and  N_8
REMARK    8  A    between atoms: N_8  and  C_20
REMARK    9  A    between atoms: C_9  and  C_11
REMARK   10  A    between atoms: C_13  and  C_14
REMARK   11  A    between atoms: C_23  and  C_24
REMARK                            x       y       z     vdW  Elec       q    Type
REMARK                         _______ _______ _______ _____ _____    ______ ____
ROOT
ATOM      1  N   UNL     1       6.241   5.503  17.165  0.00  0.00    +0.000 N 
ATOM      2  C   UNL     1       5.141   4.904  17.788  0.00  0.00    +0.000 C 
ATOM      3  O   UNL     1       4.816   3.740  17.554  0.00  0.00    +0.000 OA
ENDROOT
BRANCH   1   4
ATOM      4  C   UNL     1       6.896   6.647  17.674  0.00  0.00    +0.000 A 
ATOM      5  C   UNL     1       7.871   6.526  18.668  0.00  0.00    +0.000 A 
ATOM      6  C   UNL     1       8.632   7.636  19.043  0.00  0.00    +0.000 A 
ATOM      7  C   UNL     1       8.425   8.900  18.454  0.00  0.00    +0.000 A 
ATOM      8  C   UNL     1       7.424   8.999  17.469  0.00  0.00    +0.000 A 
ATOM      9  C   UNL     1       6.674   7.888  17.081  0.00  0.00    +0.000 A 
BRANCH   7  10
ATOM     10  C   UNL     1       9.228  10.083  18.851  0.00  0.00    +0.000 A 
ATOM     11  C   UNL     1       9.348  10.479  20.196  0.00  0.00    +0.000 A 
ATOM     12  C   UNL     1      10.079  11.616  20.561  0.00  0.00    +0.000 A 
ATOM     13  C   UNL     1      10.725  12.372  19.589  0.00  0.00    +0.000 A 
ATOM     14  C   UNL     1      10.640  11.994  18.254  0.00  0.00    +0.000 A 
ATOM     15  C   UNL     1       9.896  10.868  17.891  0.00  0.00    +0.000 A 
ENDBRANCH   7  10
ENDBRANCH   1   4
BRANCH   2  16
ATOM     16  C   UNL     1       4.279   5.723  18.737  0.00  0.00    +0.000 C 
ATOM     17  C   UNL     1       2.887   5.210  19.014  0.00  0.00    +0.000 C 
ATOM     18  C   UNL     1       3.066   6.484  18.207  0.00  0.00    +0.000 C 
BRANCH  18  19
ATOM     19  C   UNL     1       2.324   7.652  18.836  0.00  0.00    +0.000 A 
ATOM     20  C   UNL     1       1.875   7.703  20.159  0.00  0.00    +0.000 A 
ATOM     21  C   UNL     1       1.093   8.775  20.569  0.00  0.00    +0.000 A 
ATOM     22  N   UNL     1       0.732   9.805  19.772  0.00  0.00    +0.000 NA
ATOM     23  C   UNL     1       1.193   9.768  18.510  0.00  0.00    +0.000 A 
ATOM     24  C   UNL     1       1.981   8.741  18.015  0.00  0.00    +0.000 A 
ENDBRANCH  18  19
ENDBRANCH   2  16
BRANCH   1  25
ATOM     25  C   UNL     1       7.046   4.736  16.178  0.00  0.00    +0.000 C 
BRANCH  25  26
ATOM     26  C   UNL     1       6.823   5.199  14.691  0.00  0.00    +0.000 C 
BRANCH  26  27
ATOM     27  N   UNL     1       8.135   5.386  14.043  0.00  0.00    +0.000 NA
ATOM     28  H   UNL     1       8.763   5.876  14.681  0.00  0.00    +0.000 HD
ATOM     29  H   UNL     1       8.024   6.039  13.262  0.00  0.00    +0.000 HD
ENDBRANCH  26  27
BRANCH  26  30
ATOM     30  C   UNL     1       5.917   4.237  13.848  0.00  0.00    +0.000 C 
ATOM     31  C   UNL     1       5.502   2.973  14.627  0.00  0.00    +0.000 C 
BRANCH  30  33
ATOM     32  C   UNL     1       5.854   2.657  11.781  0.00  0.00    +0.000 C 
ATOM     33  C   UNL     1       6.564   3.802  12.505  0.00  0.00    +0.000 C 
ENDBRANCH  30  33
ENDBRANCH  26  30
ENDBRANCH  25  26
ENDBRANCH   1  25
TORSDOF 9
ENDMDL
MODEL 6
REMARK VINA RESULT:      -7.7      1.086      1.889
REMARK  Name = 
REMARK  11 active torsions:
REMARK  status: ('A' for Active; 'I' for Inactive)
REMARK    1  A    between atoms: C_1  and  C_2
REMARK    2  A    between atoms: C_2  and  C_3
REMARK    3  A    between atoms: C_3  and  C_4
REMARK    4  A    between atoms: C_3  and  C_5
REMARK    5  A    between atoms: C_5  and  N_6
REMARK    6  A    between atoms: C_5  and  C_7
REMARK    7  A    between atoms: C_7  and  N_8
REMARK    8  A    between atoms: N_8  and  C_20
REMARK    9  A    between atoms: C_9  and  C_11
REMARK   10  A    between atoms: C_13  and  C_14
REMARK   11  A    between atoms: C_23  and  C_24
REMARK                            x       y       z     vdW  Elec       q    Type
REMARK                         _______ _______ _______ _____ _____    ______ ____
ROOT
ATOM      1  N   UNL     1       6.040   5.035  17.596  0.00  0.00    +0.000 N 
ATOM      2  C   UNL     1       5.028   4.654  18.483  0.00  0.00    +0.000 C 
ATOM      3  O   UNL     1       4.657   3.485  18.583  0.00  0.00    +0.000 OA
ENDROOT
BRANCH   1   4
ATOM      4  C   UNL     1       6.775   6.235  17.722  0.00  0.00    +0.000 A 
ATOM      5  C   UNL     1       6.359   7.396  17.063  0.00  0.00    +0.000 A 
ATOM      6  C   UNL     1       6.988   8.615  17.326  0.00  0.00    +0.000 A 
ATOM      7  C   UNL     1       8.063   8.704  18.234  0.00  0.00    +0.000 A 
ATOM      8  C   UNL     1       8.474   7.517  18.869  0.00  0.00    +0.000 A 
ATOM      9  C   UNL     1       7.836   6.301  18.621  0.00  0.00    +0.000 A 
BRANCH   7  10
ATOM     10  C   UNL     1       8.738   9.996  18.515  0.00  0.00    +0.000 A 
ATOM     11  C   UNL     1       9.491  10.197  19.687  0.00  0.00    +0.000 A 
ATOM     12  C   UNL     1      10.098  11.428  19.963  0.00  0.00    +0.000 A 
ATOM     13  C   UNL     1       9.982  12.481  19.062  0.00  0.00    +0.000 A 
ATOM     14  C   UNL     1       9.260  12.305  17.887  0.00  0.00    +0.000 A 
ATOM     15  C   UNL     1       8.642  11.080  17.622  0.00  0.00    +0.000 A 
ENDBRANCH   7  10
ENDBRANCH   1   4
BRANCH   2  16
ATOM     16  C   UNL     1       4.316   5.715  19.309  0.00  0.00    +0.000 C 
ATOM     17  C   UNL     1       3.055   5.297  20.024  0.00  0.00    +0.000 C 
ATOM     18  C   UNL     1       2.965   6.263  18.855  0.00  0.00    +0.000 C 
BRANCH  18  19
ATOM     19  C   UNL     1       2.279   7.558  19.254  0.00  0.00    +0.000 A 
ATOM     20  C   UNL     1       1.701   7.813  20.501  0.00  0.00    +0.000 A 
ATOM     21  C   UNL     1       0.989   8.991  20.690  0.00  0.00    +0.000 A 
ATOM     22  N   UNL     1       0.816   9.939  19.742  0.00  0.00    +0.000 NA
ATOM     23  C   UNL     1       1.401   9.704  18.555  0.00  0.00    +0.000 A 
ATOM     24  C   UNL     1       2.132   8.560  18.278  0.00  0.00    +0.000 A 
ENDBRANCH  18  19
ENDBRANCH   2  16
BRANCH   1  25
ATOM     25  C   UNL     1       6.690   4.017  16.728  0.00  0.00    +0.000 C 
BRANCH  25  26
ATOM     26  C   UNL     1       5.831   3.625  15.469  0.00  0.00    +0.000 C 
BRANCH  26  27
ATOM     27  N   UNL     1       4.400   3.744  15.807  0.00  0.00    +0.000 NA
ATOM     28  H   UNL     1       4.303   4.037  16.780  0.00  0.00    +0.000 HD
ATOM     29  H   UNL     1       3.982   2.808  15.794  0.00  0.00    +0.000 HD
ENDBRANCH  26  27
BRANCH  26  30
ATOM     30  C   UNL     1       6.169   4.448  14.179  0.00  0.00    +0.000 C 
ATOM     31  C   UNL     1       6.063   3.608  12.890  0.00  0.00    +0.000 C 
BRANCH  30  33
ATOM     32  C   UNL     1       8.164   5.477  12.861  0.00  0.00    +0.000 C 
ATOM     33  C   UNL     1       7.571   5.114  14.224  0.00  0.00    +0.000 C 
ENDBRANCH  30  33
ENDBRANCH  26  30
ENDBRANCH  25  26
ENDBRANCH   1  25
TORSDOF 9
ENDMDL
MODEL 7
REMARK VINA RESULT:      -7.6      0.806      1.518
REMARK  Name = 
REMARK  11 active torsions:
REMARK  status: ('A' for Active; 'I' for Inactive)
REMARK    1  A    between atoms: C_1  and  C_2
REMARK    2  A    between atoms: C_2  and  C_3
REMARK    3  A    between atoms: C_3  and  C_4
REMARK    4  A    between atoms: C_3  and  C_5
REMARK    5  A    between atoms: C_5  and  N_6
REMARK    6  A    between atoms: C_5  and  C_7
REMARK    7  A    between atoms: C_7  and  N_8
REMARK    8  A    between atoms: N_8  and  C_20
REMARK    9  A    between atoms: C_9  and  C_11
REMARK   10  A    between atoms: C_13  and  C_14
REMARK   11  A    between atoms: C_23  and  C_24
REMARK                            x       y       z     vdW  Elec       q    Type
REMARK                         _______ _______ _______ _____ _____    ______ ____
ROOT
ATOM      1  N   UNL     1       6.047   5.189  17.172  0.00  0.00    +0.000 N 
ATOM      2  C   UNL     1       4.924   4.628  17.790  0.00  0.00    +0.000 C 
ATOM      3  O   UNL     1       4.594   3.458  17.599  0.00  0.00    +0.000 OA
ENDROOT
BRANCH   1   4
ATOM      4  C   UNL     1       6.698   6.349  17.647  0.00  0.00    +0.000 A 
ATOM      5  C   UNL     1       7.705   6.254  18.613  0.00  0.00    +0.000 A 
ATOM      6  C   UNL     1       8.459   7.380  18.953  0.00  0.00    +0.000 A 
ATOM      7  C   UNL     1       8.215   8.634  18.356  0.00  0.00    +0.000 A 
ATOM      8  C   UNL     1       7.183   8.706  17.400  0.00  0.00    +0.000 A 
ATOM      9  C   UNL     1       6.439   7.579  17.047  0.00  0.00    +0.000 A 
BRANCH   7  10
ATOM     10  C   UNL     1       9.010   9.834  18.714  0.00  0.00    +0.000 A 
ATOM     11  C   UNL     1       9.274  10.174  20.055  0.00  0.00    +0.000 A 
ATOM     12  C   UNL     1       9.996  11.325  20.388  0.00  0.00    +0.000 A 
ATOM     13  C   UNL     1      10.491  12.153  19.386  0.00  0.00    +0.000 A 
ATOM     14  C   UNL     1      10.263  11.833  18.053  0.00  0.00    +0.000 A 
ATOM     15  C   UNL     1       9.527  10.691  17.724  0.00  0.00    +0.000 A 
ENDBRANCH   7  10
ENDBRANCH   1   4
BRANCH   2  16
ATOM     16  C   UNL     1       4.044   5.496  18.676  0.00  0.00    +0.000 C 
ATOM     17  C   UNL     1       2.605   5.072  18.839  0.00  0.00    +0.000 C 
ATOM     18  C   UNL     1       2.927   6.337  18.062  0.00  0.00    +0.000 C 
BRANCH  18  19
ATOM     19  C   UNL     1       2.214   7.546  18.643  0.00  0.00    +0.000 A 
ATOM     20  C   UNL     1       1.893   8.709  17.937  0.00  0.00    +0.000 A 
ATOM     21  C   UNL     1       1.359   9.792  18.623  0.00  0.00    +0.000 A 
ATOM     22  N   UNL     1       1.108   9.808  19.951  0.00  0.00    +0.000 NA
ATOM     23  C   UNL     1       1.389   8.675  20.620  0.00  0.00    +0.000 A 
ATOM     24  C   UNL     1       1.920   7.546  20.019  0.00  0.00    +0.000 A 
ENDBRANCH  18  19
ENDBRANCH   2  16
BRANCH   1  25
ATOM     25  C   UNL     1       6.871   4.372  16.243  0.00  0.00    +0.000 C 
BRANCH  25  26
ATOM     26  C   UNL     1       6.131   4.006  14.903  0.00  0.00    +0.000 C 
BRANCH  26  27
ATOM     27  N   UNL     1       4.980   4.912  14.726  0.00  0.00    +0.000 NA
ATOM     28  H   UNL     1       5.208   5.619  14.027  0.00  0.00    +0.000 HD
ATOM     29  H   UNL     1       4.855   5.453  15.587  0.00  0.00    +0.000 HD
ENDBRANCH  26  27
BRANCH  26  30
ATOM     30  C   UNL     1       7.052   4.022  13.635  0.00  0.00    +0.000 C 
ATOM     31  C   UNL     1       7.669   5.408  13.363  0.00  0.00    +0.000 C 
BRANCH  30  33
ATOM     32  C   UNL     1       7.119   2.532  11.502  0.00  0.00    +0.000 C 
ATOM     33  C   UNL     1       6.334   3.536  12.347  0.00  0.00    +0.000 C 
ENDBRANCH  30  33
ENDBRANCH  26  30
ENDBRANCH  25  26
ENDBRANCH   1  25
TORSDOF 9
ENDMDL
MODEL 8
REMARK VINA RESULT:      -7.5      0.783      1.698
REMARK  Name = 
REMARK  11 active torsions:
REMARK  status: ('A' for Active; 'I' for Inactive)
REMARK    1  A    between atoms: C_1  and  C_2
REMARK    2  A    between atoms: C_2  and  C_3
REMARK    3  A    between atoms: C_3  and  C_4
REMARK    4  A    between atoms: C_3  and  C_5
REMARK    5  A    between atoms: C_5  and  N_6
REMARK    6  A    between atoms: C_5  and  C_7
REMARK    7  A    between atoms: C_7  and  N_8
REMARK    8  A    between atoms: N_8  and  C_20
REMARK    9  A    between atoms: C_9  and  C_11
REMARK   10  A    between atoms: C_13  and  C_14
REMARK   11  A    between atoms: C_23  and  C_24
REMARK                            x       y       z     vdW  Elec       q    Type
REMARK                         _______ _______ _______ _____ _____    ______ ____
ROOT
ATOM      1  N   UNL     1       6.008   5.359  17.147  0.00  0.00    +0.000 N 
ATOM      2  C   UNL     1       4.907   4.969  17.917  0.00  0.00    +0.000 C 
ATOM      3  O   UNL     1       4.433   3.836  17.846  0.00  0.00    +0.000 OA
ENDROOT
BRANCH   1   4
ATOM      4  C   UNL     1       6.830   6.462  17.466  0.00  0.00    +0.000 A 
ATOM      5  C   UNL     1       6.579   7.720  16.911  0.00  0.00    +0.000 A 
ATOM      6  C   UNL     1       7.286   8.839  17.359  0.00  0.00    +0.000 A 
ATOM      7  C   UNL     1       8.277   8.729  18.356  0.00  0.00    +0.000 A 
ATOM      8  C   UNL     1       8.523   7.447  18.886  0.00  0.00    +0.000 A 
ATOM      9  C   UNL     1       7.806   6.332  18.451  0.00  0.00    +0.000 A 
BRANCH   7  10
ATOM     10  C   UNL     1       9.033   9.912  18.835  0.00  0.00    +0.000 A 
ATOM     11  C   UNL     1       9.148  10.213  20.205  0.00  0.00    +0.000 A 
ATOM     12  C   UNL     1       9.834  11.349  20.649  0.00  0.00    +0.000 A 
ATOM     13  C   UNL     1      10.440  12.201  19.733  0.00  0.00    +0.000 A 
ATOM     14  C   UNL     1      10.359  11.920  18.374  0.00  0.00    +0.000 A 
ATOM     15  C   UNL     1       9.659  10.794  17.933  0.00  0.00    +0.000 A 
ENDBRANCH   7  10
ENDBRANCH   1   4
BRANCH   2  16
ATOM     16  C   UNL     1       4.230   5.986  18.824  0.00  0.00    +0.000 C 
ATOM     17  C   UNL     1       3.095   5.488  19.685  0.00  0.00    +0.000 C 
ATOM     18  C   UNL     1       2.800   6.438  18.537  0.00  0.00    +0.000 C 
BRANCH  18  19
ATOM     19  C   UNL     1       2.080   7.687  19.018  0.00  0.00    +0.000 A 
ATOM     20  C   UNL     1       1.820   8.817  18.240  0.00  0.00    +0.000 A 
ATOM     21  C   UNL     1       1.271   9.943  18.841  0.00  0.00    +0.000 A 
ATOM     22  N   UNL     1       0.950  10.029  20.150  0.00  0.00    +0.000 NA
ATOM     23  C   UNL     1       1.172   8.928  20.889  0.00  0.00    +0.000 A 
ATOM     24  C   UNL     1       1.713   7.761  20.374  0.00  0.00    +0.000 A 
ENDBRANCH  18  19
ENDBRANCH   2  16
BRANCH   1  25
ATOM     25  C   UNL     1       6.631   4.397  16.199  0.00  0.00    +0.000 C 
BRANCH  25  26
ATOM     26  C   UNL     1       6.028   4.466  14.747  0.00  0.00    +0.000 C 
BRANCH  26  27
ATOM     27  N   UNL     1       5.421   5.795  14.542  0.00  0.00    +0.000 NA
ATOM     28  H   UNL     1       5.574   6.371  15.370  0.00  0.00    +0.000 HD
ATOM     29  H   UNL     1       4.403   5.687  14.506  0.00  0.00    +0.000 HD
ENDBRANCH  26  27
BRANCH  26  30
ATOM     30  C   UNL     1       7.055   4.140  13.609  0.00  0.00    +0.000 C 
ATOM     31  C   UNL     1       7.810   5.389  13.111  0.00  0.00    +0.000 C 
BRANCH  30  33
ATOM     32  C   UNL     1       4.888   3.500  12.319  0.00  0.00    +0.000 C 
ATOM     33  C   UNL     1       6.414   3.429  12.387  0.00  0.00    +0.000 C 
ENDBRANCH  30  33
ENDBRANCH  26  30
ENDBRANCH  25  26
ENDBRANCH   1  25
TORSDOF 9
ENDMDL
MODEL 9
REMARK VINA RESULT:      -7.4      5.059      9.104
REMARK  Name = 
REMARK  11 active torsions:
REMARK  status: ('A' for Active; 'I' for Inactive)
REMARK    1  A    between atoms: C_1  and  C_2
REMARK    2  A    between atoms: C_2  and  C_3
REMARK    3  A    between atoms: C_3  and  C_4
REMARK    4  A    between atoms: C_3  and  C_5
REMARK    5  A    between atoms: C_5  and  N_6
REMARK    6  A    between atoms: C_5  and  C_7
REMARK    7  A    between atoms: C_7  and  N_8
REMARK    8  A    between atoms: N_8  and  C_20
REMARK    9  A    between atoms: C_9  and  C_11
REMARK   10  A    between atoms: C_13  and  C_14
REMARK   11  A    between atoms: C_23  and  C_24
REMARK                            x       y       z     vdW  Elec       q    Type
REMARK                         _______ _______ _______ _____ _____    ______ ____
ROOT
ATOM      1  N   UNL     1      -0.025  11.511  19.516  0.00  0.00    +0.000 N 
ATOM      2  C   UNL     1       0.435  12.698  20.094  0.00  0.00    +0.000 C 
ATOM      3  O   UNL     1      -0.337  13.552  20.528  0.00  0.00    +0.000 OA
ENDROOT
BRANCH   1   4
ATOM      4  C   UNL     1       0.769  10.351  19.382  0.00  0.00    +0.000 A 
ATOM      5  C   UNL     1       0.947   9.481  20.462  0.00  0.00    +0.000 A 
ATOM      6  C   UNL     1       1.589   8.255  20.278  0.00  0.00    +0.000 A 
ATOM      7  C   UNL     1       2.092   7.873  19.017  0.00  0.00    +0.000 A 
ATOM      8  C   UNL     1       1.917   8.775  17.950  0.00  0.00    +0.000 A 
ATOM      9  C   UNL     1       1.261   9.993  18.128  0.00  0.00    +0.000 A 
BRANCH   7  10
ATOM     10  C   UNL     1       2.778   6.573  18.815  0.00  0.00    +0.000 A 
ATOM     11  C   UNL     1       3.643   6.353  17.726  0.00  0.00    +0.000 A 
ATOM     12  C   UNL     1       4.261   5.115  17.522  0.00  0.00    +0.000 A 
ATOM     13  C   UNL     1       4.045   4.071  18.415  0.00  0.00    +0.000 A 
ATOM     14  C   UNL     1       3.211   4.264  19.510  0.00  0.00    +0.000 A 
ATOM     15  C   UNL     1       2.582   5.497  19.703  0.00  0.00    +0.000 A 
ENDBRANCH   7  10
ENDBRANCH   1   4
BRANCH   2  16
ATOM     16  C   UNL     1       1.930  12.980  20.138  0.00  0.00    +0.000 C 
ATOM     17  C   UNL     1       2.414  13.948  21.189  0.00  0.00    +0.000 C 
ATOM     18  C   UNL     1       2.465  14.350  19.726  0.00  0.00    +0.000 C 
BRANCH  18  19
ATOM     19  C   UNL     1       3.872  14.735  19.301  0.00  0.00    +0.000 A 
ATOM     20  C   UNL     1       4.423  14.507  18.037  0.00  0.00    +0.000 A 
ATOM     21  C   UNL     1       5.767  14.789  17.823  0.00  0.00    +0.000 A 
ATOM     22  N   UNL     1       6.601  15.290  18.760  0.00  0.00    +0.000 NA
ATOM     23  C   UNL     1       6.058  15.537  19.965  0.00  0.00    +0.000 A 
ATOM     24  C   UNL     1       4.729  15.290  20.269  0.00  0.00    +0.000 A 
ENDBRANCH  18  19
ENDBRANCH   2  16
BRANCH   1  25
ATOM     25  C   UNL     1      -1.486  11.259  19.397  0.00  0.00    +0.000 C 
BRANCH  25  26
ATOM     26  C   UNL     1      -2.154  11.996  18.178  0.00  0.00    +0.000 C 
BRANCH  26  27
ATOM     27  N   UNL     1      -1.099  12.620  17.357  0.00  0.00    +0.000 NA
ATOM     28  H   UNL     1      -1.528  13.218  16.650  0.00  0.00    +0.000 HD
ATOM     29  H   UNL     1      -0.636  11.889  16.809  0.00  0.00    +0.000 HD
ENDBRANCH  26  27
BRANCH  26  30
ATOM     30  C   UNL     1      -3.075  11.080  17.300  0.00  0.00    +0.000 C 
ATOM     31  C   UNL     1      -2.948   9.587  17.660  0.00  0.00    +0.000 C 
BRANCH  30  33
ATOM     32  C   UNL     1      -2.978   9.966  14.950  0.00  0.00    +0.000 C 
ATOM     33  C   UNL     1      -2.832  11.246  15.775  0.00  0.00    +0.000 C 
ENDBRANCH  30  33
ENDBRANCH  26  30
ENDBRANCH  25  26
ENDBRANCH   1  25
TORSDOF 9
ENDMDL
