MODEL 1
REMARK VINA RESULT:      -7.4      0.000      0.000
REMARK  Name = 
REMARK  5 active torsions:
REMARK  status: ('A' for Active; 'I' for Inactive)
REMARK    1  A    between atoms: C_2  and  O_3
REMARK    2  A    between atoms: C_2  and  C_4
REMARK    3  A    between atoms: C_4  and  S_5
REMARK    4  A    between atoms: S_5  and  C_6
REMARK    5  A    between atoms: C_15  and  N_16
REMARK                            x       y       z     vdW  Elec       q    Type
REMARK                         _______ _______ _______ _____ _____    ______ ____
ROOT
ATOM      1  C   UNL     1       6.627   5.667  16.511  0.00  0.00    +0.000 A 
ATOM      2  N   UNL     1       7.374   5.765  15.370  0.00  0.00    +0.000 NA
ATOM      3  C   UNL     1       6.982   5.015  14.327  0.00  0.00    +0.000 A 
ATOM      4  C   UNL     1       7.715   5.069  13.149  0.00  0.00    +0.000 A 
ATOM      5  C   UNL     1       7.360   4.306  12.040  0.00  0.00    +0.000 A 
ATOM      6  C   UNL     1       6.254   3.469  12.116  0.00  0.00    +0.000 A 
ATOM      7  C   UNL     1       5.509   3.413  13.297  0.00  0.00    +0.000 A 
ATOM      8  C   UNL     1       5.848   4.179  14.407  0.00  0.00    +0.000 A 
ATOM      9  N   UNL     1       5.097   4.125  15.525  0.00  0.00    +0.000 NA
ATOM     10  C   UNL     1       5.445   4.886  16.597  0.00  0.00    +0.000 A 
ENDROOT
BRANCH  10  11
ATOM     11  N   UNL     1       4.585   4.855  17.681  0.00  0.00    +0.000 N 
ATOM     12  C   UNL     1       4.709   3.794  18.681  0.00  0.00    +0.000 C 
ATOM     13  C   UNL     1       3.377   3.073  18.894  0.00  0.00    +0.000 C 
ATOM     14  C   UNL     1       2.242   4.056  19.163  0.00  0.00    +0.000 C 
ATOM     15  C   UNL     1       2.156   5.072  18.034  0.00  0.00    +0.000 C 
ATOM     16  C   UNL     1       3.480   5.801  17.830  0.00  0.00    +0.000 C 
ENDBRANCH  10  11
BRANCH   1  17
ATOM     17  S   UNL     1       7.395   6.471  17.925  0.00  0.00    +0.000 S 
BRANCH  17  18
ATOM     18  C   UNL     1       7.470   8.192  17.361  0.00  0.00    +0.000 C 
BRANCH  18  20
ATOM     19  O   UNL     1       8.531  10.245  18.079  0.00  0.00    +0.000 OA
ATOM     20  C   UNL     1       8.363   9.043  18.234  0.00  0.00    +0.000 C 
BRANCH  20  21
ATOM     21  O   UNL     1       8.976   8.356  19.227  0.00  0.00    +0.000 OA
ATOM     22  H   UNL     1       9.901   8.667  19.362  0.00  0.00    +0.000 HD
ENDBRANCH  20  21
ENDBRANCH  18  20
ENDBRANCH  17  18
ENDBRANCH   1  17
TORSDOF 5
ENDMDL
MODEL 2
REMARK VINA RESULT:      -7.0      1.101      1.212
REMARK  Name = 
REMARK  5 active torsions:
REMARK  status: ('A' for Active; 'I' for Inactive)
REMARK    1  A    between atoms: C_2  and  O_3
REMARK    2  A    between atoms: C_2  and  C_4
REMARK    3  A    between atoms: C_4  and  S_5
REMARK    4  A    between atoms: S_5  and  C_6
REMARK    5  A    between atoms: C_15  and  N_16
REMARK                            x       y       z     vdW  Elec       q    Type
REMARK                         _______ _______ _______ _____ _____    ______ ____
ROOT
ATOM      1  C   UNL     1       6.069   5.233  16.944  0.00  0.00    +0.000 A 
ATOM      2  N   UNL     1       6.983   5.601  15.997  0.00  0.00    +0.000 NA
ATOM      3  C   UNL     1       6.855   5.038  14.784  0.00  0.00    +0.000 A 
ATOM      4  C   UNL     1       7.766   5.371  13.790  0.00  0.00    +0.000 A 
ATOM      5  C   UNL     1       7.686   4.810  12.518  0.00  0.00    +0.000 A 
ATOM      6  C   UNL     1       6.678   3.897  12.240  0.00  0.00    +0.000 A 
ATOM      7  C   UNL     1       5.755   3.561  13.234  0.00  0.00    +0.000 A 
ATOM      8  C   UNL     1       5.818   4.123  14.504  0.00  0.00    +0.000 A 
ATOM      9  N   UNL     1       4.899   3.802  15.436  0.00  0.00    +0.000 NA
ATOM     10  C   UNL     1       4.979   4.366  16.671  0.00  0.00    +0.000 A 
ENDROOT
BRANCH  10  11
ATOM     11  N   UNL     1       3.956   4.066  17.554  0.00  0.00    +0.000 N 
ATOM     12  C   UNL     1       3.844   2.716  18.109  0.00  0.00    +0.000 C 
ATOM     13  C   UNL     1       2.448   2.135  17.879  0.00  0.00    +0.000 C 
ATOM     14  C   UNL     1       1.356   3.095  18.341  0.00  0.00    +0.000 C 
ATOM     15  C   UNL     1       1.523   4.443  17.656  0.00  0.00    +0.000 C 
ATOM     16  C   UNL     1       2.911   5.029  17.897  0.00  0.00    +0.000 C 
ENDBRANCH  10  11
BRANCH   1  17
ATOM     17  S   UNL     1       6.499   5.804  18.595  0.00  0.00    +0.000 S 
BRANCH  17  18
ATOM     18  C   UNL     1       8.128   6.544  18.304  0.00  0.00    +0.000 C 
BRANCH  18  20
ATOM     19  O   UNL     1       8.690   8.855  18.754  0.00  0.00    +0.000 OA
ATOM     20  C   UNL     1       8.050   8.040  18.102  0.00  0.00    +0.000 C 
BRANCH  20  21
ATOM     21  O   UNL     1       7.198   8.417  17.120  0.00  0.00    +0.000 OA
ATOM     22  H   UNL     1       6.330   8.705  17.486  0.00  0.00    +0.000 HD
ENDBRANCH  20  21
ENDBRANCH  18  20
ENDBRANCH  17  18
ENDBRANCH   1  17
TORSDOF 5
ENDMDL
MODEL 3
REMARK VINA RESULT:      -7.0      1.852      1.963
REMARK  Name = 
REMARK  5 active torsions:
REMARK  status: ('A' for Active; 'I' for Inactive)
REMARK    1  A    between atoms: C_2  and  O_3
REMARK    2  A    between atoms: C_2  and  C_4
REMARK    3  A    between atoms: C_4  and  S_5
REMARK    4  A    between atoms: S_5  and  C_6
REMARK    5  A    between atoms: C_15  and  N_16
REMARK                            x       y       z     vdW  Elec       q    Type
REMARK                         _______ _______ _______ _____ _____    ______ ____
ROOT
ATOM      1  C   UNL     1       6.533   5.791  16.158  0.00  0.00    +0.000 A 
ATOM      2  N   UNL     1       7.304   5.855  15.031  0.00  0.00    +0.000 NA
ATOM      3  C   UNL     1       6.981   5.019  14.031  0.00  0.00    +0.000 A 
ATOM      4  C   UNL     1       7.742   5.038  12.869  0.00  0.00    +0.000 A 
ATOM      5  C   UNL     1       7.458   4.186  11.804  0.00  0.00    +0.000 A 
ATOM      6  C   UNL     1       6.396   3.298  11.909  0.00  0.00    +0.000 A 
ATOM      7  C   UNL     1       5.623   3.277  13.073  0.00  0.00    +0.000 A 
ATOM      8  C   UNL     1       5.890   4.130  14.138  0.00  0.00    +0.000 A 
ATOM      9  N   UNL     1       5.113   4.108  15.239  0.00  0.00    +0.000 NA
ATOM     10  C   UNL     1       5.391   4.954  16.267  0.00  0.00    +0.000 A 
ENDROOT
BRANCH  10  11
ATOM     11  N   UNL     1       4.504   4.946  17.330  0.00  0.00    +0.000 N 
ATOM     12  C   UNL     1       4.126   3.678  17.955  0.00  0.00    +0.000 C 
ATOM     13  C   UNL     1       2.606   3.514  18.002  0.00  0.00    +0.000 C 
ATOM     14  C   UNL     1       1.927   4.738  18.608  0.00  0.00    +0.000 C 
ATOM     15  C   UNL     1       2.333   5.990  17.845  0.00  0.00    +0.000 C 
ATOM     16  C   UNL     1       3.848   6.161  17.809  0.00  0.00    +0.000 C 
ENDBRANCH  10  11
BRANCH   1  17
ATOM     17  S   UNL     1       7.219   6.724  17.534  0.00  0.00    +0.000 S 
BRANCH  17  18
ATOM     18  C   UNL     1       8.032   5.413  18.485  0.00  0.00    +0.000 C 
BRANCH  18  20
ATOM     19  O   UNL     1       6.249   5.142  20.100  0.00  0.00    +0.000 OA
ATOM     20  C   UNL     1       7.445   5.261  19.870  0.00  0.00    +0.000 C 
BRANCH  20  21
ATOM     21  O   UNL     1       8.368   5.265  20.861  0.00  0.00    +0.000 OA
ATOM     22  H   UNL     1       8.288   6.070  21.424  0.00  0.00    +0.000 HD
ENDBRANCH  20  21
ENDBRANCH  18  20
ENDBRANCH  17  18
ENDBRANCH   1  17
TORSDOF 5
ENDMDL
MODEL 4
REMARK VINA RESULT:      -6.9      1.156      1.212
REMARK  Name = 
REMARK  5 active torsions:
REMARK  status: ('A' for Active; 'I' for Inactive)
REMARK    1  A    between atoms: C_2  and  O_3
REMARK    2  A    between atoms: C_2  and  C_4
REMARK    3  A    between atoms: C_4  and  S_5
REMARK    4  A    between atoms: S_5  and  C_6
REMARK    5  A    between atoms: C_15  and  N_16
REMARK                            x       y       z     vdW  Elec       q    Type
REMARK                         _______ _______ _______ _____ _____    ______ ____
ROOT
ATOM      1  C   UNL     1       6.523   4.592  16.500  0.00  0.00    +0.000 A 
ATOM      2  N   UNL     1       7.362   4.861  15.454  0.00  0.00    +0.000 NA
ATOM      3  C   UNL     1       6.923   4.532  14.229  0.00  0.00    +0.000 A 
ATOM      4  C   UNL     1       7.743   4.773  13.134  0.00  0.00    +0.000 A 
ATOM      5  C   UNL     1       7.342   4.443  11.842  0.00  0.00    +0.000 A 
ATOM      6  C   UNL     1       6.099   3.857  11.645  0.00  0.00    +0.000 A 
ATOM      7  C   UNL     1       5.266   3.615  12.741  0.00  0.00    +0.000 A 
ATOM      8  C   UNL     1       5.651   3.951  14.034  0.00  0.00    +0.000 A 
ATOM      9  N   UNL     1       4.818   3.731  15.071  0.00  0.00    +0.000 NA
ATOM     10  C   UNL     1       5.214   4.071  16.326  0.00  0.00    +0.000 A 
ENDROOT
BRANCH  10  11
ATOM     11  N   UNL     1       4.280   3.904  17.335  0.00  0.00    +0.000 N 
ATOM     12  C   UNL     1       3.986   2.563  17.842  0.00  0.00    +0.000 C 
ATOM     13  C   UNL     1       2.486   2.267  17.792  0.00  0.00    +0.000 C 
ATOM     14  C   UNL     1       1.672   3.378  18.448  0.00  0.00    +0.000 C 
ATOM     15  C   UNL     1       2.002   4.716  17.803  0.00  0.00    +0.000 C 
ATOM     16  C   UNL     1       3.496   5.017  17.865  0.00  0.00    +0.000 C 
ENDBRANCH  10  11
BRANCH   1  17
ATOM     17  S   UNL     1       7.312   4.791  18.104  0.00  0.00    +0.000 S 
BRANCH  17  18
ATOM     18  C   UNL     1       6.819   6.480  18.538  0.00  0.00    +0.000 C 
BRANCH  18  20
ATOM     19  O   UNL     1       7.813   7.992  16.931  0.00  0.00    +0.000 OA
ATOM     20  C   UNL     1       7.815   7.510  18.056  0.00  0.00    +0.000 C 
BRANCH  20  21
ATOM     21  O   UNL     1       8.729   7.868  18.988  0.00  0.00    +0.000 OA
ATOM     22  H   UNL     1       8.598   8.799  19.281  0.00  0.00    +0.000 HD
ENDBRANCH  20  21
ENDBRANCH  18  20
ENDBRANCH  17  18
ENDBRANCH   1  17
TORSDOF 5
ENDMDL
MODEL 5
REMARK VINA RESULT:      -6.9      0.678      1.294
REMARK  Name = 
REMARK  5 active torsions:
REMARK  status: ('A' for Active; 'I' for Inactive)
REMARK    1  A    between atoms: C_2  and  O_3
REMARK    2  A    between atoms: C_2  and  C_4
REMARK    3  A    between atoms: C_4  and  S_5
REMARK    4  A    between atoms: S_5  and  C_6
REMARK    5  A    between atoms: C_15  and  N_16
REMARK                            x       y       z     vdW  Elec       q    Type
REMARK                         _______ _______ _______ _____ _____    ______ ____
ROOT
ATOM      1  C   UNL     1       6.431   5.395  16.338  0.00  0.00    +0.000 A 
ATOM      2  N   UNL     1       7.267   5.581  15.273  0.00  0.00    +0.000 NA
ATOM      3  C   UNL     1       6.970   4.912  14.147  0.00  0.00    +0.000 A 
ATOM      4  C   UNL     1       7.796   5.058  13.041  0.00  0.00    +0.000 A 
ATOM      5  C   UNL     1       7.540   4.380  11.851  0.00  0.00    +0.000 A 
ATOM      6  C   UNL     1       6.440   3.537  11.772  0.00  0.00    +0.000 A 
ATOM      7  C   UNL     1       5.601   3.389  12.880  0.00  0.00    +0.000 A 
ATOM      8  C   UNL     1       5.840   4.069  14.069  0.00  0.00    +0.000 A 
ATOM      9  N   UNL     1       5.000   3.928  15.114  0.00  0.00    +0.000 NA
ATOM     10  C   UNL     1       5.252   4.606  16.266  0.00  0.00    +0.000 A 
ENDROOT
BRANCH  10  11
ATOM     11  N   UNL     1       4.306   4.490  17.270  0.00  0.00    +0.000 N 
ATOM     12  C   UNL     1       3.479   5.643  17.629  0.00  0.00    +0.000 C 
ATOM     13  C   UNL     1       3.555   5.936  19.128  0.00  0.00    +0.000 C 
ATOM     14  C   UNL     1       3.283   4.687  19.960  0.00  0.00    +0.000 C 
ATOM     15  C   UNL     1       4.239   3.575  19.557  0.00  0.00    +0.000 C 
ATOM     16  C   UNL     1       4.154   3.273  18.064  0.00  0.00    +0.000 C 
ENDBRANCH  10  11
BRANCH   1  17
ATOM     17  S   UNL     1       7.073   6.090  17.867  0.00  0.00    +0.000 S 
BRANCH  17  18
ATOM     18  C   UNL     1       7.088   7.860  17.476  0.00  0.00    +0.000 C 
BRANCH  18  20
ATOM     19  O   UNL     1       8.544   9.742  17.922  0.00  0.00    +0.000 OA
ATOM     20  C   UNL     1       8.211   8.592  18.176  0.00  0.00    +0.000 C 
BRANCH  20  21
ATOM     21  O   UNL     1       8.832   7.859  19.131  0.00  0.00    +0.000 OA
ATOM     22  H   UNL     1       9.716   7.549  18.827  0.00  0.00    +0.000 HD
ENDBRANCH  20  21
ENDBRANCH  18  20
ENDBRANCH  17  18
ENDBRANCH   1  17
TORSDOF 5
ENDMDL
MODEL 6
REMARK VINA RESULT:      -6.9      2.801      6.124
REMARK  Name = 
REMARK  5 active torsions:
REMARK  status: ('A' for Active; 'I' for Inactive)
REMARK    1  A    between atoms: C_2  and  O_3
REMARK    2  A    between atoms: C_2  and  C_4
REMARK    3  A    between atoms: C_4  and  S_5
REMARK    4  A    between atoms: S_5  and  C_6
REMARK    5  A    between atoms: C_15  and  N_16
REMARK                            x       y       z     vdW  Elec       q    Type
REMARK                         _______ _______ _______ _____ _____    ______ ____
ROOT
ATOM      1  C   UNL     1       4.611   3.941  17.037  0.00  0.00    +0.000 A 
ATOM      2  N   UNL     1       3.403   3.332  17.234  0.00  0.00    +0.000 NA
ATOM      3  C   UNL     1       2.736   3.664  18.351  0.00  0.00    +0.000 A 
ATOM      4  C   UNL     1       1.509   3.064  18.603  0.00  0.00    +0.000 A 
ATOM      5  C   UNL     1       0.778   3.363  19.750  0.00  0.00    +0.000 A 
ATOM      6  C   UNL     1       1.290   4.276  20.663  0.00  0.00    +0.000 A 
ATOM      7  C   UNL     1       2.522   4.888  20.413  0.00  0.00    +0.000 A 
ATOM      8  C   UNL     1       3.254   4.605  19.266  0.00  0.00    +0.000 A 
ATOM      9  N   UNL     1       4.427   5.229  19.036  0.00  0.00    +0.000 NA
ATOM     10  C   UNL     1       5.125   4.939  17.906  0.00  0.00    +0.000 A 
ENDROOT
BRANCH  10  11
ATOM     11  N   UNL     1       6.275   5.677  17.683  0.00  0.00    +0.000 N 
ATOM     12  C   UNL     1       7.531   5.280  18.322  0.00  0.00    +0.000 C 
ATOM     13  C   UNL     1       8.151   6.443  19.098  0.00  0.00    +0.000 C 
ATOM     14  C   UNL     1       8.254   7.700  18.240  0.00  0.00    +0.000 C 
ATOM     15  C   UNL     1       6.886   8.064  17.682  0.00  0.00    +0.000 C 
ATOM     16  C   UNL     1       6.273   6.909  16.897  0.00  0.00    +0.000 C 
ENDBRANCH  10  11
BRANCH   1  17
ATOM     17  S   UNL     1       5.551   3.218  15.684  0.00  0.00    +0.000 S 
BRANCH  17  18
ATOM     18  C   UNL     1       5.491   4.550  14.455  0.00  0.00    +0.000 C 
BRANCH  18  20
ATOM     19  O   UNL     1       6.881   4.007  12.549  0.00  0.00    +0.000 OA
ATOM     20  C   UNL     1       6.742   4.604  13.609  0.00  0.00    +0.000 C 
BRANCH  20  21
ATOM     21  O   UNL     1       7.720   5.386  14.124  0.00  0.00    +0.000 OA
ATOM     22  H   UNL     1       8.505   4.853  14.390  0.00  0.00    +0.000 HD
ENDBRANCH  20  21
ENDBRANCH  18  20
ENDBRANCH  17  18
ENDBRANCH   1  17
TORSDOF 5
ENDMDL
MODEL 7
REMARK VINA RESULT:      -6.9      3.354      4.231
REMARK  Name = 
REMARK  5 active torsions:
REMARK  status: ('A' for Active; 'I' for Inactive)
REMARK    1  A    between atoms: C_2  and  O_3
REMARK    2  A    between atoms: C_2  and  C_4
REMARK    3  A    between atoms: C_4  and  S_5
REMARK    4  A    between atoms: S_5  and  C_6
REMARK    5  A    between atoms: C_15  and  N_16
REMARK                            x       y       z     vdW  Elec       q    Type
REMARK                         _______ _______ _______ _____ _____    ______ ____
ROOT
ATOM      1  C   UNL     1       3.440   5.460  18.045  0.00  0.00    +0.000 A 
ATOM      2  N   UNL     1       4.081   6.147  17.051  0.00  0.00    +0.000 NA
ATOM      3  C   UNL     1       4.893   5.435  16.253  0.00  0.00    +0.000 A 
ATOM      4  C   UNL     1       5.576   6.089  15.236  0.00  0.00    +0.000 A 
ATOM      5  C   UNL     1       6.439   5.402  14.385  0.00  0.00    +0.000 A 
ATOM      6  C   UNL     1       6.623   4.037  14.561  0.00  0.00    +0.000 A 
ATOM      7  C   UNL     1       5.935   3.372  15.580  0.00  0.00    +0.000 A 
ATOM      8  C   UNL     1       5.063   4.045  16.428  0.00  0.00    +0.000 A 
ATOM      9  N   UNL     1       4.392   3.374  17.385  0.00  0.00    +0.000 NA
ATOM     10  C   UNL     1       3.541   4.053  18.201  0.00  0.00    +0.000 A 
ENDROOT
BRANCH  10  11
ATOM     11  N   UNL     1       2.815   3.295  19.104  0.00  0.00    +0.000 N 
ATOM     12  C   UNL     1       1.377   3.109  18.909  0.00  0.00    +0.000 C 
ATOM     13  C   UNL     1       0.591   3.506  20.161  0.00  0.00    +0.000 C 
ATOM     14  C   UNL     1       1.147   2.831  21.411  0.00  0.00    +0.000 C 
ATOM     15  C   UNL     1       2.629   3.142  21.556  0.00  0.00    +0.000 C 
ATOM     16  C   UNL     1       3.414   2.734  20.313  0.00  0.00    +0.000 C 
ENDBRANCH  10  11
BRANCH   1  17
ATOM     17  S   UNL     1       2.619   6.538  19.228  0.00  0.00    +0.000 S 
BRANCH  17  18
ATOM     18  C   UNL     1       2.538   8.092  18.299  0.00  0.00    +0.000 C 
BRANCH  18  20
ATOM     19  O   UNL     1       1.079   9.047  19.978  0.00  0.00    +0.000 OA
ATOM     20  C   UNL     1       1.453   9.011  18.813  0.00  0.00    +0.000 C 
BRANCH  20  21
ATOM     21  O   UNL     1       0.916   9.811  17.863  0.00  0.00    +0.000 OA
ATOM     22  H   UNL     1       0.324   9.306  17.259  0.00  0.00    +0.000 HD
ENDBRANCH  20  21
ENDBRANCH  18  20
ENDBRANCH  17  18
ENDBRANCH   1  17
TORSDOF 5
ENDMDL
MODEL 8
REMARK VINA RESULT:      -6.8      3.897      7.020
REMARK  Name = 
REMARK  5 active torsions:
REMARK  status: ('A' for Active; 'I' for Inactive)
REMARK    1  A    between atoms: C_2  and  O_3
REMARK    2  A    between atoms: C_2  and  C_4
REMARK    3  A    between atoms: C_4  and  S_5
REMARK    4  A    between atoms: S_5  and  C_6
REMARK    5  A    between atoms: C_15  and  N_16
REMARK                            x       y       z     vdW  Elec       q    Type
REMARK                         _______ _______ _______ _____ _____    ______ ____
ROOT
ATOM      1  C   UNL     1       3.562   5.178  19.245  0.00  0.00    +0.000 A 
ATOM      2  N   UNL     1       2.617   5.898  19.921  0.00  0.00    +0.000 NA
ATOM      3  C   UNL     1       2.312   7.108  19.426  0.00  0.00    +0.000 A 
ATOM      4  C   UNL     1       1.367   7.884  20.083  0.00  0.00    +0.000 A 
ATOM      5  C   UNL     1       1.020   9.151  19.619  0.00  0.00    +0.000 A 
ATOM      6  C   UNL     1       1.635   9.649  18.478  0.00  0.00    +0.000 A 
ATOM      7  C   UNL     1       2.584   8.871  17.808  0.00  0.00    +0.000 A 
ATOM      8  C   UNL     1       2.930   7.601  18.256  0.00  0.00    +0.000 A 
ATOM      9  N   UNL     1       3.829   6.862  17.576  0.00  0.00    +0.000 NA
ATOM     10  C   UNL     1       4.150   5.621  18.031  0.00  0.00    +0.000 A 
ENDROOT
BRANCH  10  11
ATOM     11  N   UNL     1       5.009   4.877  17.241  0.00  0.00    +0.000 N 
ATOM     12  C   UNL     1       6.455   4.962  17.456  0.00  0.00    +0.000 C 
ATOM     13  C   UNL     1       7.189   5.307  16.159  0.00  0.00    +0.000 C 
ATOM     14  C   UNL     1       6.779   4.382  15.017  0.00  0.00    +0.000 C 
ATOM     15  C   UNL     1       5.269   4.419  14.834  0.00  0.00    +0.000 C 
ATOM     16  C   UNL     1       4.537   4.063  16.123  0.00  0.00    +0.000 C 
ENDBRANCH  10  11
BRANCH   1  17
ATOM     17  S   UNL     1       4.110   3.718  20.143  0.00  0.00    +0.000 S 
BRANCH  17  18
ATOM     18  C   UNL     1       2.691   2.611  19.924  0.00  0.00    +0.000 C 
BRANCH  18  20
ATOM     19  O   UNL     1       1.672   2.449  22.114  0.00  0.00    +0.000 OA
ATOM     20  C   UNL     1       1.614   2.848  20.958  0.00  0.00    +0.000 C 
BRANCH  20  21
ATOM     21  O   UNL     1       0.557   3.556  20.496  0.00  0.00    +0.000 OA
ATOM     22  H   UNL     1       0.244   3.212  19.628  0.00  0.00    +0.000 HD
ENDBRANCH  20  21
ENDBRANCH  18  20
ENDBRANCH  17  18
ENDBRANCH   1  17
TORSDOF 5
ENDMDL
MODEL 9
REMARK VINA RESULT:      -6.7      3.288      4.334
REMARK  Name = 
REMARK  5 active torsions:
REMARK  status: ('A' for Active; 'I' for Inactive)
REMARK    1  A    between atoms: C_2  and  O_3
REMARK    2  A    between atoms: C_2  and  C_4
REMARK    3  A    between atoms: C_4  and  S_5
REMARK    4  A    between atoms: S_5  and  C_6
REMARK    5  A    between atoms: C_15  and  N_16
REMARK                            x       y       z     vdW  Elec       q    Type
REMARK                         _______ _______ _______ _____ _____    ______ ____
ROOT
ATOM      1  C   UNL     1       3.130   6.335  18.153  0.00  0.00    +0.000 A 
ATOM      2  N   UNL     1       3.927   6.774  17.132  0.00  0.00    +0.000 NA
ATOM      3  C   UNL     1       4.699   5.855  16.531  0.00  0.00    +0.000 A 
ATOM      4  C   UNL     1       5.534   6.253  15.496  0.00  0.00    +0.000 A 
ATOM      5  C   UNL     1       6.363   5.343  14.843  0.00  0.00    +0.000 A 
ATOM      6  C   UNL     1       6.357   4.013  15.240  0.00  0.00    +0.000 A 
ATOM      7  C   UNL     1       5.515   3.604  16.278  0.00  0.00    +0.000 A 
ATOM      8  C   UNL     1       4.675   4.500  16.929  0.00  0.00    +0.000 A 
ATOM      9  N   UNL     1       3.854   4.075  17.909  0.00  0.00    +0.000 NA
ATOM     10  C   UNL     1       3.039   4.969  18.529  0.00  0.00    +0.000 A 
ENDROOT
BRANCH  10  11
ATOM     11  N   UNL     1       2.155   4.456  19.463  0.00  0.00    +0.000 N 
ATOM     12  C   UNL     1       2.302   4.808  20.876  0.00  0.00    +0.000 C 
ATOM     13  C   UNL     1       2.375   3.558  21.755  0.00  0.00    +0.000 C 
ATOM     14  C   UNL     1       1.225   2.599  21.465  0.00  0.00    +0.000 C 
ATOM     15  C   UNL     1       1.204   2.244  19.986  0.00  0.00    +0.000 C 
ATOM     16  C   UNL     1       1.118   3.489  19.109  0.00  0.00    +0.000 C 
ENDBRANCH  10  11
BRANCH   1  17
ATOM     17  S   UNL     1       2.369   7.677  19.078  0.00  0.00    +0.000 S 
BRANCH  17  18
ATOM     18  C   UNL     1       1.775   8.743  17.737  0.00  0.00    +0.000 C 
BRANCH  18  20
ATOM     19  O   UNL     1       0.863  10.515  19.111  0.00  0.00    +0.000 OA
ATOM     20  C   UNL     1       1.587  10.175  18.184  0.00  0.00    +0.000 C 
BRANCH  20  21
ATOM     21  O   UNL     1       2.301  11.073  17.465  0.00  0.00    +0.000 OA
ATOM     22  H   UNL     1       2.463  10.751  16.548  0.00  0.00    +0.000 HD
ENDBRANCH  20  21
ENDBRANCH  18  20
ENDBRANCH  17  18
ENDBRANCH   1  17
TORSDOF 5
ENDMDL
