MODEL 1
REMARK VINA RESULT:      -7.9      0.000      0.000
REMARK  Name = 
REMARK  7 active torsions:
REMARK  status: ('A' for Active; 'I' for Inactive)
REMARK    1  A    between atoms: C_1  and  O_2
REMARK    2  A    between atoms: O_2  and  C_3
REMARK    3  A    between atoms: C_3  and  C_4
REMARK    4  A    between atoms: C_9  and  C_10
REMARK    5  A    between atoms: C_15  and  C_16
REMARK    6  A    between atoms: C_19  and  O_20
REMARK    7  A    between atoms: O_20  and  C_21
REMARK                            x       y       z     vdW  Elec       q    Type
REMARK                         _______ _______ _______ _____ _____    ______ ____
ROOT
ATOM      1  C   UNL     1       4.307   4.948  17.674  0.00  0.00    +0.000 C 
ATOM      2  C   UNL     1       4.254   3.963  18.581  0.00  0.00    +0.000 C 
ATOM      3  C   UNL     1       3.317   4.051  19.729  0.00  0.00    +0.000 C 
ATOM      4  O   UNL     1       3.239   3.105  20.508  0.00  0.00    +0.000 OA
ATOM      5  C   UNL     1       2.441   5.276  19.863  0.00  0.00    +0.000 C 
ATOM      6  C   UNL     1       3.067   6.508  19.198  0.00  0.00    +0.000 C 
ATOM      7  C   UNL     1       3.476   6.201  17.745  0.00  0.00    +0.000 C 
ENDROOT
BRANCH   1  13
ATOM      8  C   UNL     1       6.473   5.565  16.532  0.00  0.00    +0.000 A 
ATOM      9  C   UNL     1       7.322   5.406  15.421  0.00  0.00    +0.000 A 
ATOM     10  C   UNL     1       6.982   4.558  14.367  0.00  0.00    +0.000 A 
ATOM     11  C   UNL     1       5.785   3.851  14.401  0.00  0.00    +0.000 A 
ATOM     12  C   UNL     1       4.926   3.997  15.490  0.00  0.00    +0.000 A 
ATOM     13  C   UNL     1       5.257   4.849  16.556  0.00  0.00    +0.000 A 
BRANCH   8  14
ATOM     14  C   UNL     1       6.920   6.465  17.661  0.00  0.00    +0.000 C 
BRANCH  14  16
ATOM     15  C   UNL     1       8.103   8.484  17.887  0.00  0.00    +0.000 C 
ATOM     16  O   UNL     1       7.070   7.803  17.187  0.00  0.00    +0.000 OA
ENDBRANCH  14  16
ENDBRANCH   8  14
ENDBRANCH   1  13
BRANCH   6  17
ATOM     17  C   UNL     1       2.142   7.710  19.289  0.00  0.00    +0.000 A 
ATOM     18  C   UNL     1       1.898   8.499  18.158  0.00  0.00    +0.000 A 
ATOM     19  C   UNL     1       1.101   9.643  18.251  0.00  0.00    +0.000 A 
ATOM     20  C   UNL     1       0.515  10.007  19.464  0.00  0.00    +0.000 A 
ATOM     21  C   UNL     1       0.739   9.219  20.591  0.00  0.00    +0.000 A 
ATOM     22  C   UNL     1       1.542   8.077  20.501  0.00  0.00    +0.000 A 
BRANCH  20  23
ATOM     23  O   UNL     1      -0.211  11.165  19.440  0.00  0.00    +0.000 OA
ATOM     24  C   UNL     1      -1.390  11.145  18.645  0.00  0.00    +0.000 C 
ENDBRANCH  20  23
ENDBRANCH   6  17
TORSDOF 5
ENDMDL
MODEL 2
REMARK VINA RESULT:      -7.9      0.505      1.103
REMARK  Name = 
REMARK  7 active torsions:
REMARK  status: ('A' for Active; 'I' for Inactive)
REMARK    1  A    between atoms: C_1  and  O_2
REMARK    2  A    between atoms: O_2  and  C_3
REMARK    3  A    between atoms: C_3  and  C_4
REMARK    4  A    between atoms: C_9  and  C_10
REMARK    5  A    between atoms: C_15  and  C_16
REMARK    6  A    between atoms: C_19  and  O_20
REMARK    7  A    between atoms: O_20  and  C_21
REMARK                            x       y       z     vdW  Elec       q    Type
REMARK                         _______ _______ _______ _____ _____    ______ ____
ROOT
ATOM      1  C   UNL     1       4.447   4.855  17.220  0.00  0.00    +0.000 C 
ATOM      2  C   UNL     1       4.396   3.851  18.106  0.00  0.00    +0.000 C 
ATOM      3  C   UNL     1       3.506   3.940  19.290  0.00  0.00    +0.000 C 
ATOM      4  O   UNL     1       3.426   2.979  20.049  0.00  0.00    +0.000 OA
ATOM      5  C   UNL     1       2.674   5.189  19.485  0.00  0.00    +0.000 C 
ATOM      6  C   UNL     1       3.315   6.416  18.825  0.00  0.00    +0.000 C 
ATOM      7  C   UNL     1       3.660   6.132  17.351  0.00  0.00    +0.000 C 
ENDROOT
BRANCH   1  13
ATOM      8  C   UNL     1       6.621   5.368  16.043  0.00  0.00    +0.000 A 
ATOM      9  C   UNL     1       7.420   5.216  14.895  0.00  0.00    +0.000 A 
ATOM     10  C   UNL     1       6.980   4.469  13.802  0.00  0.00    +0.000 A 
ATOM     11  C   UNL     1       5.729   3.860  13.834  0.00  0.00    +0.000 A 
ATOM     12  C   UNL     1       4.919   4.003  14.960  0.00  0.00    +0.000 A 
ATOM     13  C   UNL     1       5.352   4.753  16.065  0.00  0.00    +0.000 A 
BRANCH   8  14
ATOM     14  C   UNL     1       7.176   6.153  17.210  0.00  0.00    +0.000 C 
BRANCH  14  16
ATOM     15  C   UNL     1       7.906   8.317  17.771  0.00  0.00    +0.000 C 
ATOM     16  O   UNL     1       7.811   7.341  16.740  0.00  0.00    +0.000 OA
ENDBRANCH  14  16
ENDBRANCH   8  14
ENDBRANCH   1  13
BRANCH   6  17
ATOM     17  C   UNL     1       2.433   7.644  18.978  0.00  0.00    +0.000 A 
ATOM     18  C   UNL     1       1.788   7.901  20.194  0.00  0.00    +0.000 A 
ATOM     19  C   UNL     1       0.924   8.992  20.320  0.00  0.00    +0.000 A 
ATOM     20  C   UNL     1       0.707   9.858  19.247  0.00  0.00    +0.000 A 
ATOM     21  C   UNL     1       1.358   9.619  18.039  0.00  0.00    +0.000 A 
ATOM     22  C   UNL     1       2.218   8.524  17.908  0.00  0.00    +0.000 A 
BRANCH  20  23
ATOM     23  O   UNL     1      -0.188  10.865  19.478  0.00  0.00    +0.000 OA
ATOM     24  C   UNL     1      -1.483  10.688  18.920  0.00  0.00    +0.000 C 
ENDBRANCH  20  23
ENDBRANCH   6  17
TORSDOF 5
ENDMDL
MODEL 3
REMARK VINA RESULT:      -7.6      1.126      1.524
REMARK  Name = 
REMARK  7 active torsions:
REMARK  status: ('A' for Active; 'I' for Inactive)
REMARK    1  A    between atoms: C_1  and  O_2
REMARK    2  A    between atoms: O_2  and  C_3
REMARK    3  A    between atoms: C_3  and  C_4
REMARK    4  A    between atoms: C_9  and  C_10
REMARK    5  A    between atoms: C_15  and  C_16
REMARK    6  A    between atoms: C_19  and  O_20
REMARK    7  A    between atoms: O_20  and  C_21
REMARK                            x       y       z     vdW  Elec       q    Type
REMARK                         _______ _______ _______ _____ _____    ______ ____
ROOT
ATOM      1  C   UNL     1       3.939   4.898  18.488  0.00  0.00    +0.000 C 
ATOM      2  C   UNL     1       3.686   3.973  19.425  0.00  0.00    +0.000 C 
ATOM      3  C   UNL     1       2.633   4.208  20.444  0.00  0.00    +0.000 C 
ATOM      4  O   UNL     1       2.374   3.317  21.248  0.00  0.00    +0.000 OA
ATOM      5  C   UNL     1       1.867   5.512  20.415  0.00  0.00    +0.000 C 
ATOM      6  C   UNL     1       2.683   6.644  19.778  0.00  0.00    +0.000 C 
ATOM      7  C   UNL     1       3.228   6.222  18.402  0.00  0.00    +0.000 C 
ENDROOT
BRANCH   1  13
ATOM      8  C   UNL     1       6.354   4.966  17.751  0.00  0.00    +0.000 A 
ATOM      9  C   UNL     1       7.302   4.695  16.748  0.00  0.00    +0.000 A 
ATOM     10  C   UNL     1       6.924   4.122  15.533  0.00  0.00    +0.000 A 
ATOM     11  C   UNL     1       5.590   3.810  15.296  0.00  0.00    +0.000 A 
ATOM     12  C   UNL     1       4.633   4.075  16.275  0.00  0.00    +0.000 A 
ATOM     13  C   UNL     1       5.001   4.653  17.501  0.00  0.00    +0.000 A 
BRANCH   8  14
ATOM     14  C   UNL     1       6.834   5.546  19.063  0.00  0.00    +0.000 C 
BRANCH  14  16
ATOM     15  C   UNL     1       8.103   7.441  18.490  0.00  0.00    +0.000 C 
ATOM     16  O   UNL     1       8.148   6.081  18.905  0.00  0.00    +0.000 OA
ENDBRANCH  14  16
ENDBRANCH   8  14
ENDBRANCH   1  13
BRANCH   6  17
ATOM     17  C   UNL     1       1.872   7.927  19.702  0.00  0.00    +0.000 A 
ATOM     18  C   UNL     1       1.178   8.390  20.826  0.00  0.00    +0.000 A 
ATOM     19  C   UNL     1       0.378   9.534  20.742  0.00  0.00    +0.000 A 
ATOM     20  C   UNL     1       0.275  10.247  19.547  0.00  0.00    +0.000 A 
ATOM     21  C   UNL     1       0.975   9.802  18.428  0.00  0.00    +0.000 A 
ATOM     22  C   UNL     1       1.770   8.654  18.507  0.00  0.00    +0.000 A 
BRANCH  20  23
ATOM     23  O   UNL     1      -0.567  11.324  19.578  0.00  0.00    +0.000 OA
ATOM     24  C   UNL     1      -0.019  12.527  20.102  0.00  0.00    +0.000 C 
ENDBRANCH  20  23
ENDBRANCH   6  17
TORSDOF 5
ENDMDL
MODEL 4
REMARK VINA RESULT:      -7.3      1.944      3.152
REMARK  Name = 
REMARK  7 active torsions:
REMARK  status: ('A' for Active; 'I' for Inactive)
REMARK    1  A    between atoms: C_1  and  O_2
REMARK    2  A    between atoms: O_2  and  C_3
REMARK    3  A    between atoms: C_3  and  C_4
REMARK    4  A    between atoms: C_9  and  C_10
REMARK    5  A    between atoms: C_15  and  C_16
REMARK    6  A    between atoms: C_19  and  O_20
REMARK    7  A    between atoms: O_20  and  C_21
REMARK                            x       y       z     vdW  Elec       q    Type
REMARK                         _______ _______ _______ _____ _____    ______ ____
ROOT
ATOM      1  C   UNL     1       3.925   5.260  19.344  0.00  0.00    +0.000 C 
ATOM      2  C   UNL     1       3.509   4.354  20.239  0.00  0.00    +0.000 C 
ATOM      3  C   UNL     1       2.246   4.566  20.989  0.00  0.00    +0.000 C 
ATOM      4  O   UNL     1       1.852   3.689  21.752  0.00  0.00    +0.000 OA
ATOM      5  C   UNL     1       1.452   5.828  20.737  0.00  0.00    +0.000 C 
ATOM      6  C   UNL     1       2.340   6.980  20.250  0.00  0.00    +0.000 C 
ATOM      7  C   UNL     1       3.196   6.544  19.047  0.00  0.00    +0.000 C 
ENDROOT
BRANCH   1  13
ATOM      8  C   UNL     1       5.260   4.298  17.428  0.00  0.00    +0.000 A 
ATOM      9  C   UNL     1       6.514   4.139  16.810  0.00  0.00    +0.000 A 
ATOM     10  C   UNL     1       7.666   4.703  17.359  0.00  0.00    +0.000 A 
ATOM     11  C   UNL     1       7.588   5.436  18.538  0.00  0.00    +0.000 A 
ATOM     12  C   UNL     1       6.356   5.602  19.170  0.00  0.00    +0.000 A 
ATOM     13  C   UNL     1       5.190   5.038  18.627  0.00  0.00    +0.000 A 
BRANCH   8  14
ATOM     14  C   UNL     1       4.043   3.700  16.758  0.00  0.00    +0.000 C 
BRANCH  14  16
ATOM     15  C   UNL     1       2.394   2.286  17.657  0.00  0.00    +0.000 C 
ATOM     16  O   UNL     1       3.767   2.413  17.310  0.00  0.00    +0.000 OA
ENDBRANCH  14  16
ENDBRANCH   8  14
ENDBRANCH   1  13
BRANCH   6  17
ATOM     17  C   UNL     1       1.513   8.218  19.943  0.00  0.00    +0.000 A 
ATOM     18  C   UNL     1       0.646   8.744  20.908  0.00  0.00    +0.000 A 
ATOM     19  C   UNL     1      -0.165   9.842  20.608  0.00  0.00    +0.000 A 
ATOM     20  C   UNL     1      -0.109  10.448  19.352  0.00  0.00    +0.000 A 
ATOM     21  C   UNL     1       0.763   9.941  18.391  0.00  0.00    +0.000 A 
ATOM     22  C   UNL     1       1.570   8.838  18.687  0.00  0.00    +0.000 A 
BRANCH  20  23
ATOM     23  O   UNL     1      -0.976  11.488  19.165  0.00  0.00    +0.000 OA
ATOM     24  C   UNL     1      -1.735  11.457  17.963  0.00  0.00    +0.000 C 
ENDBRANCH  20  23
ENDBRANCH   6  17
TORSDOF 5
ENDMDL
MODEL 5
REMARK VINA RESULT:      -7.2      1.989      3.051
REMARK  Name = 
REMARK  7 active torsions:
REMARK  status: ('A' for Active; 'I' for Inactive)
REMARK    1  A    between atoms: C_1  and  O_2
REMARK    2  A    between atoms: O_2  and  C_3
REMARK    3  A    between atoms: C_3  and  C_4
REMARK    4  A    between atoms: C_9  and  C_10
REMARK    5  A    between atoms: C_15  and  C_16
REMARK    6  A    between atoms: C_19  and  O_20
REMARK    7  A    between atoms: O_20  and  C_21
REMARK                            x       y       z     vdW  Elec       q    Type
REMARK                         _______ _______ _______ _____ _____    ______ ____
ROOT
ATOM      1  C   UNL     1       3.902   5.196  19.414  0.00  0.00    +0.000 C 
ATOM      2  C   UNL     1       3.496   4.256  20.278  0.00  0.00    +0.000 C 
ATOM      3  C   UNL     1       2.235   4.433  21.041  0.00  0.00    +0.000 C 
ATOM      4  O   UNL     1       1.850   3.527  21.773  0.00  0.00    +0.000 OA
ATOM      5  C   UNL     1       1.432   5.699  20.838  0.00  0.00    +0.000 C 
ATOM      6  C   UNL     1       2.312   6.873  20.390  0.00  0.00    +0.000 C 
ATOM      7  C   UNL     1       3.165   6.486  19.168  0.00  0.00    +0.000 C 
ENDROOT
BRANCH   1  13
ATOM      8  C   UNL     1       5.236   4.297  17.468  0.00  0.00    +0.000 A 
ATOM      9  C   UNL     1       6.488   4.169  16.838  0.00  0.00    +0.000 A 
ATOM     10  C   UNL     1       7.637   4.735  17.392  0.00  0.00    +0.000 A 
ATOM     11  C   UNL     1       7.557   5.439  18.589  0.00  0.00    +0.000 A 
ATOM     12  C   UNL     1       6.328   5.574  19.232  0.00  0.00    +0.000 A 
ATOM     13  C   UNL     1       5.165   5.008  18.684  0.00  0.00    +0.000 A 
BRANCH   8  14
ATOM     14  C   UNL     1       4.023   3.699  16.792  0.00  0.00    +0.000 C 
BRANCH  14  16
ATOM     15  C   UNL     1       2.385   2.254  17.664  0.00  0.00    +0.000 C 
ATOM     16  O   UNL     1       3.759   2.402  17.326  0.00  0.00    +0.000 OA
ENDBRANCH  14  16
ENDBRANCH   8  14
ENDBRANCH   1  13
BRANCH   6  17
ATOM     17  C   UNL     1       1.476   8.116  20.131  0.00  0.00    +0.000 A 
ATOM     18  C   UNL     1       1.610   8.817  18.926  0.00  0.00    +0.000 A 
ATOM     19  C   UNL     1       0.892   9.997  18.711  0.00  0.00    +0.000 A 
ATOM     20  C   UNL     1       0.015  10.485  19.679  0.00  0.00    +0.000 A 
ATOM     21  C   UNL     1      -0.136   9.786  20.874  0.00  0.00    +0.000 A 
ATOM     22  C   UNL     1       0.585   8.608  21.095  0.00  0.00    +0.000 A 
BRANCH  20  23
ATOM     23  O   UNL     1      -0.599  11.667  19.370  0.00  0.00    +0.000 OA
ATOM     24  C   UNL     1       0.193  12.616  18.667  0.00  0.00    +0.000 C 
ENDBRANCH  20  23
ENDBRANCH   6  17
TORSDOF 5
ENDMDL
MODEL 6
REMARK VINA RESULT:      -7.1      1.787      2.939
REMARK  Name = 
REMARK  7 active torsions:
REMARK  status: ('A' for Active; 'I' for Inactive)
REMARK    1  A    between atoms: C_1  and  O_2
REMARK    2  A    between atoms: O_2  and  C_3
REMARK    3  A    between atoms: C_3  and  C_4
REMARK    4  A    between atoms: C_9  and  C_10
REMARK    5  A    between atoms: C_15  and  C_16
REMARK    6  A    between atoms: C_19  and  O_20
REMARK    7  A    between atoms: O_20  and  C_21
REMARK                            x       y       z     vdW  Elec       q    Type
REMARK                         _______ _______ _______ _____ _____    ______ ____
ROOT
ATOM      1  C   UNL     1       3.649   5.676  18.758  0.00  0.00    +0.000 C 
ATOM      2  C   UNL     1       3.464   4.811  19.764  0.00  0.00    +0.000 C 
ATOM      3  C   UNL     1       2.393   5.042  20.765  0.00  0.00    +0.000 C 
ATOM      4  O   UNL     1       2.199   4.200  21.636  0.00  0.00    +0.000 OA
ATOM      5  C   UNL     1       1.531   6.279  20.637  0.00  0.00    +0.000 C 
ATOM      6  C   UNL     1       2.260   7.417  19.913  0.00  0.00    +0.000 C 
ATOM      7  C   UNL     1       2.840   6.932  18.571  0.00  0.00    +0.000 C 
ENDROOT
BRANCH   1  13
ATOM      8  C   UNL     1       4.693   4.371  16.865  0.00  0.00    +0.000 A 
ATOM      9  C   UNL     1       5.772   4.220  15.973  0.00  0.00    +0.000 A 
ATOM     10  C   UNL     1       6.852   5.103  15.991  0.00  0.00    +0.000 A 
ATOM     11  C   UNL     1       6.877   6.154  16.901  0.00  0.00    +0.000 A 
ATOM     12  C   UNL     1       5.821   6.319  17.797  0.00  0.00    +0.000 A 
ATOM     13  C   UNL     1       4.729   5.436  17.789  0.00  0.00    +0.000 A 
BRANCH   8  14
ATOM     14  C   UNL     1       3.532   3.408  16.764  0.00  0.00    +0.000 C 
BRANCH  14  16
ATOM     15  C   UNL     1       2.609   1.821  18.234  0.00  0.00    +0.000 C 
ATOM     16  O   UNL     1       3.787   2.254  17.564  0.00  0.00    +0.000 OA
ENDBRANCH  14  16
ENDBRANCH   8  14
ENDBRANCH   1  13
BRANCH   6  17
ATOM     17  C   UNL     1       1.354   8.625  19.739  0.00  0.00    +0.000 A 
ATOM     18  C   UNL     1       1.330   9.319  18.524  0.00  0.00    +0.000 A 
ATOM     19  C   UNL     1       0.549  10.470  18.381  0.00  0.00    +0.000 A 
ATOM     20  C   UNL     1      -0.237  10.934  19.436  0.00  0.00    +0.000 A 
ATOM     21  C   UNL     1      -0.232  10.240  20.644  0.00  0.00    +0.000 A 
ATOM     22  C   UNL     1       0.554   9.093  20.791  0.00  0.00    +0.000 A 
BRANCH  20  23
ATOM     23  O   UNL     1      -0.926  12.089  19.189  0.00  0.00    +0.000 OA
ATOM     24  C   UNL     1      -2.245  12.153  19.718  0.00  0.00    +0.000 C 
ENDBRANCH  20  23
ENDBRANCH   6  17
TORSDOF 5
ENDMDL
MODEL 7
REMARK VINA RESULT:      -7.0      2.606      4.735
REMARK  Name = 
REMARK  7 active torsions:
REMARK  status: ('A' for Active; 'I' for Inactive)
REMARK    1  A    between atoms: C_1  and  O_2
REMARK    2  A    between atoms: O_2  and  C_3
REMARK    3  A    between atoms: C_3  and  C_4
REMARK    4  A    between atoms: C_9  and  C_10
REMARK    5  A    between atoms: C_15  and  C_16
REMARK    6  A    between atoms: C_19  and  O_20
REMARK    7  A    between atoms: O_20  and  C_21
REMARK                            x       y       z     vdW  Elec       q    Type
REMARK                         _______ _______ _______ _____ _____    ______ ____
ROOT
ATOM      1  C   UNL     1       2.270   6.487  19.714  0.00  0.00    +0.000 C 
ATOM      2  C   UNL     1       2.649   6.879  18.490  0.00  0.00    +0.000 C 
ATOM      3  C   UNL     1       2.415   8.275  18.044  0.00  0.00    +0.000 C 
ATOM      4  O   UNL     1       2.832   8.627  16.945  0.00  0.00    +0.000 OA
ATOM      5  C   UNL     1       1.728   9.236  18.988  0.00  0.00    +0.000 C 
ATOM      6  C   UNL     1       0.814   8.512  19.984  0.00  0.00    +0.000 C 
ATOM      7  C   UNL     1       1.572   7.381  20.704  0.00  0.00    +0.000 C 
ENDROOT
BRANCH   1  13
ATOM      8  C   UNL     1       3.632   4.360  19.729  0.00  0.00    +0.000 A 
ATOM      9  C   UNL     1       3.763   3.032  20.174  0.00  0.00    +0.000 A 
ATOM     10  C   UNL     1       2.800   2.447  20.996  0.00  0.00    +0.000 A 
ATOM     11  C   UNL     1       1.684   3.178  21.389  0.00  0.00    +0.000 A 
ATOM     12  C   UNL     1       1.531   4.494  20.955  0.00  0.00    +0.000 A 
ATOM     13  C   UNL     1       2.494   5.093  20.126  0.00  0.00    +0.000 A 
BRANCH   8  14
ATOM     14  C   UNL     1       4.734   4.949  18.877  0.00  0.00    +0.000 C 
BRANCH  14  16
ATOM     15  C   UNL     1       6.978   5.622  19.075  0.00  0.00    +0.000 C 
ATOM     16  O   UNL     1       6.005   4.657  19.456  0.00  0.00    +0.000 OA
ENDBRANCH  14  16
ENDBRANCH   8  14
ENDBRANCH   1  13
BRANCH   6  17
ATOM     17  C   UNL     1       0.184   9.490  20.962  0.00  0.00    +0.000 A 
ATOM     18  C   UNL     1       0.014  10.832  20.605  0.00  0.00    +0.000 A 
ATOM     19  C   UNL     1      -0.504  11.749  21.524  0.00  0.00    +0.000 A 
ATOM     20  C   UNL     1      -0.882  11.340  22.804  0.00  0.00    +0.000 A 
ATOM     21  C   UNL     1      -0.731  10.002  23.162  0.00  0.00    +0.000 A 
ATOM     22  C   UNL     1      -0.207   9.085  22.246  0.00  0.00    +0.000 A 
BRANCH  20  23
ATOM     23  O   UNL     1      -1.338  12.333  23.625  0.00  0.00    +0.000 OA
ATOM     24  C   UNL     1      -1.173  13.662  23.146  0.00  0.00    +0.000 C 
ENDBRANCH  20  23
ENDBRANCH   6  17
TORSDOF 5
ENDMDL
MODEL 8
REMARK VINA RESULT:      -7.0      2.660      4.794
REMARK  Name = 
REMARK  7 active torsions:
REMARK  status: ('A' for Active; 'I' for Inactive)
REMARK    1  A    between atoms: C_1  and  O_2
REMARK    2  A    between atoms: O_2  and  C_3
REMARK    3  A    between atoms: C_3  and  C_4
REMARK    4  A    between atoms: C_9  and  C_10
REMARK    5  A    between atoms: C_15  and  C_16
REMARK    6  A    between atoms: C_19  and  O_20
REMARK    7  A    between atoms: O_20  and  C_21
REMARK                            x       y       z     vdW  Elec       q    Type
REMARK                         _______ _______ _______ _____ _____    ______ ____
ROOT
ATOM      1  C   UNL     1       2.322   6.536  19.656  0.00  0.00    +0.000 C 
ATOM      2  C   UNL     1       2.683   6.907  18.420  0.00  0.00    +0.000 C 
ATOM      3  C   UNL     1       2.481   8.307  17.969  0.00  0.00    +0.000 C 
ATOM      4  O   UNL     1       2.883   8.638  16.858  0.00  0.00    +0.000 OA
ATOM      5  C   UNL     1       1.845   9.295  18.921  0.00  0.00    +0.000 C 
ATOM      6  C   UNL     1       0.934   8.606  19.943  0.00  0.00    +0.000 C 
ATOM      7  C   UNL     1       1.674   7.458  20.654  0.00  0.00    +0.000 C 
ENDROOT
BRANCH   1  13
ATOM      8  C   UNL     1       3.677   4.407  19.757  0.00  0.00    +0.000 A 
ATOM      9  C   UNL     1       3.774   3.076  20.201  0.00  0.00    +0.000 A 
ATOM     10  C   UNL     1       2.751   2.486  20.945  0.00  0.00    +0.000 A 
ATOM     11  C   UNL     1       1.609   3.216  21.259  0.00  0.00    +0.000 A 
ATOM     12  C   UNL     1       1.491   4.536  20.825  0.00  0.00    +0.000 A 
ATOM     13  C   UNL     1       2.513   5.139  20.074  0.00  0.00    +0.000 A 
BRANCH   8  14
ATOM     14  C   UNL     1       4.839   5.001  18.994  0.00  0.00    +0.000 C 
BRANCH  14  16
ATOM     15  C   UNL     1       7.100   5.624  19.166  0.00  0.00    +0.000 C 
ATOM     16  O   UNL     1       6.032   4.905  19.771  0.00  0.00    +0.000 OA
ENDBRANCH  14  16
ENDBRANCH   8  14
ENDBRANCH   1  13
BRANCH   6  17
ATOM     17  C   UNL     1       0.357   9.609  20.928  0.00  0.00    +0.000 A 
ATOM     18  C   UNL     1      -0.217   9.170  22.127  0.00  0.00    +0.000 A 
ATOM     19  C   UNL     1      -0.807  10.082  23.006  0.00  0.00    +0.000 A 
ATOM     20  C   UNL     1      -0.816  11.448  22.717  0.00  0.00    +0.000 A 
ATOM     21  C   UNL     1      -0.233  11.895  21.533  0.00  0.00    +0.000 A 
ATOM     22  C   UNL     1       0.353  10.983  20.650  0.00  0.00    +0.000 A 
BRANCH  20  23
ATOM     23  O   UNL     1      -1.456  12.236  23.632  0.00  0.00    +0.000 OA
ATOM     24  C   UNL     1      -2.872  12.303  23.514  0.00  0.00    +0.000 C 
ENDBRANCH  20  23
ENDBRANCH   6  17
TORSDOF 5
ENDMDL
MODEL 9
REMARK VINA RESULT:      -7.0      2.937      9.245
REMARK  Name = 
REMARK  7 active torsions:
REMARK  status: ('A' for Active; 'I' for Inactive)
REMARK    1  A    between atoms: C_1  and  O_2
REMARK    2  A    between atoms: O_2  and  C_3
REMARK    3  A    between atoms: C_3  and  C_4
REMARK    4  A    between atoms: C_9  and  C_10
REMARK    5  A    between atoms: C_15  and  C_16
REMARK    6  A    between atoms: C_19  and  O_20
REMARK    7  A    between atoms: O_20  and  C_21
REMARK                            x       y       z     vdW  Elec       q    Type
REMARK                         _______ _______ _______ _____ _____    ______ ____
ROOT
ATOM      1  C   UNL     1      -1.338  11.706  18.380  0.00  0.00    +0.000 C 
ATOM      2  C   UNL     1      -0.658  12.860  18.417  0.00  0.00    +0.000 C 
ATOM      3  C   UNL     1       0.821  12.855  18.546  0.00  0.00    +0.000 C 
ATOM      4  O   UNL     1       1.426  13.922  18.508  0.00  0.00    +0.000 OA
ATOM      5  C   UNL     1       1.539  11.528  18.653  0.00  0.00    +0.000 C 
ATOM      6  C   UNL     1       0.643  10.435  19.248  0.00  0.00    +0.000 C 
ATOM      7  C   UNL     1      -0.696  10.349  18.493  0.00  0.00    +0.000 C 
ENDROOT
BRANCH   1  13
ATOM      8  C   UNL     1      -3.483  11.361  17.094  0.00  0.00    +0.000 A 
ATOM      9  C   UNL     1      -4.889  11.419  17.083  0.00  0.00    +0.000 A 
ATOM     10  C   UNL     1      -5.604  11.830  18.208  0.00  0.00    +0.000 A 
ATOM     11  C   UNL     1      -4.927  12.193  19.368  0.00  0.00    +0.000 A 
ATOM     12  C   UNL     1      -3.534  12.147  19.400  0.00  0.00    +0.000 A 
ATOM     13  C   UNL     1      -2.804  11.736  18.272  0.00  0.00    +0.000 A 
BRANCH   8  14
ATOM     14  C   UNL     1      -2.771  10.864  15.857  0.00  0.00    +0.000 C 
BRANCH  14  16
ATOM     15  C   UNL     1      -3.252   9.985  13.729  0.00  0.00    +0.000 C 
ATOM     16  O   UNL     1      -3.641  10.026  15.097  0.00  0.00    +0.000 OA
ENDBRANCH  14  16
ENDBRANCH   8  14
ENDBRANCH   1  13
BRANCH   6  17
ATOM     17  C   UNL     1       1.363   9.097  19.287  0.00  0.00    +0.000 A 
ATOM     18  C   UNL     1       2.011   8.611  18.145  0.00  0.00    +0.000 A 
ATOM     19  C   UNL     1       2.618   7.352  18.157  0.00  0.00    +0.000 A 
ATOM     20  C   UNL     1       2.610   6.567  19.311  0.00  0.00    +0.000 A 
ATOM     21  C   UNL     1       1.981   7.049  20.456  0.00  0.00    +0.000 A 
ATOM     22  C   UNL     1       1.368   8.306  20.445  0.00  0.00    +0.000 A 
BRANCH  20  23
ATOM     23  O   UNL     1       3.201   5.340  19.188  0.00  0.00    +0.000 OA
ATOM     24  C   UNL     1       4.622   5.326  19.234  0.00  0.00    +0.000 C 
ENDBRANCH  20  23
ENDBRANCH   6  17
TORSDOF 5
ENDMDL
