MODEL 1
REMARK VINA RESULT:      -7.0      0.000      0.000
REMARK  Name = 
REMARK  8 active torsions:
REMARK  status: ('A' for Active; 'I' for Inactive)
REMARK    1  A    between atoms: C_2  and  C_3
REMARK    2  A    between atoms: C_7  and  S_8
REMARK    3  A    between atoms: S_8  and  C_9
REMARK    4  A    between atoms: C_9  and  C_10
REMARK    5  A    between atoms: C_10  and  O_11
REMARK    6  A    between atoms: C_12  and  C_13
REMARK    7  A    between atoms: C_15  and  C_16
REMARK    8  A    between atoms: C_20  and  O_21
REMARK                            x       y       z     vdW  Elec       q    Type
REMARK                         _______ _______ _______ _____ _____    ______ ____
ROOT
ATOM      1  C   UNL     1       2.804   4.076  18.326  0.00  0.00    +0.000 A 
ATOM      2  C   UNL     1       3.427   2.926  17.833  0.00  0.00    +0.000 A 
ATOM      3  N   UNL     1       2.944   1.642  18.062  0.00  0.00    +0.000 N 
ATOM      4  N   UNL     1       4.503   2.975  17.042  0.00  0.00    +0.000 NA
ATOM      5  C   UNL     1       5.065   4.173  16.775  0.00  0.00    +0.000 A 
ATOM      6  C   UNL     1       4.597   5.366  17.345  0.00  0.00    +0.000 A 
ATOM      7  C   UNL     1       3.396   5.354  18.107  0.00  0.00    +0.000 A 
ATOM      8  H   UNL     1       2.761   1.431  19.039  0.00  0.00    +0.000 HD
ATOM      9  H   UNL     1       3.598   0.975  17.655  0.00  0.00    +0.000 HD
ENDROOT
BRANCH   7  10
ATOM     10  C   UNL     1       2.757   6.617  18.623  0.00  0.00    +0.000 A 
ATOM     11  C   UNL     1       2.381   6.778  19.973  0.00  0.00    +0.000 A 
ATOM     12  C   UNL     1       1.705   7.920  20.429  0.00  0.00    +0.000 A 
ATOM     13  C   UNL     1       1.455   8.977  19.564  0.00  0.00    +0.000 A 
ATOM     14  C   UNL     1       1.861   8.866  18.244  0.00  0.00    +0.000 A 
ATOM     15  C   UNL     1       2.465   7.700  17.769  0.00  0.00    +0.000 A 
BRANCH  14  16
ATOM     16  O   UNL     1       1.680   9.889  17.361  0.00  0.00    +0.000 OA
ATOM     17  H   UNL     1       0.743  10.148  17.371  0.00  0.00    +0.000 HD
ENDBRANCH  14  16
ENDBRANCH   7  10
BRANCH   1  19
ATOM     18  N   UNL     1       0.604   3.684  19.650  0.00  0.00    +0.000 NA
ATOM     19  C   UNL     1       1.577   3.895  19.049  0.00  0.00    +0.000 C 
ENDBRANCH   1  19
BRANCH   6  20
ATOM     20  C   UNL     1       5.374   6.562  17.165  0.00  0.00    +0.000 C 
ATOM     21  N   UNL     1       5.998   7.529  17.024  0.00  0.00    +0.000 NA
ENDBRANCH   6  20
BRANCH   5  22
ATOM     22  S   UNL     1       6.447   4.103  15.628  0.00  0.00    +0.000 S 
BRANCH  22  23
ATOM     23  C   UNL     1       5.542   4.115  14.026  0.00  0.00    +0.000 C 
BRANCH  23  24
ATOM     24  C   UNL     1       6.469   3.768  12.863  0.00  0.00    +0.000 C 
BRANCH  24  25
ATOM     25  O   UNL     1       6.080   2.553  12.231  0.00  0.00    +0.000 OA
ATOM     26  H   UNL     1       6.056   2.733  11.273  0.00  0.00    +0.000 HD
ENDBRANCH  24  25
ENDBRANCH  23  24
ENDBRANCH  22  23
ENDBRANCH   5  22
TORSDOF 8
ENDMDL
MODEL 2
REMARK VINA RESULT:      -6.9      0.990      1.417
REMARK  Name = 
REMARK  8 active torsions:
REMARK  status: ('A' for Active; 'I' for Inactive)
REMARK    1  A    between atoms: C_2  and  C_3
REMARK    2  A    between atoms: C_7  and  S_8
REMARK    3  A    between atoms: S_8  and  C_9
REMARK    4  A    between atoms: C_9  and  C_10
REMARK    5  A    between atoms: C_10  and  O_11
REMARK    6  A    between atoms: C_12  and  C_13
REMARK    7  A    between atoms: C_15  and  C_16
REMARK    8  A    between atoms: C_20  and  O_21
REMARK                            x       y       z     vdW  Elec       q    Type
REMARK                         _______ _______ _______ _____ _____    ______ ____
ROOT
ATOM      1  C   UNL     1       2.775   4.049  18.297  0.00  0.00    +0.000 A 
ATOM      2  C   UNL     1       3.434   2.899  17.852  0.00  0.00    +0.000 A 
ATOM      3  N   UNL     1       2.984   1.612  18.124  0.00  0.00    +0.000 N 
ATOM      4  N   UNL     1       4.516   2.948  17.070  0.00  0.00    +0.000 NA
ATOM      5  C   UNL     1       5.048   4.150  16.764  0.00  0.00    +0.000 A 
ATOM      6  C   UNL     1       4.543   5.350  17.285  0.00  0.00    +0.000 A 
ATOM      7  C   UNL     1       3.334   5.333  18.036  0.00  0.00    +0.000 A 
ATOM      8  H   UNL     1       2.797   1.431  19.107  0.00  0.00    +0.000 HD
ATOM      9  H   UNL     1       3.660   0.948  17.748  0.00  0.00    +0.000 HD
ENDROOT
BRANCH   7  10
ATOM     10  C   UNL     1       2.656   6.597  18.499  0.00  0.00    +0.000 A 
ATOM     11  C   UNL     1       2.237   7.602  17.602  0.00  0.00    +0.000 A 
ATOM     12  C   UNL     1       1.688   8.815  18.044  0.00  0.00    +0.000 A 
ATOM     13  C   UNL     1       1.463   9.029  19.398  0.00  0.00    +0.000 A 
ATOM     14  C   UNL     1       1.818   8.036  20.296  0.00  0.00    +0.000 A 
ATOM     15  C   UNL     1       2.435   6.859  19.865  0.00  0.00    +0.000 A 
BRANCH  14  16
ATOM     16  O   UNL     1       1.582   8.174  21.632  0.00  0.00    +0.000 OA
ATOM     17  H   UNL     1       1.915   7.384  22.089  0.00  0.00    +0.000 HD
ENDBRANCH  14  16
ENDBRANCH   7  10
BRANCH   1  19
ATOM     18  N   UNL     1       0.588   3.681  19.649  0.00  0.00    +0.000 NA
ATOM     19  C   UNL     1       1.547   3.861  19.015  0.00  0.00    +0.000 C 
ENDBRANCH   1  19
BRANCH   6  20
ATOM     20  C   UNL     1       5.288   6.560  17.067  0.00  0.00    +0.000 C 
ATOM     21  N   UNL     1       5.893   7.533  16.889  0.00  0.00    +0.000 NA
ENDBRANCH   6  20
BRANCH   5  22
ATOM     22  S   UNL     1       6.443   4.076  15.632  0.00  0.00    +0.000 S 
BRANCH  22  23
ATOM     23  C   UNL     1       5.558   4.136  14.020  0.00  0.00    +0.000 C 
BRANCH  23  24
ATOM     24  C   UNL     1       6.480   3.745  12.867  0.00  0.00    +0.000 C 
BRANCH  24  25
ATOM     25  O   UNL     1       6.018   2.573  12.205  0.00  0.00    +0.000 OA
ATOM     26  H   UNL     1       6.102   2.743  11.248  0.00  0.00    +0.000 HD
ENDBRANCH  24  25
ENDBRANCH  23  24
ENDBRANCH  22  23
ENDBRANCH   5  22
TORSDOF 8
ENDMDL
MODEL 3
REMARK VINA RESULT:      -6.8      3.170      6.535
REMARK  Name = 
REMARK  8 active torsions:
REMARK  status: ('A' for Active; 'I' for Inactive)
REMARK    1  A    between atoms: C_2  and  C_3
REMARK    2  A    between atoms: C_7  and  S_8
REMARK    3  A    between atoms: S_8  and  C_9
REMARK    4  A    between atoms: C_9  and  C_10
REMARK    5  A    between atoms: C_10  and  O_11
REMARK    6  A    between atoms: C_12  and  C_13
REMARK    7  A    between atoms: C_15  and  C_16
REMARK    8  A    between atoms: C_20  and  O_21
REMARK                            x       y       z     vdW  Elec       q    Type
REMARK                         _______ _______ _______ _____ _____    ______ ____
ROOT
ATOM      1  C   UNL     1       3.232   4.653  19.699  0.00  0.00    +0.000 A 
ATOM      2  C   UNL     1       2.293   4.871  20.711  0.00  0.00    +0.000 A 
ATOM      3  N   UNL     1       1.947   3.905  21.649  0.00  0.00    +0.000 N 
ATOM      4  N   UNL     1       1.701   6.055  20.899  0.00  0.00    +0.000 NA
ATOM      5  C   UNL     1       1.952   7.057  20.030  0.00  0.00    +0.000 A 
ATOM      6  C   UNL     1       2.765   6.886  18.900  0.00  0.00    +0.000 A 
ATOM      7  C   UNL     1       3.485   5.670  18.733  0.00  0.00    +0.000 A 
ATOM      8  H   UNL     1       1.683   3.008  21.249  0.00  0.00    +0.000 HD
ATOM      9  H   UNL     1       1.205   4.279  22.239  0.00  0.00    +0.000 HD
ENDROOT
BRANCH   7  10
ATOM     10  C   UNL     1       4.488   5.473  17.626  0.00  0.00    +0.000 A 
ATOM     11  C   UNL     1       4.297   4.534  16.590  0.00  0.00    +0.000 A 
ATOM     12  C   UNL     1       5.274   4.292  15.613  0.00  0.00    +0.000 A 
ATOM     13  C   UNL     1       6.444   5.042  15.592  0.00  0.00    +0.000 A 
ATOM     14  C   UNL     1       6.632   6.006  16.567  0.00  0.00    +0.000 A 
ATOM     15  C   UNL     1       5.696   6.197  17.586  0.00  0.00    +0.000 A 
BRANCH  14  16
ATOM     16  O   UNL     1       7.740   6.801  16.570  0.00  0.00    +0.000 OA
ATOM     17  H   UNL     1       8.300   6.551  17.325  0.00  0.00    +0.000 HD
ENDBRANCH  14  16
ENDBRANCH   7  10
BRANCH   1  19
ATOM     18  N   UNL     1       4.400   2.334  19.739  0.00  0.00    +0.000 NA
ATOM     19  C   UNL     1       3.897   3.381  19.689  0.00  0.00    +0.000 C 
ENDBRANCH   1  19
BRANCH   6  20
ATOM     20  C   UNL     1       2.817   7.942  17.927  0.00  0.00    +0.000 C 
ATOM     21  N   UNL     1       2.863   8.793  17.140  0.00  0.00    +0.000 NA
ENDBRANCH   6  20
BRANCH   5  22
ATOM     22  S   UNL     1       1.165   8.617  20.451  0.00  0.00    +0.000 S 
BRANCH  22  23
ATOM     23  C   UNL     1       0.176   8.098  21.914  0.00  0.00    +0.000 C 
BRANCH  23  24
ATOM     24  C   UNL     1      -0.440   9.302  22.623  0.00  0.00    +0.000 C 
BRANCH  24  25
ATOM     25  O   UNL     1       0.336   9.697  23.749  0.00  0.00    +0.000 OA
ATOM     26  H   UNL     1       0.127  10.635  23.915  0.00  0.00    +0.000 HD
ENDBRANCH  24  25
ENDBRANCH  23  24
ENDBRANCH  22  23
ENDBRANCH   5  22
TORSDOF 8
ENDMDL
MODEL 4
REMARK VINA RESULT:      -6.6      2.904      6.506
REMARK  Name = 
REMARK  8 active torsions:
REMARK  status: ('A' for Active; 'I' for Inactive)
REMARK    1  A    between atoms: C_2  and  C_3
REMARK    2  A    between atoms: C_7  and  S_8
REMARK    3  A    between atoms: S_8  and  C_9
REMARK    4  A    between atoms: C_9  and  C_10
REMARK    5  A    between atoms: C_10  and  O_11
REMARK    6  A    between atoms: C_12  and  C_13
REMARK    7  A    between atoms: C_15  and  C_16
REMARK    8  A    between atoms: C_20  and  O_21
REMARK                            x       y       z     vdW  Elec       q    Type
REMARK                         _______ _______ _______ _____ _____    ______ ____
ROOT
ATOM      1  C   UNL     1       3.434   4.318  19.849  0.00  0.00    +0.000 A 
ATOM      2  C   UNL     1       2.366   4.596  20.706  0.00  0.00    +0.000 A 
ATOM      3  N   UNL     1       1.890   3.690  21.647  0.00  0.00    +0.000 N 
ATOM      4  N   UNL     1       1.759   5.786  20.736  0.00  0.00    +0.000 NA
ATOM      5  C   UNL     1       2.131   6.732  19.847  0.00  0.00    +0.000 A 
ATOM      6  C   UNL     1       3.091   6.494  18.853  0.00  0.00    +0.000 A 
ATOM      7  C   UNL     1       3.822   5.273  18.864  0.00  0.00    +0.000 A 
ATOM      8  H   UNL     1       1.680   2.768  21.273  0.00  0.00    +0.000 HD
ATOM      9  H   UNL     1       1.076   4.097  22.105  0.00  0.00    +0.000 HD
ENDROOT
BRANCH   7  10
ATOM     10  C   UNL     1       4.967   5.011  17.921  0.00  0.00    +0.000 A 
ATOM     11  C   UNL     1       6.316   5.156  18.310  0.00  0.00    +0.000 A 
ATOM     12  C   UNL     1       7.375   4.999  17.404  0.00  0.00    +0.000 A 
ATOM     13  C   UNL     1       7.124   4.610  16.094  0.00  0.00    +0.000 A 
ATOM     14  C   UNL     1       5.811   4.410  15.701  0.00  0.00    +0.000 A 
ATOM     15  C   UNL     1       4.750   4.640  16.579  0.00  0.00    +0.000 A 
BRANCH  14  16
ATOM     16  O   UNL     1       5.508   3.987  14.440  0.00  0.00    +0.000 OA
ATOM     17  H   UNL     1       6.073   4.461  13.808  0.00  0.00    +0.000 HD
ENDBRANCH  14  16
ENDBRANCH   7  10
BRANCH   1  19
ATOM     18  N   UNL     1       4.680   2.057  20.133  0.00  0.00    +0.000 NA
ATOM     19  C   UNL     1       4.089   3.051  20.011  0.00  0.00    +0.000 C 
ENDBRANCH   1  19
BRANCH   6  20
ATOM     20  C   UNL     1       3.281   7.486  17.831  0.00  0.00    +0.000 C 
ATOM     21  N   UNL     1       3.428   8.287  17.005  0.00  0.00    +0.000 NA
ENDBRANCH   6  20
BRANCH   5  22
ATOM     22  S   UNL     1       1.300   8.312  20.057  0.00  0.00    +0.000 S 
BRANCH  22  23
ATOM     23  C   UNL     1       1.358   8.471  21.889  0.00  0.00    +0.000 C 
BRANCH  23  24
ATOM     24  C   UNL     1       0.181   9.292  22.412  0.00  0.00    +0.000 C 
BRANCH  24  25
ATOM     25  O   UNL     1       0.392   9.705  23.758  0.00  0.00    +0.000 OA
ATOM     26  H   UNL     1       1.315   9.482  23.976  0.00  0.00    +0.000 HD
ENDBRANCH  24  25
ENDBRANCH  23  24
ENDBRANCH  22  23
ENDBRANCH   5  22
TORSDOF 8
ENDMDL
MODEL 5
REMARK VINA RESULT:      -6.5      3.245      5.774
REMARK  Name = 
REMARK  8 active torsions:
REMARK  status: ('A' for Active; 'I' for Inactive)
REMARK    1  A    between atoms: C_2  and  C_3
REMARK    2  A    between atoms: C_7  and  S_8
REMARK    3  A    between atoms: S_8  and  C_9
REMARK    4  A    between atoms: C_9  and  C_10
REMARK    5  A    between atoms: C_10  and  O_11
REMARK    6  A    between atoms: C_12  and  C_13
REMARK    7  A    between atoms: C_15  and  C_16
REMARK    8  A    between atoms: C_20  and  O_21
REMARK                            x       y       z     vdW  Elec       q    Type
REMARK                         _______ _______ _______ _____ _____    ______ ____
ROOT
ATOM      1  C   UNL     1       2.868   6.744  18.884  0.00  0.00    +0.000 A 
ATOM      2  C   UNL     1       2.003   6.827  19.979  0.00  0.00    +0.000 A 
ATOM      3  N   UNL     1       1.232   7.951  20.255  0.00  0.00    +0.000 N 
ATOM      4  N   UNL     1       1.797   5.802  20.811  0.00  0.00    +0.000 NA
ATOM      5  C   UNL     1       2.513   4.670  20.643  0.00  0.00    +0.000 A 
ATOM      6  C   UNL     1       3.509   4.548  19.664  0.00  0.00    +0.000 A 
ATOM      7  C   UNL     1       3.678   5.585  18.704  0.00  0.00    +0.000 A 
ATOM      8  H   UNL     1       1.754   8.823  20.280  0.00  0.00    +0.000 HD
ATOM      9  H   UNL     1       0.734   7.793  21.130  0.00  0.00    +0.000 HD
ENDROOT
BRANCH   7  10
ATOM     10  C   UNL     1       4.623   5.457  17.538  0.00  0.00    +0.000 A 
ATOM     11  C   UNL     1       4.375   4.588  16.454  0.00  0.00    +0.000 A 
ATOM     12  C   UNL     1       5.301   4.406  15.416  0.00  0.00    +0.000 A 
ATOM     13  C   UNL     1       6.473   5.151  15.385  0.00  0.00    +0.000 A 
ATOM     14  C   UNL     1       6.716   6.050  16.410  0.00  0.00    +0.000 A 
ATOM     15  C   UNL     1       5.833   6.178  17.485  0.00  0.00    +0.000 A 
BRANCH  14  16
ATOM     16  O   UNL     1       7.829   6.838  16.410  0.00  0.00    +0.000 OA
ATOM     17  H   UNL     1       8.564   6.339  16.017  0.00  0.00    +0.000 HD
ENDBRANCH  14  16
ENDBRANCH   7  10
BRANCH   1  19
ATOM     18  N   UNL     1       2.849   8.775  17.265  0.00  0.00    +0.000 NA
ATOM     19  C   UNL     1       2.896   7.865  17.988  0.00  0.00    +0.000 C 
ENDBRANCH   1  19
BRANCH   6  20
ATOM     20  C   UNL     1       4.354   3.386  19.686  0.00  0.00    +0.000 C 
ATOM     21  N   UNL     1       5.040   2.451  19.702  0.00  0.00    +0.000 NA
ENDBRANCH   6  20
BRANCH   5  22
ATOM     22  S   UNL     1       2.072   3.342  21.772  0.00  0.00    +0.000 S 
BRANCH  22  23
ATOM     23  C   UNL     1       1.356   2.131  20.587  0.00  0.00    +0.000 C 
BRANCH  23  24
ATOM     24  C   UNL     1       0.717   2.836  19.392  0.00  0.00    +0.000 C 
BRANCH  24  25
ATOM     25  O   UNL     1       1.015   2.167  18.171  0.00  0.00    +0.000 OA
ATOM     26  H   UNL     1       0.991   2.844  17.470  0.00  0.00    +0.000 HD
ENDBRANCH  24  25
ENDBRANCH  23  24
ENDBRANCH  22  23
ENDBRANCH   5  22
TORSDOF 8
ENDMDL
MODEL 6
REMARK VINA RESULT:      -6.2      1.703      1.846
REMARK  Name = 
REMARK  8 active torsions:
REMARK  status: ('A' for Active; 'I' for Inactive)
REMARK    1  A    between atoms: C_2  and  C_3
REMARK    2  A    between atoms: C_7  and  S_8
REMARK    3  A    between atoms: S_8  and  C_9
REMARK    4  A    between atoms: C_9  and  C_10
REMARK    5  A    between atoms: C_10  and  O_11
REMARK    6  A    between atoms: C_12  and  C_13
REMARK    7  A    between atoms: C_15  and  C_16
REMARK    8  A    between atoms: C_20  and  O_21
REMARK                            x       y       z     vdW  Elec       q    Type
REMARK                         _______ _______ _______ _____ _____    ______ ____
ROOT
ATOM      1  C   UNL     1       2.632   4.189  18.542  0.00  0.00    +0.000 A 
ATOM      2  C   UNL     1       3.203   3.026  18.018  0.00  0.00    +0.000 A 
ATOM      3  N   UNL     1       2.821   1.748  18.411  0.00  0.00    +0.000 N 
ATOM      4  N   UNL     1       4.116   3.050  17.043  0.00  0.00    +0.000 NA
ATOM      5  C   UNL     1       4.572   4.242  16.603  0.00  0.00    +0.000 A 
ATOM      6  C   UNL     1       4.166   5.458  17.171  0.00  0.00    +0.000 A 
ATOM      7  C   UNL     1       3.123   5.465  18.139  0.00  0.00    +0.000 A 
ATOM      8  H   UNL     1       2.825   1.599  19.417  0.00  0.00    +0.000 HD
ATOM      9  H   UNL     1       3.418   1.072  17.935  0.00  0.00    +0.000 HD
ENDROOT
BRANCH   7  10
ATOM     10  C   UNL     1       2.536   6.742  18.682  0.00  0.00    +0.000 A 
ATOM     11  C   UNL     1       2.270   6.929  20.055  0.00  0.00    +0.000 A 
ATOM     12  C   UNL     1       1.641   8.084  20.543  0.00  0.00    +0.000 A 
ATOM     13  C   UNL     1       1.331   9.129  19.682  0.00  0.00    +0.000 A 
ATOM     14  C   UNL     1       1.630   8.992  18.337  0.00  0.00    +0.000 A 
ATOM     15  C   UNL     1       2.186   7.813  17.835  0.00  0.00    +0.000 A 
BRANCH  14  16
ATOM     16  O   UNL     1       1.387  10.002  17.452  0.00  0.00    +0.000 OA
ATOM     17  H   UNL     1       1.169   9.613  16.589  0.00  0.00    +0.000 HD
ENDBRANCH  14  16
ENDBRANCH   7  10
BRANCH   1  19
ATOM     18  N   UNL     1       0.692   3.823  20.230  0.00  0.00    +0.000 NA
ATOM     19  C   UNL     1       1.564   4.023  19.486  0.00  0.00    +0.000 C 
ENDBRANCH   1  19
BRANCH   6  20
ATOM     20  C   UNL     1       4.849   6.660  16.778  0.00  0.00    +0.000 C 
ATOM     21  N   UNL     1       5.403   7.629  16.464  0.00  0.00    +0.000 NA
ENDBRANCH   6  20
BRANCH   5  22
ATOM     22  S   UNL     1       5.727   4.132  15.230  0.00  0.00    +0.000 S 
BRANCH  22  23
ATOM     23  C   UNL     1       7.259   4.744  16.044  0.00  0.00    +0.000 C 
BRANCH  23  24
ATOM     24  C   UNL     1       7.280   4.386  17.528  0.00  0.00    +0.000 C 
BRANCH  24  25
ATOM     25  O   UNL     1       8.572   3.956  17.943  0.00  0.00    +0.000 OA
ATOM     26  H   UNL     1       9.180   4.699  17.773  0.00  0.00    +0.000 HD
ENDBRANCH  24  25
ENDBRANCH  23  24
ENDBRANCH  22  23
ENDBRANCH   5  22
TORSDOF 8
ENDMDL
MODEL 7
REMARK VINA RESULT:      -6.2      3.509      6.506
REMARK  Name = 
REMARK  8 active torsions:
REMARK  status: ('A' for Active; 'I' for Inactive)
REMARK    1  A    between atoms: C_2  and  C_3
REMARK    2  A    between atoms: C_7  and  S_8
REMARK    3  A    between atoms: S_8  and  C_9
REMARK    4  A    between atoms: C_9  and  C_10
REMARK    5  A    between atoms: C_10  and  O_11
REMARK    6  A    between atoms: C_12  and  C_13
REMARK    7  A    between atoms: C_15  and  C_16
REMARK    8  A    between atoms: C_20  and  O_21
REMARK                            x       y       z     vdW  Elec       q    Type
REMARK                         _______ _______ _______ _____ _____    ______ ____
ROOT
ATOM      1  C   UNL     1       3.403   3.804  20.304  0.00  0.00    +0.000 A 
ATOM      2  C   UNL     1       2.214   3.773  21.039  0.00  0.00    +0.000 A 
ATOM      3  N   UNL     1       1.822   2.681  21.805  0.00  0.00    +0.000 N 
ATOM      4  N   UNL     1       1.392   4.823  21.118  0.00  0.00    +0.000 NA
ATOM      5  C   UNL     1       1.670   5.928  20.394  0.00  0.00    +0.000 A 
ATOM      6  C   UNL     1       2.760   5.996  19.515  0.00  0.00    +0.000 A 
ATOM      7  C   UNL     1       3.705   4.932  19.488  0.00  0.00    +0.000 A 
ATOM      8  H   UNL     1       1.834   1.794  21.309  0.00  0.00    +0.000 HD
ATOM      9  H   UNL     1       0.900   2.875  22.194  0.00  0.00    +0.000 HD
ENDROOT
BRANCH   7  10
ATOM     10  C   UNL     1       4.975   5.003  18.680  0.00  0.00    +0.000 A 
ATOM     11  C   UNL     1       5.073   4.469  17.378  0.00  0.00    +0.000 A 
ATOM     12  C   UNL     1       6.281   4.458  16.665  0.00  0.00    +0.000 A 
ATOM     13  C   UNL     1       7.415   5.056  17.200  0.00  0.00    +0.000 A 
ATOM     14  C   UNL     1       7.332   5.635  18.455  0.00  0.00    +0.000 A 
ATOM     15  C   UNL     1       6.151   5.580  19.200  0.00  0.00    +0.000 A 
BRANCH  14  16
ATOM     16  O   UNL     1       8.400   6.273  19.012  0.00  0.00    +0.000 OA
ATOM     17  H   UNL     1       8.907   6.707  18.305  0.00  0.00    +0.000 HD
ENDBRANCH  14  16
ENDBRANCH   7  10
BRANCH   1  19
ATOM     18  N   UNL     1       4.929   1.717  20.555  0.00  0.00    +0.000 NA
ATOM     19  C   UNL     1       4.266   2.662  20.412  0.00  0.00    +0.000 C 
ENDBRANCH   1  19
BRANCH   6  20
ATOM     20  C   UNL     1       2.866   7.131  18.640  0.00  0.00    +0.000 C 
ATOM     21  N   UNL     1       2.947   8.045  17.931  0.00  0.00    +0.000 NA
ENDBRANCH   6  20
BRANCH   5  22
ATOM     22  S   UNL     1       0.533   7.295  20.664  0.00  0.00    +0.000 S 
BRANCH  22  23
ATOM     23  C   UNL     1       1.575   8.381  21.723  0.00  0.00    +0.000 C 
BRANCH  23  24
ATOM     24  C   UNL     1       0.818   9.640  22.140  0.00  0.00    +0.000 C 
BRANCH  24  25
ATOM     25  O   UNL     1       0.561   9.654  23.539  0.00  0.00    +0.000 OA
ATOM     26  H   UNL     1      -0.409   9.630  23.644  0.00  0.00    +0.000 HD
ENDBRANCH  24  25
ENDBRANCH  23  24
ENDBRANCH  22  23
ENDBRANCH   5  22
TORSDOF 8
ENDMDL
MODEL 8
REMARK VINA RESULT:      -6.2      2.990      5.894
REMARK  Name = 
REMARK  8 active torsions:
REMARK  status: ('A' for Active; 'I' for Inactive)
REMARK    1  A    between atoms: C_2  and  C_3
REMARK    2  A    between atoms: C_7  and  S_8
REMARK    3  A    between atoms: S_8  and  C_9
REMARK    4  A    between atoms: C_9  and  C_10
REMARK    5  A    between atoms: C_10  and  O_11
REMARK    6  A    between atoms: C_12  and  C_13
REMARK    7  A    between atoms: C_15  and  C_16
REMARK    8  A    between atoms: C_20  and  O_21
REMARK                            x       y       z     vdW  Elec       q    Type
REMARK                         _______ _______ _______ _____ _____    ______ ____
ROOT
ATOM      1  C   UNL     1       3.329   6.379  18.713  0.00  0.00    +0.000 A 
ATOM      2  C   UNL     1       2.370   6.597  19.707  0.00  0.00    +0.000 A 
ATOM      3  N   UNL     1       1.684   7.798  19.851  0.00  0.00    +0.000 N 
ATOM      4  N   UNL     1       1.986   5.640  20.556  0.00  0.00    +0.000 NA
ATOM      5  C   UNL     1       2.606   4.441  20.515  0.00  0.00    +0.000 A 
ATOM      6  C   UNL     1       3.679   4.179  19.651  0.00  0.00    +0.000 A 
ATOM      7  C   UNL     1       4.040   5.145  18.670  0.00  0.00    +0.000 A 
ATOM      8  H   UNL     1       2.281   8.620  19.892  0.00  0.00    +0.000 HD
ATOM      9  H   UNL     1       1.088   7.731  20.675  0.00  0.00    +0.000 HD
ENDROOT
BRANCH   7  10
ATOM     10  C   UNL     1       5.082   4.872  17.617  0.00  0.00    +0.000 A 
ATOM     11  C   UNL     1       6.464   4.880  17.900  0.00  0.00    +0.000 A 
ATOM     12  C   UNL     1       7.432   4.714  16.898  0.00  0.00    +0.000 A 
ATOM     13  C   UNL     1       7.048   4.451  15.589  0.00  0.00    +0.000 A 
ATOM     14  C   UNL     1       5.696   4.386  15.295  0.00  0.00    +0.000 A 
ATOM     15  C   UNL     1       4.730   4.626  16.274  0.00  0.00    +0.000 A 
BRANCH  14  16
ATOM     16  O   UNL     1       5.261   4.089  14.037  0.00  0.00    +0.000 OA
ATOM     17  H   UNL     1       5.449   3.153  13.855  0.00  0.00    +0.000 HD
ENDBRANCH  14  16
ENDBRANCH   7  10
BRANCH   1  19
ATOM     18  N   UNL     1       3.664   8.308  17.006  0.00  0.00    +0.000 NA
ATOM     19  C   UNL     1       3.552   7.444  17.777  0.00  0.00    +0.000 C 
ENDBRANCH   1  19
BRANCH   6  20
ATOM     20  C   UNL     1       4.405   2.949  19.813  0.00  0.00    +0.000 C 
ATOM     21  N   UNL     1       4.987   1.955  19.947  0.00  0.00    +0.000 NA
ENDBRANCH   6  20
BRANCH   5  22
ATOM     22  S   UNL     1       1.931   3.220  21.648  0.00  0.00    +0.000 S 
BRANCH  22  23
ATOM     23  C   UNL     1       1.177   2.045  20.449  0.00  0.00    +0.000 C 
BRANCH  23  24
ATOM     24  C   UNL     1       0.786   2.750  19.152  0.00  0.00    +0.000 C 
BRANCH  24  25
ATOM     25  O   UNL     1       1.333   2.092  18.015  0.00  0.00    +0.000 OA
ATOM     26  H   UNL     1       2.160   2.559  17.795  0.00  0.00    +0.000 HD
ENDBRANCH  24  25
ENDBRANCH  23  24
ENDBRANCH  22  23
ENDBRANCH   5  22
TORSDOF 8
ENDMDL
MODEL 9
REMARK VINA RESULT:      -6.2      1.709      1.991
REMARK  Name = 
REMARK  8 active torsions:
REMARK  status: ('A' for Active; 'I' for Inactive)
REMARK    1  A    between atoms: C_2  and  C_3
REMARK    2  A    between atoms: C_7  and  S_8
REMARK    3  A    between atoms: S_8  and  C_9
REMARK    4  A    between atoms: C_9  and  C_10
REMARK    5  A    between atoms: C_10  and  O_11
REMARK    6  A    between atoms: C_12  and  C_13
REMARK    7  A    between atoms: C_15  and  C_16
REMARK    8  A    between atoms: C_20  and  O_21
REMARK                            x       y       z     vdW  Elec       q    Type
REMARK                         _______ _______ _______ _____ _____    ______ ____
ROOT
ATOM      1  C   UNL     1       3.269   4.592  19.420  0.00  0.00    +0.000 A 
ATOM      2  C   UNL     1       4.122   3.485  19.384  0.00  0.00    +0.000 A 
ATOM      3  N   UNL     1       3.846   2.291  20.043  0.00  0.00    +0.000 N 
ATOM      4  N   UNL     1       5.241   3.462  18.655  0.00  0.00    +0.000 NA
ATOM      5  C   UNL     1       5.612   4.579  17.993  0.00  0.00    +0.000 A 
ATOM      6  C   UNL     1       4.898   5.782  18.088  0.00  0.00    +0.000 A 
ATOM      7  C   UNL     1       3.652   5.804  18.775  0.00  0.00    +0.000 A 
ATOM      8  H   UNL     1       3.613   2.399  21.027  0.00  0.00    +0.000 HD
ATOM      9  H   UNL     1       4.638   1.663  19.917  0.00  0.00    +0.000 HD
ENDROOT
BRANCH   7  10
ATOM     10  C   UNL     1       2.763   7.020  18.791  0.00  0.00    +0.000 A 
ATOM     11  C   UNL     1       2.430   7.729  17.617  0.00  0.00    +0.000 A 
ATOM     12  C   UNL     1       1.676   8.912  17.648  0.00  0.00    +0.000 A 
ATOM     13  C   UNL     1       1.158   9.380  18.848  0.00  0.00    +0.000 A 
ATOM     14  C   UNL     1       1.426   8.674  20.009  0.00  0.00    +0.000 A 
ATOM     15  C   UNL     1       2.241   7.538  19.992  0.00  0.00    +0.000 A 
BRANCH  14  16
ATOM     16  O   UNL     1       0.910   9.063  21.209  0.00  0.00    +0.000 OA
ATOM     17  H   UNL     1       1.083  10.012  21.329  0.00  0.00    +0.000 HD
ENDBRANCH  14  16
ENDBRANCH   7  10
BRANCH   1  19
ATOM     18  N   UNL     1       1.025   4.250  20.682  0.00  0.00    +0.000 NA
ATOM     19  C   UNL     1       2.031   4.440  20.129  0.00  0.00    +0.000 C 
ENDBRANCH   1  19
BRANCH   6  20
ATOM     20  C   UNL     1       5.473   6.967  17.513  0.00  0.00    +0.000 C 
ATOM     21  N   UNL     1       5.935   7.922  17.045  0.00  0.00    +0.000 NA
ENDBRANCH   6  20
BRANCH   5  22
ATOM     22  S   UNL     1       7.085   4.384  16.980  0.00  0.00    +0.000 S 
BRANCH  22  23
ATOM     23  C   UNL     1       6.321   3.855  15.392  0.00  0.00    +0.000 C 
BRANCH  23  24
ATOM     24  C   UNL     1       6.766   4.750  14.238  0.00  0.00    +0.000 C 
BRANCH  24  25
ATOM     25  O   UNL     1       7.808   5.634  14.635  0.00  0.00    +0.000 OA
ATOM     26  H   UNL     1       8.494   5.084  15.056  0.00  0.00    +0.000 HD
ENDBRANCH  24  25
ENDBRANCH  23  24
ENDBRANCH  22  23
ENDBRANCH   5  22
TORSDOF 8
ENDMDL
