MODEL 1
REMARK VINA RESULT:      -7.6      0.000      0.000
REMARK  Name = 
REMARK  3 active torsions:
REMARK  status: ('A' for Active; 'I' for Inactive)
REMARK    1  A    between atoms: C_5  and  C_6
REMARK    2  A    between atoms: C_13  and  O_14
REMARK    3  A    between atoms: O_14  and  C_15
REMARK                            x       y       z     vdW  Elec       q    Type
REMARK                         _______ _______ _______ _____ _____    ______ ____
ROOT
ATOM      1  O   UNL     1       7.897   4.072  16.803  0.00  0.00    +0.000 OA
ATOM      2  C   UNL     1       7.043   4.939  16.874  0.00  0.00    +0.000 C 
ATOM      3  N   UNL     1       7.123   6.217  16.343  0.00  0.00    +0.000 N 
ATOM      4  N   UNL     1       6.053   7.022  16.614  0.00  0.00    +0.000 NA
ATOM      5  C   UNL     1       5.218   6.304  17.312  0.00  0.00    +0.000 C 
ATOM      6  C   UNL     1       5.696   4.875  17.571  0.00  0.00    +0.000 C 
ATOM      7  H   UNL     1       7.935   6.569  15.850  0.00  0.00    +0.000 HD
ENDROOT
BRANCH   5   8
ATOM      8  C   UNL     1       3.990   6.855  17.930  0.00  0.00    +0.000 A 
ATOM      9  C   UNL     1       3.373   7.962  17.329  0.00  0.00    +0.000 A 
ATOM     10  C   UNL     1       2.307   8.606  17.963  0.00  0.00    +0.000 A 
ATOM     11  C   UNL     1       1.852   8.140  19.195  0.00  0.00    +0.000 A 
ATOM     12 CL   UNL     1       0.580   8.966  20.006  0.00  0.00    +0.000 Cl
ATOM     13  C   UNL     1       2.437   7.021  19.784  0.00  0.00    +0.000 A 
ATOM     14  C   UNL     1       3.504   6.374  19.151  0.00  0.00    +0.000 A 
ENDBRANCH   5   8
BRANCH   6  15
ATOM     15  O   UNL     1       4.825   3.900  17.042  0.00  0.00    +0.000 OA
BRANCH  15  16
ATOM     16  C   UNL     1       3.907   3.354  17.905  0.00  0.00    +0.000 A 
ATOM     17  C   UNL     1       2.587   3.339  17.443  0.00  0.00    +0.000 A 
ATOM     18  C   UNL     1       1.554   2.868  18.262  0.00  0.00    +0.000 A 
ATOM     19  C   UNL     1       1.837   2.407  19.544  0.00  0.00    +0.000 A 
ATOM     20  C   UNL     1       3.154   2.386  19.997  0.00  0.00    +0.000 A 
ATOM     21  C   UNL     1       4.185   2.847  19.173  0.00  0.00    +0.000 A 
ENDBRANCH  15  16
ENDBRANCH   6  15
TORSDOF 3
ENDMDL
MODEL 2
REMARK VINA RESULT:      -7.5      0.963      1.013
REMARK  Name = 
REMARK  3 active torsions:
REMARK  status: ('A' for Active; 'I' for Inactive)
REMARK    1  A    between atoms: C_5  and  C_6
REMARK    2  A    between atoms: C_13  and  O_14
REMARK    3  A    between atoms: O_14  and  C_15
REMARK                            x       y       z     vdW  Elec       q    Type
REMARK                         _______ _______ _______ _____ _____    ______ ____
ROOT
ATOM      1  O   UNL     1       6.589   3.987  16.170  0.00  0.00    +0.000 OA
ATOM      2  C   UNL     1       5.816   4.901  16.396  0.00  0.00    +0.000 C 
ATOM      3  N   UNL     1       5.814   6.147  15.786  0.00  0.00    +0.000 N 
ATOM      4  N   UNL     1       4.878   7.020  16.263  0.00  0.00    +0.000 NA
ATOM      5  C   UNL     1       4.213   6.383  17.186  0.00  0.00    +0.000 C 
ATOM      6  C   UNL     1       4.680   4.944  17.403  0.00  0.00    +0.000 C 
ATOM      7  H   UNL     1       6.492   6.430  15.090  0.00  0.00    +0.000 HD
ENDROOT
BRANCH   5   8
ATOM      8  C   UNL     1       3.199   7.029  18.051  0.00  0.00    +0.000 A 
ATOM      9  C   UNL     1       2.574   8.198  17.597  0.00  0.00    +0.000 A 
ATOM     10  C   UNL     1       1.730   8.921  18.444  0.00  0.00    +0.000 A 
ATOM     11  C   UNL     1       1.505   8.473  19.744  0.00  0.00    +0.000 A 
ATOM     12 CL   UNL     1       0.515   9.392  20.808  0.00  0.00    +0.000 Cl
ATOM     13  C   UNL     1       2.097   7.294  20.193  0.00  0.00    +0.000 A 
ATOM     14  C   UNL     1       2.941   6.567  19.347  0.00  0.00    +0.000 A 
ENDBRANCH   5   8
BRANCH   6  15
ATOM     15  O   UNL     1       3.666   3.993  17.162  0.00  0.00    +0.000 OA
BRANCH  15  16
ATOM     16  C   UNL     1       3.032   3.470  18.262  0.00  0.00    +0.000 A 
ATOM     17  C   UNL     1       1.640   3.384  18.165  0.00  0.00    +0.000 A 
ATOM     18  C   UNL     1       0.881   2.930  19.249  0.00  0.00    +0.000 A 
ATOM     19  C   UNL     1       1.510   2.554  20.433  0.00  0.00    +0.000 A 
ATOM     20  C   UNL     1       2.899   2.602  20.523  0.00  0.00    +0.000 A 
ATOM     21  C   UNL     1       3.656   3.047  19.435  0.00  0.00    +0.000 A 
ENDBRANCH  15  16
ENDBRANCH   6  15
TORSDOF 3
ENDMDL
MODEL 3
REMARK VINA RESULT:      -7.5      1.109      1.659
REMARK  Name = 
REMARK  3 active torsions:
REMARK  status: ('A' for Active; 'I' for Inactive)
REMARK    1  A    between atoms: C_5  and  C_6
REMARK    2  A    between atoms: C_13  and  O_14
REMARK    3  A    between atoms: O_14  and  C_15
REMARK                            x       y       z     vdW  Elec       q    Type
REMARK                         _______ _______ _______ _____ _____    ______ ____
ROOT
ATOM      1  O   UNL     1       6.428   4.086  16.751  0.00  0.00    +0.000 OA
ATOM      2  C   UNL     1       5.663   5.028  16.864  0.00  0.00    +0.000 C 
ATOM      3  N   UNL     1       5.736   6.234  16.182  0.00  0.00    +0.000 N 
ATOM      4  N   UNL     1       4.791   7.154  16.534  0.00  0.00    +0.000 NA
ATOM      5  C   UNL     1       4.044   6.588  17.442  0.00  0.00    +0.000 C 
ATOM      6  C   UNL     1       4.458   5.156  17.779  0.00  0.00    +0.000 C 
ATOM      7  H   UNL     1       6.471   6.460  15.523  0.00  0.00    +0.000 HD
ENDROOT
BRANCH   5   8
ATOM      8  C   UNL     1       2.986   7.307  18.189  0.00  0.00    +0.000 A 
ATOM      9  C   UNL     1       2.407   8.444  17.609  0.00  0.00    +0.000 A 
ATOM     10  C   UNL     1       1.520   9.236  18.343  0.00  0.00    +0.000 A 
ATOM     11  C   UNL     1       1.207   8.890  19.655  0.00  0.00    +0.000 A 
ATOM     12 CL   UNL     1       0.164   9.895  20.581  0.00  0.00    +0.000 Cl
ATOM     13  C   UNL     1       1.752   7.743  20.230  0.00  0.00    +0.000 A 
ATOM     14  C   UNL     1       2.640   6.947  19.497  0.00  0.00    +0.000 A 
ENDBRANCH   5   8
BRANCH   6  15
ATOM     15  O   UNL     1       3.441   4.214  17.521  0.00  0.00    +0.000 OA
BRANCH  15  16
ATOM     16  C   UNL     1       2.743   3.741  18.604  0.00  0.00    +0.000 A 
ATOM     17  C   UNL     1       3.523   3.376  19.706  0.00  0.00    +0.000 A 
ATOM     18  C   UNL     1       2.927   2.819  20.843  0.00  0.00    +0.000 A 
ATOM     19  C   UNL     1       1.548   2.629  20.886  0.00  0.00    +0.000 A 
ATOM     20  C   UNL     1       0.762   3.024  19.807  0.00  0.00    +0.000 A 
ATOM     21  C   UNL     1       1.358   3.589  18.676  0.00  0.00    +0.000 A 
ENDBRANCH  15  16
ENDBRANCH   6  15
TORSDOF 3
ENDMDL
MODEL 4
REMARK VINA RESULT:      -7.5      0.172      1.089
REMARK  Name = 
REMARK  3 active torsions:
REMARK  status: ('A' for Active; 'I' for Inactive)
REMARK    1  A    between atoms: C_5  and  C_6
REMARK    2  A    between atoms: C_13  and  O_14
REMARK    3  A    between atoms: O_14  and  C_15
REMARK                            x       y       z     vdW  Elec       q    Type
REMARK                         _______ _______ _______ _____ _____    ______ ____
ROOT
ATOM      1  O   UNL     1       7.994   4.133  17.005  0.00  0.00    +0.000 OA
ATOM      2  C   UNL     1       7.146   5.008  17.051  0.00  0.00    +0.000 C 
ATOM      3  N   UNL     1       7.277   6.305  16.578  0.00  0.00    +0.000 N 
ATOM      4  N   UNL     1       6.199   7.112  16.806  0.00  0.00    +0.000 NA
ATOM      5  C   UNL     1       5.309   6.379  17.415  0.00  0.00    +0.000 C 
ATOM      6  C   UNL     1       5.752   4.935  17.649  0.00  0.00    +0.000 C 
ATOM      7  H   UNL     1       8.125   6.665  16.158  0.00  0.00    +0.000 HD
ENDROOT
BRANCH   5   8
ATOM      8  C   UNL     1       4.046   6.922  17.967  0.00  0.00    +0.000 A 
ATOM      9  C   UNL     1       3.444   8.011  17.322  0.00  0.00    +0.000 A 
ATOM     10  C   UNL     1       2.341   8.649  17.896  0.00  0.00    +0.000 A 
ATOM     11  C   UNL     1       1.836   8.196  19.113  0.00  0.00    +0.000 A 
ATOM     12 CL   UNL     1       0.517   9.015  19.852  0.00  0.00    +0.000 Cl
ATOM     13  C   UNL     1       2.408   7.094  19.746  0.00  0.00    +0.000 A 
ATOM     14  C   UNL     1       3.512   6.453  19.172  0.00  0.00    +0.000 A 
ENDBRANCH   5   8
BRANCH   6  15
ATOM     15  O   UNL     1       4.910   3.993  17.021  0.00  0.00    +0.000 OA
BRANCH  15  16
ATOM     16  C   UNL     1       3.888   3.475  17.777  0.00  0.00    +0.000 A 
ATOM     17  C   UNL     1       4.252   3.031  19.052  0.00  0.00    +0.000 A 
ATOM     18  C   UNL     1       3.308   2.422  19.887  0.00  0.00    +0.000 A 
ATOM     19  C   UNL     1       1.995   2.260  19.454  0.00  0.00    +0.000 A 
ATOM     20  C   UNL     1       1.618   2.732  18.199  0.00  0.00    +0.000 A 
ATOM     21  C   UNL     1       2.560   3.348  17.371  0.00  0.00    +0.000 A 
ENDBRANCH  15  16
ENDBRANCH   6  15
TORSDOF 3
ENDMDL
MODEL 5
REMARK VINA RESULT:      -7.4      2.734      4.216
REMARK  Name = 
REMARK  3 active torsions:
REMARK  status: ('A' for Active; 'I' for Inactive)
REMARK    1  A    between atoms: C_5  and  C_6
REMARK    2  A    between atoms: C_13  and  O_14
REMARK    3  A    between atoms: O_14  and  C_15
REMARK                            x       y       z     vdW  Elec       q    Type
REMARK                         _______ _______ _______ _____ _____    ______ ____
ROOT
ATOM      1  O   UNL     1       3.903   2.601  19.402  0.00  0.00    +0.000 OA
ATOM      2  C   UNL     1       3.380   3.651  19.732  0.00  0.00    +0.000 C 
ATOM      3  N   UNL     1       2.522   3.843  20.804  0.00  0.00    +0.000 N 
ATOM      4  N   UNL     1       2.022   5.108  20.923  0.00  0.00    +0.000 NA
ATOM      5  C   UNL     1       2.544   5.805  19.953  0.00  0.00    +0.000 C 
ATOM      6  C   UNL     1       3.497   5.009  19.061  0.00  0.00    +0.000 C 
ATOM      7  H   UNL     1       2.221   3.097  21.420  0.00  0.00    +0.000 HD
ENDROOT
BRANCH   5   8
ATOM      8  C   UNL     1       2.144   7.198  19.644  0.00  0.00    +0.000 A 
ATOM      9  C   UNL     1       1.509   7.951  20.641  0.00  0.00    +0.000 A 
ATOM     10  C   UNL     1       0.978   9.209  20.343  0.00  0.00    +0.000 A 
ATOM     11  C   UNL     1       1.088   9.718  19.051  0.00  0.00    +0.000 A 
ATOM     12 CL   UNL     1       0.384  11.239  18.666  0.00  0.00    +0.000 Cl
ATOM     13  C   UNL     1       1.746   8.990  18.061  0.00  0.00    +0.000 A 
ATOM     14  C   UNL     1       2.279   7.730  18.357  0.00  0.00    +0.000 A 
ENDBRANCH   5   8
BRANCH   6  15
ATOM     15  O   UNL     1       4.807   5.531  19.052  0.00  0.00    +0.000 OA
BRANCH  15  16
ATOM     16  C   UNL     1       5.544   5.337  17.910  0.00  0.00    +0.000 A 
ATOM     17  C   UNL     1       4.936   5.764  16.725  0.00  0.00    +0.000 A 
ATOM     18  C   UNL     1       5.562   5.558  15.491  0.00  0.00    +0.000 A 
ATOM     19  C   UNL     1       6.803   4.928  15.436  0.00  0.00    +0.000 A 
ATOM     20  C   UNL     1       7.430   4.532  16.614  0.00  0.00    +0.000 A 
ATOM     21  C   UNL     1       6.807   4.748  17.846  0.00  0.00    +0.000 A 
ENDBRANCH  15  16
ENDBRANCH   6  15
TORSDOF 3
ENDMDL
MODEL 6
REMARK VINA RESULT:      -7.4      2.729      4.364
REMARK  Name = 
REMARK  3 active torsions:
REMARK  status: ('A' for Active; 'I' for Inactive)
REMARK    1  A    between atoms: C_5  and  C_6
REMARK    2  A    between atoms: C_13  and  O_14
REMARK    3  A    between atoms: O_14  and  C_15
REMARK                            x       y       z     vdW  Elec       q    Type
REMARK                         _______ _______ _______ _____ _____    ______ ____
ROOT
ATOM      1  O   UNL     1       3.680   2.409  19.429  0.00  0.00    +0.000 OA
ATOM      2  C   UNL     1       3.226   3.492  19.756  0.00  0.00    +0.000 C 
ATOM      3  N   UNL     1       2.416   3.747  20.852  0.00  0.00    +0.000 N 
ATOM      4  N   UNL     1       1.989   5.039  20.966  0.00  0.00    +0.000 NA
ATOM      5  C   UNL     1       2.516   5.692  19.967  0.00  0.00    +0.000 C 
ATOM      6  C   UNL     1       3.394   4.831  19.059  0.00  0.00    +0.000 C 
ATOM      7  H   UNL     1       2.096   3.029  21.491  0.00  0.00    +0.000 HD
ENDROOT
BRANCH   5   8
ATOM      8  C   UNL     1       2.182   7.099  19.647  0.00  0.00    +0.000 A 
ATOM      9  C   UNL     1       1.542   7.877  20.623  0.00  0.00    +0.000 A 
ATOM     10  C   UNL     1       1.072   9.155  20.309  0.00  0.00    +0.000 A 
ATOM     11  C   UNL     1       1.246   9.659  19.022  0.00  0.00    +0.000 A 
ATOM     12 CL   UNL     1       0.617  11.207  18.616  0.00  0.00    +0.000 Cl
ATOM     13  C   UNL     1       1.910   8.907  18.055  0.00  0.00    +0.000 A 
ATOM     14  C   UNL     1       2.382   7.627  18.367  0.00  0.00    +0.000 A 
ENDBRANCH   5   8
BRANCH   6  15
ATOM     15  O   UNL     1       4.729   5.280  18.998  0.00  0.00    +0.000 OA
BRANCH  15  16
ATOM     16  C   UNL     1       5.364   5.177  17.785  0.00  0.00    +0.000 A 
ATOM     17  C   UNL     1       6.689   4.734  17.838  0.00  0.00    +0.000 A 
ATOM     18  C   UNL     1       7.457   4.654  16.671  0.00  0.00    +0.000 A 
ATOM     19  C   UNL     1       6.903   5.011  15.445  0.00  0.00    +0.000 A 
ATOM     20  C   UNL     1       5.573   5.418  15.380  0.00  0.00    +0.000 A 
ATOM     21  C   UNL     1       4.804   5.488  16.546  0.00  0.00    +0.000 A 
ENDBRANCH  15  16
ENDBRANCH   6  15
TORSDOF 3
ENDMDL
MODEL 7
REMARK VINA RESULT:      -7.3      2.750      4.241
REMARK  Name = 
REMARK  3 active torsions:
REMARK  status: ('A' for Active; 'I' for Inactive)
REMARK    1  A    between atoms: C_5  and  C_6
REMARK    2  A    between atoms: C_13  and  O_14
REMARK    3  A    between atoms: O_14  and  C_15
REMARK                            x       y       z     vdW  Elec       q    Type
REMARK                         _______ _______ _______ _____ _____    ______ ____
ROOT
ATOM      1  O   UNL     1       4.030   1.717  19.851  0.00  0.00    +0.000 OA
ATOM      2  C   UNL     1       3.512   2.791  20.103  0.00  0.00    +0.000 C 
ATOM      3  N   UNL     1       2.706   3.080  21.194  0.00  0.00    +0.000 N 
ATOM      4  N   UNL     1       2.197   4.346  21.215  0.00  0.00    +0.000 NA
ATOM      5  C   UNL     1       2.661   4.950  20.156  0.00  0.00    +0.000 C 
ATOM      6  C   UNL     1       3.577   4.077  19.299  0.00  0.00    +0.000 C 
ATOM      7  H   UNL     1       2.446   2.396  21.894  0.00  0.00    +0.000 HD
ENDROOT
BRANCH   5   8
ATOM      8  C   UNL     1       2.228   6.302  19.734  0.00  0.00    +0.000 A 
ATOM      9  C   UNL     1       2.486   6.711  18.418  0.00  0.00    +0.000 A 
ATOM     10  C   UNL     1       2.235   8.029  18.027  0.00  0.00    +0.000 A 
ATOM     11  C   UNL     1       1.720   8.937  18.949  0.00  0.00    +0.000 A 
ATOM     12 CL   UNL     1       1.467  10.575  18.488  0.00  0.00    +0.000 Cl
ATOM     13  C   UNL     1       1.430   8.532  20.250  0.00  0.00    +0.000 A 
ATOM     14  C   UNL     1       1.679   7.213  20.644  0.00  0.00    +0.000 A 
ENDBRANCH   5   8
BRANCH   6  15
ATOM     15  O   UNL     1       4.879   4.606  19.172  0.00  0.00    +0.000 OA
BRANCH  15  16
ATOM     16  C   UNL     1       5.455   4.545  17.926  0.00  0.00    +0.000 A 
ATOM     17  C   UNL     1       6.844   4.695  17.901  0.00  0.00    +0.000 A 
ATOM     18  C   UNL     1       7.534   4.718  16.684  0.00  0.00    +0.000 A 
ATOM     19  C   UNL     1       6.837   4.584  15.486  0.00  0.00    +0.000 A 
ATOM     20  C   UNL     1       5.458   4.398  15.505  0.00  0.00    +0.000 A 
ATOM     21  C   UNL     1       4.772   4.366  16.723  0.00  0.00    +0.000 A 
ENDBRANCH  15  16
ENDBRANCH   6  15
TORSDOF 3
ENDMDL
MODEL 8
REMARK VINA RESULT:      -7.3      2.615      4.274
REMARK  Name = 
REMARK  3 active torsions:
REMARK  status: ('A' for Active; 'I' for Inactive)
REMARK    1  A    between atoms: C_5  and  C_6
REMARK    2  A    between atoms: C_13  and  O_14
REMARK    3  A    between atoms: O_14  and  C_15
REMARK                            x       y       z     vdW  Elec       q    Type
REMARK                         _______ _______ _______ _____ _____    ______ ____
ROOT
ATOM      1  O   UNL     1       3.779   1.593  17.841  0.00  0.00    +0.000 OA
ATOM      2  C   UNL     1       3.188   2.526  18.355  0.00  0.00    +0.000 C 
ATOM      3  N   UNL     1       1.941   2.477  18.960  0.00  0.00    +0.000 N 
ATOM      4  N   UNL     1       1.470   3.679  19.406  0.00  0.00    +0.000 NA
ATOM      5  C   UNL     1       2.391   4.561  19.137  0.00  0.00    +0.000 C 
ATOM      6  C   UNL     1       3.626   3.976  18.453  0.00  0.00    +0.000 C 
ATOM      7  H   UNL     1       1.376   1.638  19.011  0.00  0.00    +0.000 HD
ENDROOT
BRANCH   5   8
ATOM      8  C   UNL     1       2.206   6.018  19.334  0.00  0.00    +0.000 A 
ATOM      9  C   UNL     1       1.750   6.475  20.578  0.00  0.00    +0.000 A 
ATOM     10  C   UNL     1       1.416   7.820  20.756  0.00  0.00    +0.000 A 
ATOM     11  C   UNL     1       1.542   8.710  19.692  0.00  0.00    +0.000 A 
ATOM     12 CL   UNL     1       1.075  10.354  19.889  0.00  0.00    +0.000 Cl
ATOM     13  C   UNL     1       2.026   8.272  18.461  0.00  0.00    +0.000 A 
ATOM     14  C   UNL     1       2.362   6.925  18.280  0.00  0.00    +0.000 A 
ENDBRANCH   5   8
BRANCH   6  15
ATOM     15  O   UNL     1       4.810   4.167  19.197  0.00  0.00    +0.000 OA
BRANCH  15  16
ATOM     16  C   UNL     1       5.722   5.060  18.693  0.00  0.00    +0.000 A 
ATOM     17  C   UNL     1       5.442   5.543  17.411  0.00  0.00    +0.000 A 
ATOM     18  C   UNL     1       6.335   6.407  16.767  0.00  0.00    +0.000 A 
ATOM     19  C   UNL     1       7.510   6.796  17.405  0.00  0.00    +0.000 A 
ATOM     20  C   UNL     1       7.778   6.348  18.696  0.00  0.00    +0.000 A 
ATOM     21  C   UNL     1       6.880   5.493  19.340  0.00  0.00    +0.000 A 
ENDBRANCH  15  16
ENDBRANCH   6  15
TORSDOF 3
ENDMDL
MODEL 9
REMARK VINA RESULT:      -7.3      1.168      2.000
REMARK  Name = 
REMARK  3 active torsions:
REMARK  status: ('A' for Active; 'I' for Inactive)
REMARK    1  A    between atoms: C_5  and  C_6
REMARK    2  A    between atoms: C_13  and  O_14
REMARK    3  A    between atoms: O_14  and  C_15
REMARK                            x       y       z     vdW  Elec       q    Type
REMARK                         _______ _______ _______ _____ _____    ______ ____
ROOT
ATOM      1  O   UNL     1       6.093   3.906  16.376  0.00  0.00    +0.000 OA
ATOM      2  C   UNL     1       5.448   4.922  16.564  0.00  0.00    +0.000 C 
ATOM      3  N   UNL     1       5.600   6.128  15.897  0.00  0.00    +0.000 N 
ATOM      4  N   UNL     1       4.792   7.137  16.338  0.00  0.00    +0.000 NA
ATOM      5  C   UNL     1       4.062   6.635  17.295  0.00  0.00    +0.000 C 
ATOM      6  C   UNL     1       4.341   5.159  17.577  0.00  0.00    +0.000 C 
ATOM      7  H   UNL     1       6.300   6.289  15.183  0.00  0.00    +0.000 HD
ENDROOT
BRANCH   5   8
ATOM      8  C   UNL     1       3.152   7.446  18.136  0.00  0.00    +0.000 A 
ATOM      9  C   UNL     1       2.869   7.008  19.437  0.00  0.00    +0.000 A 
ATOM     10  C   UNL     1       1.898   7.657  20.205  0.00  0.00    +0.000 A 
ATOM     11  C   UNL     1       1.215   8.750  19.675  0.00  0.00    +0.000 A 
ATOM     12 CL   UNL     1      -0.021   9.515  20.594  0.00  0.00    +0.000 Cl
ATOM     13  C   UNL     1       1.513   9.214  18.396  0.00  0.00    +0.000 A 
ATOM     14  C   UNL     1       2.485   8.565  17.625  0.00  0.00    +0.000 A 
ENDBRANCH   5   8
BRANCH   6  15
ATOM     15  O   UNL     1       3.209   4.338  17.388  0.00  0.00    +0.000 OA
BRANCH  15  16
ATOM     16  C   UNL     1       2.623   3.820  18.516  0.00  0.00    +0.000 A 
ATOM     17  C   UNL     1       3.510   3.391  19.508  0.00  0.00    +0.000 A 
ATOM     18  C   UNL     1       3.031   2.784  20.674  0.00  0.00    +0.000 A 
ATOM     19  C   UNL     1       1.662   2.608  20.856  0.00  0.00    +0.000 A 
ATOM     20  C   UNL     1       0.771   3.066  19.889  0.00  0.00    +0.000 A 
ATOM     21  C   UNL     1       1.252   3.681  18.730  0.00  0.00    +0.000 A 
ENDBRANCH  15  16
ENDBRANCH   6  15
TORSDOF 3
ENDMDL
