MODEL 1
REMARK VINA RESULT:      -8.4      0.000      0.000
REMARK  Name = 
REMARK  7 active torsions:
REMARK  status: ('A' for Active; 'I' for Inactive)
REMARK    1  A    between atoms: C_1  and  N_2
REMARK    2  A    between atoms: N_2  and  C_3
REMARK    3  A    between atoms: C_3  and  C_4
REMARK    4  A    between atoms: N_6  and  S_7
REMARK    5  A    between atoms: S_7  and  C_10
REMARK    6  A    between atoms: C_14  and  C_15
REMARK    7  A    between atoms: C_17  and  C_18
REMARK                            x       y       z     vdW  Elec       q    Type
REMARK                         _______ _______ _______ _____ _____    ______ ____
ROOT
ATOM      1  C   UNL     1       5.619   5.217  16.471  0.00  0.00    +0.000 A 
ATOM      2  C   UNL     1       4.651   4.250  16.601  0.00  0.00    +0.000 A 
ATOM      3  N   UNL     1       3.550   4.803  17.230  0.00  0.00    +0.000 N 
ATOM      4  C   UNL     1       3.777   6.149  17.579  0.00  0.00    +0.000 A 
ATOM      5  C   UNL     1       5.064   6.364  17.074  0.00  0.00    +0.000 A 
ATOM      6  F   UNL     1       5.728   7.483  17.116  0.00  0.00    +0.000 F 
ENDROOT
BRANCH   4   7
ATOM      7  C   UNL     1       2.868   7.152  18.236  0.00  0.00    +0.000 A 
ATOM      8  C   UNL     1       2.332   8.270  17.588  0.00  0.00    +0.000 A 
ATOM      9  C   UNL     1       1.546   9.224  18.231  0.00  0.00    +0.000 A 
ATOM     10  C   UNL     1       1.263   9.038  19.559  0.00  0.00    +0.000 A 
ATOM     11  N   UNL     1       1.710   7.978  20.251  0.00  0.00    +0.000 NA
ATOM     12  C   UNL     1       2.485   7.074  19.586  0.00  0.00    +0.000 A 
ATOM     13  F   UNL     1       2.870   6.045  20.352  0.00  0.00    +0.000 F 
ENDBRANCH   4   7
BRANCH   3  14
ATOM     14  S   UNL     1       2.165   3.822  17.487  0.00  0.00    +0.000 S 
ATOM     15  O   UNL     1       1.010   4.700  17.356  0.00  0.00    +0.000 OA
ATOM     16  O   UNL     1       2.323   2.678  16.606  0.00  0.00    +0.000 OA
BRANCH  14  17
ATOM     17  C   UNL     1       2.237   3.320  19.195  0.00  0.00    +0.000 A 
ATOM     18  C   UNL     1       1.105   3.412  19.988  0.00  0.00    +0.000 A 
ATOM     19  C   UNL     1       1.211   2.954  21.297  0.00  0.00    +0.000 A 
ATOM     20  C   UNL     1       2.407   2.386  21.736  0.00  0.00    +0.000 A 
ATOM     21  C   UNL     1       3.479   2.289  20.852  0.00  0.00    +0.000 A 
ATOM     22  C   UNL     1       4.744   1.587  21.255  0.00  0.00    +0.000 C 
ATOM     23  N   UNL     1       3.414   2.767  19.587  0.00  0.00    +0.000 NA
ENDBRANCH  14  17
ENDBRANCH   3  14
BRANCH   1  24
ATOM     24  C   UNL     1       6.970   5.100  15.846  0.00  0.00    +0.000 C 
BRANCH  24  26
ATOM     25  C   UNL     1       7.814   4.695  18.058  0.00  0.00    +0.000 C 
ATOM     26  N   UNL     1       7.793   4.226  16.681  0.00  0.00    +0.000 NA
ATOM     27  H   UNL     1       7.409   3.283  16.653  0.00  0.00    +0.000 HD
ENDBRANCH  24  26
ENDBRANCH   1  24
TORSDOF 5
ENDMDL
MODEL 2
REMARK VINA RESULT:      -8.2      0.732      1.070
REMARK  Name = 
REMARK  7 active torsions:
REMARK  status: ('A' for Active; 'I' for Inactive)
REMARK    1  A    between atoms: C_1  and  N_2
REMARK    2  A    between atoms: N_2  and  C_3
REMARK    3  A    between atoms: C_3  and  C_4
REMARK    4  A    between atoms: N_6  and  S_7
REMARK    5  A    between atoms: S_7  and  C_10
REMARK    6  A    between atoms: C_14  and  C_15
REMARK    7  A    between atoms: C_17  and  C_18
REMARK                            x       y       z     vdW  Elec       q    Type
REMARK                         _______ _______ _______ _____ _____    ______ ____
ROOT
ATOM      1  C   UNL     1       5.681   5.007  16.436  0.00  0.00    +0.000 A 
ATOM      2  C   UNL     1       4.697   4.059  16.590  0.00  0.00    +0.000 A 
ATOM      3  N   UNL     1       3.609   4.642  17.211  0.00  0.00    +0.000 N 
ATOM      4  C   UNL     1       3.859   5.992  17.532  0.00  0.00    +0.000 A 
ATOM      5  C   UNL     1       5.147   6.175  17.017  0.00  0.00    +0.000 A 
ATOM      6  F   UNL     1       5.830   7.283  17.034  0.00  0.00    +0.000 F 
ENDROOT
BRANCH   4   7
ATOM      7  C   UNL     1       2.969   7.022  18.172  0.00  0.00    +0.000 A 
ATOM      8  C   UNL     1       2.451   8.137  17.504  0.00  0.00    +0.000 A 
ATOM      9  C   UNL     1       1.684   9.117  18.130  0.00  0.00    +0.000 A 
ATOM     10  C   UNL     1       1.402   8.961  19.463  0.00  0.00    +0.000 A 
ATOM     11  N   UNL     1       1.832   7.907  20.173  0.00  0.00    +0.000 NA
ATOM     12  C   UNL     1       2.589   6.977  19.524  0.00  0.00    +0.000 A 
ATOM     13  F   UNL     1       2.959   5.956  20.309  0.00  0.00    +0.000 F 
ENDBRANCH   4   7
BRANCH   3  14
ATOM     14  S   UNL     1       2.208   3.690  17.494  0.00  0.00    +0.000 S 
ATOM     15  O   UNL     1       1.067   4.582  17.342  0.00  0.00    +0.000 OA
ATOM     16  O   UNL     1       2.348   2.522  16.643  0.00  0.00    +0.000 OA
BRANCH  14  17
ATOM     17  C   UNL     1       2.274   3.230  19.214  0.00  0.00    +0.000 A 
ATOM     18  C   UNL     1       1.137   3.338  19.999  0.00  0.00    +0.000 A 
ATOM     19  C   UNL     1       1.239   2.912  21.319  0.00  0.00    +0.000 A 
ATOM     20  C   UNL     1       2.436   2.361  21.779  0.00  0.00    +0.000 A 
ATOM     21  C   UNL     1       3.512   2.247  20.902  0.00  0.00    +0.000 A 
ATOM     22  C   UNL     1       4.779   1.560  21.329  0.00  0.00    +0.000 C 
ATOM     23  N   UNL     1       3.451   2.693  19.625  0.00  0.00    +0.000 NA
ENDBRANCH  14  17
ENDBRANCH   3  14
BRANCH   1  24
ATOM     24  C   UNL     1       7.027   4.854  15.807  0.00  0.00    +0.000 C 
BRANCH  24  26
ATOM     25  C   UNL     1       6.482   4.137  13.580  0.00  0.00    +0.000 C 
ATOM     26  N   UNL     1       6.930   5.251  14.403  0.00  0.00    +0.000 NA
ATOM     27  H   UNL     1       6.265   6.018  14.321  0.00  0.00    +0.000 HD
ENDBRANCH  24  26
ENDBRANCH   1  24
TORSDOF 5
ENDMDL
MODEL 3
REMARK VINA RESULT:      -8.0      0.986      1.291
REMARK  Name = 
REMARK  7 active torsions:
REMARK  status: ('A' for Active; 'I' for Inactive)
REMARK    1  A    between atoms: C_1  and  N_2
REMARK    2  A    between atoms: N_2  and  C_3
REMARK    3  A    between atoms: C_3  and  C_4
REMARK    4  A    between atoms: N_6  and  S_7
REMARK    5  A    between atoms: S_7  and  C_10
REMARK    6  A    between atoms: C_14  and  C_15
REMARK    7  A    between atoms: C_17  and  C_18
REMARK                            x       y       z     vdW  Elec       q    Type
REMARK                         _______ _______ _______ _____ _____    ______ ____
ROOT
ATOM      1  C   UNL     1       5.515   5.403  16.477  0.00  0.00    +0.000 A 
ATOM      2  C   UNL     1       4.573   4.403  16.551  0.00  0.00    +0.000 A 
ATOM      3  N   UNL     1       3.509   4.849  17.312  0.00  0.00    +0.000 N 
ATOM      4  C   UNL     1       3.737   6.149  17.808  0.00  0.00    +0.000 A 
ATOM      5  C   UNL     1       4.983   6.455  17.250  0.00  0.00    +0.000 A 
ATOM      6  F   UNL     1       5.630   7.576  17.385  0.00  0.00    +0.000 F 
ENDROOT
BRANCH   4   7
ATOM      7  C   UNL     1       2.858   7.042  18.641  0.00  0.00    +0.000 A 
ATOM      8  C   UNL     1       2.470   6.758  19.955  0.00  0.00    +0.000 A 
ATOM      9  C   UNL     1       1.601   7.564  20.688  0.00  0.00    +0.000 A 
ATOM     10  C   UNL     1       1.127   8.706  20.096  0.00  0.00    +0.000 A 
ATOM     11  N   UNL     1       1.471   9.070  18.851  0.00  0.00    +0.000 NA
ATOM     12  C   UNL     1       2.316   8.248  18.166  0.00  0.00    +0.000 A 
ATOM     13  F   UNL     1       2.614   8.700  16.940  0.00  0.00    +0.000 F 
ENDBRANCH   4   7
BRANCH   3  14
ATOM     14  S   UNL     1       2.161   3.811  17.537  0.00  0.00    +0.000 S 
ATOM     15  O   UNL     1       0.974   4.640  17.389  0.00  0.00    +0.000 OA
ATOM     16  O   UNL     1       2.384   2.679  16.655  0.00  0.00    +0.000 OA
BRANCH  14  17
ATOM     17  C   UNL     1       2.220   3.302  19.244  0.00  0.00    +0.000 A 
ATOM     18  C   UNL     1       1.086   3.403  20.032  0.00  0.00    +0.000 A 
ATOM     19  C   UNL     1       1.182   2.939  21.340  0.00  0.00    +0.000 A 
ATOM     20  C   UNL     1       2.371   2.360  21.784  0.00  0.00    +0.000 A 
ATOM     21  C   UNL     1       3.446   2.255  20.904  0.00  0.00    +0.000 A 
ATOM     22  C   UNL     1       4.702   1.540  21.310  0.00  0.00    +0.000 C 
ATOM     23  N   UNL     1       3.390   2.738  19.640  0.00  0.00    +0.000 NA
ENDBRANCH  14  17
ENDBRANCH   3  14
BRANCH   1  24
ATOM     24  C   UNL     1       6.822   5.395  15.755  0.00  0.00    +0.000 C 
BRANCH  24  26
ATOM     25  C   UNL     1       7.794   4.654  17.823  0.00  0.00    +0.000 C 
ATOM     26  N   UNL     1       7.697   4.412  16.391  0.00  0.00    +0.000 NA
ATOM     27  H   UNL     1       7.317   3.480  16.234  0.00  0.00    +0.000 HD
ENDBRANCH  24  26
ENDBRANCH   1  24
TORSDOF 5
ENDMDL
MODEL 4
REMARK VINA RESULT:      -7.8      2.746      6.449
REMARK  Name = 
REMARK  7 active torsions:
REMARK  status: ('A' for Active; 'I' for Inactive)
REMARK    1  A    between atoms: C_1  and  N_2
REMARK    2  A    between atoms: N_2  and  C_3
REMARK    3  A    between atoms: C_3  and  C_4
REMARK    4  A    between atoms: N_6  and  S_7
REMARK    5  A    between atoms: S_7  and  C_10
REMARK    6  A    between atoms: C_14  and  C_15
REMARK    7  A    between atoms: C_17  and  C_18
REMARK                            x       y       z     vdW  Elec       q    Type
REMARK                         _______ _______ _______ _____ _____    ______ ____
ROOT
ATOM      1  C   UNL     1       3.221   7.492  17.771  0.00  0.00    +0.000 A 
ATOM      2  C   UNL     1       4.562   7.388  17.483  0.00  0.00    +0.000 A 
ATOM      3  N   UNL     1       4.965   6.084  17.704  0.00  0.00    +0.000 N 
ATOM      4  C   UNL     1       3.907   5.292  18.193  0.00  0.00    +0.000 A 
ATOM      5  C   UNL     1       2.845   6.204  18.201  0.00  0.00    +0.000 A 
ATOM      6  F   UNL     1       1.617   5.948  18.550  0.00  0.00    +0.000 F 
ENDROOT
BRANCH   4   7
ATOM      7  C   UNL     1       3.864   3.828  18.537  0.00  0.00    +0.000 A 
ATOM      8  C   UNL     1       4.447   3.272  19.683  0.00  0.00    +0.000 A 
ATOM      9  C   UNL     1       4.455   1.905  19.951  0.00  0.00    +0.000 A 
ATOM     10  C   UNL     1       3.836   1.069  19.059  0.00  0.00    +0.000 A 
ATOM     11  N   UNL     1       3.226   1.519  17.951  0.00  0.00    +0.000 NA
ATOM     12  C   UNL     1       3.250   2.863  17.721  0.00  0.00    +0.000 A 
ATOM     13  F   UNL     1       2.604   3.219  16.603  0.00  0.00    +0.000 F 
ENDBRANCH   4   7
BRANCH   3  14
ATOM     14  S   UNL     1       6.596   5.656  17.382  0.00  0.00    +0.000 S 
ATOM     15  O   UNL     1       7.348   6.902  17.346  0.00  0.00    +0.000 OA
ATOM     16  O   UNL     1       6.930   4.623  18.345  0.00  0.00    +0.000 OA
BRANCH  14  17
ATOM     17  C   UNL     1       6.608   5.002  15.724  0.00  0.00    +0.000 A 
ATOM     18  C   UNL     1       5.640   4.090  15.337  0.00  0.00    +0.000 A 
ATOM     19  C   UNL     1       5.672   3.658  14.016  0.00  0.00    +0.000 A 
ATOM     20  C   UNL     1       6.620   4.184  13.138  0.00  0.00    +0.000 A 
ATOM     21  C   UNL     1       7.523   5.136  13.604  0.00  0.00    +0.000 A 
ATOM     22  C   UNL     1       8.486   5.805  12.664  0.00  0.00    +0.000 C 
ATOM     23  N   UNL     1       7.540   5.540  14.896  0.00  0.00    +0.000 NA
ENDBRANCH  14  17
ENDBRANCH   3  14
BRANCH   1  24
ATOM     24  C   UNL     1       2.341   8.694  17.671  0.00  0.00    +0.000 C 
BRANCH  24  26
ATOM     25  C   UNL     1       0.627   9.864  18.882  0.00  0.00    +0.000 C 
ATOM     26  N   UNL     1       1.756   8.951  18.986  0.00  0.00    +0.000 NA
ATOM     27  H   UNL     1       1.439   8.070  19.386  0.00  0.00    +0.000 HD
ENDBRANCH  24  26
ENDBRANCH   1  24
TORSDOF 5
ENDMDL
MODEL 5
REMARK VINA RESULT:      -7.8      1.243      1.675
REMARK  Name = 
REMARK  7 active torsions:
REMARK  status: ('A' for Active; 'I' for Inactive)
REMARK    1  A    between atoms: C_1  and  N_2
REMARK    2  A    between atoms: N_2  and  C_3
REMARK    3  A    between atoms: C_3  and  C_4
REMARK    4  A    between atoms: N_6  and  S_7
REMARK    5  A    between atoms: S_7  and  C_10
REMARK    6  A    between atoms: C_14  and  C_15
REMARK    7  A    between atoms: C_17  and  C_18
REMARK                            x       y       z     vdW  Elec       q    Type
REMARK                         _______ _______ _______ _____ _____    ______ ____
ROOT
ATOM      1  C   UNL     1       5.583   5.180  16.456  0.00  0.00    +0.000 A 
ATOM      2  C   UNL     1       4.622   4.202  16.556  0.00  0.00    +0.000 A 
ATOM      3  N   UNL     1       3.565   4.690  17.302  0.00  0.00    +0.000 N 
ATOM      4  C   UNL     1       3.818   5.999  17.761  0.00  0.00    +0.000 A 
ATOM      5  C   UNL     1       5.071   6.264  17.197  0.00  0.00    +0.000 A 
ATOM      6  F   UNL     1       5.740   7.376  17.301  0.00  0.00    +0.000 F 
ENDROOT
BRANCH   4   7
ATOM      7  C   UNL     1       2.955   6.933  18.565  0.00  0.00    +0.000 A 
ATOM      8  C   UNL     1       2.558   6.695  19.886  0.00  0.00    +0.000 A 
ATOM      9  C   UNL     1       1.704   7.539  20.592  0.00  0.00    +0.000 A 
ATOM     10  C   UNL     1       1.255   8.673  19.967  0.00  0.00    +0.000 A 
ATOM     11  N   UNL     1       1.610   8.994  18.714  0.00  0.00    +0.000 NA
ATOM     12  C   UNL     1       2.439   8.136  18.054  0.00  0.00    +0.000 A 
ATOM     13  F   UNL     1       2.750   8.547  16.817  0.00  0.00    +0.000 F 
ENDBRANCH   4   7
BRANCH   3  14
ATOM     14  S   UNL     1       2.196   3.686  17.553  0.00  0.00    +0.000 S 
ATOM     15  O   UNL     1       1.026   4.538  17.391  0.00  0.00    +0.000 OA
ATOM     16  O   UNL     1       2.391   2.532  16.694  0.00  0.00    +0.000 OA
BRANCH  14  17
ATOM     17  C   UNL     1       2.251   3.212  19.270  0.00  0.00    +0.000 A 
ATOM     18  C   UNL     1       1.112   3.322  20.051  0.00  0.00    +0.000 A 
ATOM     19  C   UNL     1       1.205   2.885  21.368  0.00  0.00    +0.000 A 
ATOM     20  C   UNL     1       2.396   2.322  21.829  0.00  0.00    +0.000 A 
ATOM     21  C   UNL     1       3.475   2.207  20.956  0.00  0.00    +0.000 A 
ATOM     22  C   UNL     1       4.735   1.508  21.382  0.00  0.00    +0.000 C 
ATOM     23  N   UNL     1       3.423   2.664  19.682  0.00  0.00    +0.000 NA
ENDBRANCH  14  17
ENDBRANCH   3  14
BRANCH   1  24
ATOM     24  C   UNL     1       6.892   5.125  15.738  0.00  0.00    +0.000 C 
BRANCH  24  26
ATOM     25  C   UNL     1       6.638   4.167  13.549  0.00  0.00    +0.000 C 
ATOM     26  N   UNL     1       6.654   5.401  14.321  0.00  0.00    +0.000 NA
ATOM     27  H   UNL     1       5.757   5.872  14.221  0.00  0.00    +0.000 HD
ENDBRANCH  24  26
ENDBRANCH   1  24
TORSDOF 5
ENDMDL
MODEL 6
REMARK VINA RESULT:      -7.1      2.548      6.241
REMARK  Name = 
REMARK  7 active torsions:
REMARK  status: ('A' for Active; 'I' for Inactive)
REMARK    1  A    between atoms: C_1  and  N_2
REMARK    2  A    between atoms: N_2  and  C_3
REMARK    3  A    between atoms: C_3  and  C_4
REMARK    4  A    between atoms: N_6  and  S_7
REMARK    5  A    between atoms: S_7  and  C_10
REMARK    6  A    between atoms: C_14  and  C_15
REMARK    7  A    between atoms: C_17  and  C_18
REMARK                            x       y       z     vdW  Elec       q    Type
REMARK                         _______ _______ _______ _____ _____    ______ ____
ROOT
ATOM      1  C   UNL     1       3.221   7.695  17.680  0.00  0.00    +0.000 A 
ATOM      2  C   UNL     1       4.558   7.483  17.436  0.00  0.00    +0.000 A 
ATOM      3  N   UNL     1       4.855   6.160  17.702  0.00  0.00    +0.000 N 
ATOM      4  C   UNL     1       3.727   5.462  18.179  0.00  0.00    +0.000 A 
ATOM      5  C   UNL     1       2.737   6.451  18.132  0.00  0.00    +0.000 A 
ATOM      6  F   UNL     1       1.484   6.297  18.448  0.00  0.00    +0.000 F 
ENDROOT
BRANCH   4   7
ATOM      7  C   UNL     1       3.565   4.016  18.560  0.00  0.00    +0.000 A 
ATOM      8  C   UNL     1       3.726   2.947  17.671  0.00  0.00    +0.000 A 
ATOM      9  C   UNL     1       3.506   1.618  18.025  0.00  0.00    +0.000 A 
ATOM     10  C   UNL     1       3.141   1.346  19.317  0.00  0.00    +0.000 A 
ATOM     11  N   UNL     1       2.994   2.307  20.243  0.00  0.00    +0.000 NA
ATOM     12  C   UNL     1       3.209   3.595  19.852  0.00  0.00    +0.000 A 
ATOM     13  F   UNL     1       3.054   4.481  20.845  0.00  0.00    +0.000 F 
ENDBRANCH   4   7
BRANCH   3  14
ATOM     14  S   UNL     1       6.458   5.604  17.442  0.00  0.00    +0.000 S 
ATOM     15  O   UNL     1       7.313   6.782  17.478  0.00  0.00    +0.000 OA
ATOM     16  O   UNL     1       6.658   4.520  18.387  0.00  0.00    +0.000 OA
BRANCH  14  17
ATOM     17  C   UNL     1       6.494   4.995  15.767  0.00  0.00    +0.000 A 
ATOM     18  C   UNL     1       5.493   4.149  15.321  0.00  0.00    +0.000 A 
ATOM     19  C   UNL     1       5.548   3.752  13.989  0.00  0.00    +0.000 A 
ATOM     20  C   UNL     1       6.555   4.248  13.160  0.00  0.00    +0.000 A 
ATOM     21  C   UNL     1       7.492   5.136  13.684  0.00  0.00    +0.000 A 
ATOM     22  C   UNL     1       8.523   5.775  12.799  0.00  0.00    +0.000 C 
ATOM     23  N   UNL     1       7.484   5.503  14.988  0.00  0.00    +0.000 NA
ENDBRANCH  14  17
ENDBRANCH   3  14
BRANCH   1  24
ATOM     24  C   UNL     1       2.437   8.956  17.522  0.00  0.00    +0.000 C 
BRANCH  24  26
ATOM     25  C   UNL     1       0.479   9.855  18.585  0.00  0.00    +0.000 C 
ATOM     26  N   UNL     1       1.792   9.264  18.798  0.00  0.00    +0.000 NA
ATOM     27  H   UNL     1       1.691   8.404  19.333  0.00  0.00    +0.000 HD
ENDBRANCH  24  26
ENDBRANCH   1  24
TORSDOF 5
ENDMDL
MODEL 7
REMARK VINA RESULT:      -7.0      1.010      1.724
REMARK  Name = 
REMARK  7 active torsions:
REMARK  status: ('A' for Active; 'I' for Inactive)
REMARK    1  A    between atoms: C_1  and  N_2
REMARK    2  A    between atoms: N_2  and  C_3
REMARK    3  A    between atoms: C_3  and  C_4
REMARK    4  A    between atoms: N_6  and  S_7
REMARK    5  A    between atoms: S_7  and  C_10
REMARK    6  A    between atoms: C_14  and  C_15
REMARK    7  A    between atoms: C_17  and  C_18
REMARK                            x       y       z     vdW  Elec       q    Type
REMARK                         _______ _______ _______ _____ _____    ______ ____
ROOT
ATOM      1  C   UNL     1       5.825   5.228  16.239  0.00  0.00    +0.000 A 
ATOM      2  C   UNL     1       4.914   4.218  16.439  0.00  0.00    +0.000 A 
ATOM      3  N   UNL     1       3.827   4.728  17.124  0.00  0.00    +0.000 N 
ATOM      4  C   UNL     1       4.008   6.089  17.441  0.00  0.00    +0.000 A 
ATOM      5  C   UNL     1       5.251   6.357  16.857  0.00  0.00    +0.000 A 
ATOM      6  F   UNL     1       5.862   7.507  16.846  0.00  0.00    +0.000 F 
ENDROOT
BRANCH   4   7
ATOM      7  C   UNL     1       3.091   7.058  18.137  0.00  0.00    +0.000 A 
ATOM      8  C   UNL     1       2.546   8.197  17.533  0.00  0.00    +0.000 A 
ATOM      9  C   UNL     1       1.753   9.119  18.213  0.00  0.00    +0.000 A 
ATOM     10  C   UNL     1       1.472   8.879  19.532  0.00  0.00    +0.000 A 
ATOM     11  N   UNL     1       1.927   7.796  20.182  0.00  0.00    +0.000 NA
ATOM     12  C   UNL     1       2.709   6.925  19.483  0.00  0.00    +0.000 A 
ATOM     13  F   UNL     1       3.103   5.869  20.207  0.00  0.00    +0.000 F 
ENDBRANCH   4   7
BRANCH   3  14
ATOM     14  S   UNL     1       2.507   3.687  17.475  0.00  0.00    +0.000 S 
ATOM     15  O   UNL     1       1.351   4.546  17.687  0.00  0.00    +0.000 OA
ATOM     16  O   UNL     1       2.500   2.690  16.419  0.00  0.00    +0.000 OA
BRANCH  14  17
ATOM     17  C   UNL     1       2.886   2.939  19.048  0.00  0.00    +0.000 A 
ATOM     18  C   UNL     1       4.167   2.478  19.300  0.00  0.00    +0.000 A 
ATOM     19  C   UNL     1       4.412   1.954  20.565  0.00  0.00    +0.000 A 
ATOM     20  C   UNL     1       3.399   1.957  21.524  0.00  0.00    +0.000 A 
ATOM     21  C   UNL     1       2.154   2.487  21.195  0.00  0.00    +0.000 A 
ATOM     22  C   UNL     1       1.074   2.608  22.232  0.00  0.00    +0.000 C 
ATOM     23  N   UNL     1       1.878   2.964  19.958  0.00  0.00    +0.000 NA
ENDBRANCH  14  17
ENDBRANCH   3  14
BRANCH   1  24
ATOM     24  C   UNL     1       7.142   5.165  15.537  0.00  0.00    +0.000 C 
BRANCH  24  26
ATOM     25  C   UNL     1       6.572   4.039  13.492  0.00  0.00    +0.000 C 
ATOM     26  N   UNL     1       6.908   5.317  14.101  0.00  0.00    +0.000 NA
ATOM     27  H   UNL     1       6.140   5.970  13.958  0.00  0.00    +0.000 HD
ENDBRANCH  24  26
ENDBRANCH   1  24
TORSDOF 5
ENDMDL
MODEL 8
REMARK VINA RESULT:      -6.9      1.309      4.326
REMARK  Name = 
REMARK  7 active torsions:
REMARK  status: ('A' for Active; 'I' for Inactive)
REMARK    1  A    between atoms: C_1  and  N_2
REMARK    2  A    between atoms: N_2  and  C_3
REMARK    3  A    between atoms: C_3  and  C_4
REMARK    4  A    between atoms: N_6  and  S_7
REMARK    5  A    between atoms: S_7  and  C_10
REMARK    6  A    between atoms: C_14  and  C_15
REMARK    7  A    between atoms: C_17  and  C_18
REMARK                            x       y       z     vdW  Elec       q    Type
REMARK                         _______ _______ _______ _____ _____    ______ ____
ROOT
ATOM      1  C   UNL     1       2.273   7.883  18.232  0.00  0.00    +0.000 A 
ATOM      2  C   UNL     1       1.672   6.646  18.200  0.00  0.00    +0.000 A 
ATOM      3  N   UNL     1       2.589   5.717  17.745  0.00  0.00    +0.000 N 
ATOM      4  C   UNL     1       3.819   6.323  17.415  0.00  0.00    +0.000 A 
ATOM      5  C   UNL     1       3.578   7.661  17.749  0.00  0.00    +0.000 A 
ATOM      6  F   UNL     1       4.431   8.640  17.656  0.00  0.00    +0.000 F 
ENDROOT
BRANCH   4   7
ATOM      7  C   UNL     1       5.103   5.715  16.921  0.00  0.00    +0.000 A 
ATOM      8  C   UNL     1       5.470   5.641  15.573  0.00  0.00    +0.000 A 
ATOM      9  C   UNL     1       6.633   5.014  15.129  0.00  0.00    +0.000 A 
ATOM     10  C   UNL     1       7.469   4.468  16.067  0.00  0.00    +0.000 A 
ATOM     11  N   UNL     1       7.211   4.521  17.383  0.00  0.00    +0.000 NA
ATOM     12  C   UNL     1       6.057   5.134  17.774  0.00  0.00    +0.000 A 
ATOM     13  F   UNL     1       5.892   5.151  19.103  0.00  0.00    +0.000 F 
ENDBRANCH   4   7
BRANCH   3  14
ATOM     14  S   UNL     1       2.117   4.070  17.644  0.00  0.00    +0.000 S 
ATOM     15  O   UNL     1       0.694   4.068  17.336  0.00  0.00    +0.000 OA
ATOM     16  O   UNL     1       3.067   3.443  16.741  0.00  0.00    +0.000 OA
BRANCH  14  17
ATOM     17  C   UNL     1       2.286   3.415  19.293  0.00  0.00    +0.000 A 
ATOM     18  C   UNL     1       1.197   3.414  20.148  0.00  0.00    +0.000 A 
ATOM     19  C   UNL     1       1.378   2.840  21.401  0.00  0.00    +0.000 A 
ATOM     20  C   UNL     1       2.604   2.257  21.725  0.00  0.00    +0.000 A 
ATOM     21  C   UNL     1       3.629   2.261  20.782  0.00  0.00    +0.000 A 
ATOM     22  C   UNL     1       4.923   1.548  21.053  0.00  0.00    +0.000 C 
ATOM     23  N   UNL     1       3.490   2.851  19.571  0.00  0.00    +0.000 NA
ENDBRANCH  14  17
ENDBRANCH   3  14
BRANCH   1  24
ATOM     24  C   UNL     1       1.689   9.188  18.665  0.00  0.00    +0.000 C 
BRANCH  24  26
ATOM     25  C   UNL     1       2.288  11.423  18.019  0.00  0.00    +0.000 C 
ATOM     26  N   UNL     1       1.796  10.134  17.555  0.00  0.00    +0.000 NA
ATOM     27  H   UNL     1       2.441   9.759  16.861  0.00  0.00    +0.000 HD
ENDBRANCH  24  26
ENDBRANCH   1  24
TORSDOF 5
ENDMDL
MODEL 9
REMARK VINA RESULT:      -6.9      2.290      6.034
REMARK  Name = 
REMARK  7 active torsions:
REMARK  status: ('A' for Active; 'I' for Inactive)
REMARK    1  A    between atoms: C_1  and  N_2
REMARK    2  A    between atoms: N_2  and  C_3
REMARK    3  A    between atoms: C_3  and  C_4
REMARK    4  A    between atoms: N_6  and  S_7
REMARK    5  A    between atoms: S_7  and  C_10
REMARK    6  A    between atoms: C_14  and  C_15
REMARK    7  A    between atoms: C_17  and  C_18
REMARK                            x       y       z     vdW  Elec       q    Type
REMARK                         _______ _______ _______ _____ _____    ______ ____
ROOT
ATOM      1  C   UNL     1       1.826   3.713  18.452  0.00  0.00    +0.000 A 
ATOM      2  C   UNL     1       1.891   5.078  18.609  0.00  0.00    +0.000 A 
ATOM      3  N   UNL     1       2.997   5.553  17.931  0.00  0.00    +0.000 N 
ATOM      4  C   UNL     1       3.730   4.504  17.338  0.00  0.00    +0.000 A 
ATOM      5  C   UNL     1       2.956   3.388  17.675  0.00  0.00    +0.000 A 
ATOM      6  F   UNL     1       3.195   2.155  17.330  0.00  0.00    +0.000 F 
ENDROOT
BRANCH   4   7
ATOM      7  C   UNL     1       4.968   4.541  16.484  0.00  0.00    +0.000 A 
ATOM      8  C   UNL     1       4.959   4.486  15.085  0.00  0.00    +0.000 A 
ATOM      9  C   UNL     1       6.118   4.455  14.314  0.00  0.00    +0.000 A 
ATOM     10  C   UNL     1       7.326   4.508  14.960  0.00  0.00    +0.000 A 
ATOM     11  N   UNL     1       7.426   4.593  16.296  0.00  0.00    +0.000 NA
ATOM     12  C   UNL     1       6.267   4.611  17.014  0.00  0.00    +0.000 A 
ATOM     13  F   UNL     1       6.466   4.713  18.335  0.00  0.00    +0.000 F 
ENDBRANCH   4   7
BRANCH   3  14
ATOM     14  S   UNL     1       3.302   7.242  17.924  0.00  0.00    +0.000 S 
ATOM     15  O   UNL     1       4.621   7.425  18.512  0.00  0.00    +0.000 OA
ATOM     16  O   UNL     1       3.033   7.685  16.567  0.00  0.00    +0.000 OA
BRANCH  14  17
ATOM     17  C   UNL     1       2.130   7.951  19.064  0.00  0.00    +0.000 A 
ATOM     18  C   UNL     1       2.048   7.465  20.358  0.00  0.00    +0.000 A 
ATOM     19  C   UNL     1       1.152   8.095  21.215  0.00  0.00    +0.000 A 
ATOM     20  C   UNL     1       0.424   9.197  20.765  0.00  0.00    +0.000 A 
ATOM     21  C   UNL     1       0.608   9.648  19.460  0.00  0.00    +0.000 A 
ATOM     22  C   UNL     1      -0.074  10.895  18.976  0.00  0.00    +0.000 C 
ATOM     23  N   UNL     1       1.443   9.024  18.595  0.00  0.00    +0.000 NA
ENDBRANCH  14  17
ENDBRANCH   3  14
BRANCH   1  24
ATOM     24  C   UNL     1       0.803   2.765  18.985  0.00  0.00    +0.000 C 
BRANCH  24  26
ATOM     25  C   UNL     1       1.496   2.666  21.283  0.00  0.00    +0.000 C 
ATOM     26  N   UNL     1       0.483   3.153  20.359  0.00  0.00    +0.000 NA
ATOM     27  H   UNL     1       0.438   4.169  20.414  0.00  0.00    +0.000 HD
ENDBRANCH  24  26
ENDBRANCH   1  24
TORSDOF 5
ENDMDL
