MODEL 1
REMARK VINA RESULT:      -7.9      0.000      0.000
REMARK  Name = 
REMARK  3 active torsions:
REMARK  status: ('A' for Active; 'I' for Inactive)
REMARK    1  A    between atoms: C_1  and  C_2
REMARK    2  A    between atoms: C_4  and  C_5
REMARK    3  A    between atoms: C_9  and  C_10
REMARK                            x       y       z     vdW  Elec       q    Type
REMARK                         _______ _______ _______ _____ _____    ______ ____
ROOT
ATOM      1  C   UNL     1       1.282   2.132  19.337  0.00  0.00    +0.000 C 
ATOM      2  C   UNL     1       2.047   3.307  18.802  0.00  0.00    +0.000 A 
ATOM      3  C   UNL     1       1.920   4.569  19.383  0.00  0.00    +0.000 A 
ATOM      4  C   UNL     1       2.659   5.656  18.894  0.00  0.00    +0.000 A 
ATOM      5  C   UNL     1       2.481   7.004  19.544  0.00  0.00    +0.000 C 
ATOM      6  C   UNL     1       3.545   5.465  17.800  0.00  0.00    +0.000 A 
ATOM      7  C   UNL     1       4.344   6.489  17.269  0.00  0.00    +0.000 A 
ATOM      8  C   UNL     1       5.175   6.245  16.180  0.00  0.00    +0.000 A 
ATOM      9  C   UNL     1       5.190   4.977  15.614  0.00  0.00    +0.000 A 
ATOM     10  N   UNL     1       4.454   3.960  16.133  0.00  0.00    +0.000 NA
ATOM     11  C   UNL     1       3.655   4.197  17.192  0.00  0.00    +0.000 A 
ATOM     12  C   UNL     1       2.906   3.149  17.707  0.00  0.00    +0.000 A 
ENDROOT
BRANCH   9  13
ATOM     13  C   UNL     1       5.965   4.663  14.395  0.00  0.00    +0.000 A 
ATOM     14  C   UNL     1       5.502   3.718  13.461  0.00  0.00    +0.000 A 
ATOM     15  C   UNL     1       6.212   3.448  12.286  0.00  0.00    +0.000 A 
ATOM     16  C   UNL     1       7.402   4.119  12.018  0.00  0.00    +0.000 A 
ATOM     17  C   UNL     1       7.886   5.054  12.927  0.00  0.00    +0.000 A 
ATOM     18  C   UNL     1       7.175   5.321  14.100  0.00  0.00    +0.000 A 
ENDBRANCH   9  13
TORSDOF 1
ENDMDL
MODEL 2
REMARK VINA RESULT:      -7.7      0.053      1.135
REMARK  Name = 
REMARK  3 active torsions:
REMARK  status: ('A' for Active; 'I' for Inactive)
REMARK    1  A    between atoms: C_1  and  C_2
REMARK    2  A    between atoms: C_4  and  C_5
REMARK    3  A    between atoms: C_9  and  C_10
REMARK                            x       y       z     vdW  Elec       q    Type
REMARK                         _______ _______ _______ _____ _____    ______ ____
ROOT
ATOM      1  C   UNL     1       1.320   2.128  19.385  0.00  0.00    +0.000 C 
ATOM      2  C   UNL     1       2.066   3.310  18.839  0.00  0.00    +0.000 A 
ATOM      3  C   UNL     1       1.936   4.571  19.422  0.00  0.00    +0.000 A 
ATOM      4  C   UNL     1       2.656   5.665  18.922  0.00  0.00    +0.000 A 
ATOM      5  C   UNL     1       2.476   7.011  19.575  0.00  0.00    +0.000 C 
ATOM      6  C   UNL     1       3.527   5.483  17.815  0.00  0.00    +0.000 A 
ATOM      7  C   UNL     1       4.309   6.513  17.271  0.00  0.00    +0.000 A 
ATOM      8  C   UNL     1       5.124   6.278  16.169  0.00  0.00    +0.000 A 
ATOM      9  C   UNL     1       5.143   5.010  15.603  0.00  0.00    +0.000 A 
ATOM     10  N   UNL     1       4.424   3.987  16.132  0.00  0.00    +0.000 NA
ATOM     11  C   UNL     1       3.640   4.216  17.204  0.00  0.00    +0.000 A 
ATOM     12  C   UNL     1       2.909   3.160  17.730  0.00  0.00    +0.000 A 
ENDROOT
BRANCH   9  13
ATOM     13  C   UNL     1       5.901   4.704  14.372  0.00  0.00    +0.000 A 
ATOM     14  C   UNL     1       7.143   5.311  14.111  0.00  0.00    +0.000 A 
ATOM     15  C   UNL     1       7.883   4.994  12.967  0.00  0.00    +0.000 A 
ATOM     16  C   UNL     1       7.396   4.059  12.057  0.00  0.00    +0.000 A 
ATOM     17  C   UNL     1       6.168   3.448  12.286  0.00  0.00    +0.000 A 
ATOM     18  C   UNL     1       5.432   3.768  13.430  0.00  0.00    +0.000 A 
ENDBRANCH   9  13
TORSDOF 1
ENDMDL
MODEL 3
REMARK VINA RESULT:      -7.7      3.224      5.723
REMARK  Name = 
REMARK  3 active torsions:
REMARK  status: ('A' for Active; 'I' for Inactive)
REMARK    1  A    between atoms: C_1  and  C_2
REMARK    2  A    between atoms: C_4  and  C_5
REMARK    3  A    between atoms: C_9  and  C_10
REMARK                            x       y       z     vdW  Elec       q    Type
REMARK                         _______ _______ _______ _____ _____    ______ ____
ROOT
ATOM      1  C   UNL     1      -0.129   9.624  23.391  0.00  0.00    +0.000 C 
ATOM      2  C   UNL     1       0.315   9.616  21.958  0.00  0.00    +0.000 A 
ATOM      3  C   UNL     1       0.070  10.708  21.125  0.00  0.00    +0.000 A 
ATOM      4  C   UNL     1       0.513  10.703  19.795  0.00  0.00    +0.000 A 
ATOM      5  C   UNL     1       0.215  11.899  18.928  0.00  0.00    +0.000 C 
ATOM      6  C   UNL     1       1.219   9.577  19.296  0.00  0.00    +0.000 A 
ATOM      7  C   UNL     1       1.726   9.501  17.989  0.00  0.00    +0.000 A 
ATOM      8  C   UNL     1       2.388   8.359  17.551  0.00  0.00    +0.000 A 
ATOM      9  C   UNL     1       2.529   7.287  18.421  0.00  0.00    +0.000 A 
ATOM     10  N   UNL     1       2.081   7.349  19.702  0.00  0.00    +0.000 NA
ATOM     11  C   UNL     1       1.445   8.459  20.125  0.00  0.00    +0.000 A 
ATOM     12  C   UNL     1       0.990   8.504  21.436  0.00  0.00    +0.000 A 
ENDROOT
BRANCH   9  13
ATOM     13  C   UNL     1       3.128   6.002  18.003  0.00  0.00    +0.000 A 
ATOM     14  C   UNL     1       2.345   4.839  17.881  0.00  0.00    +0.000 A 
ATOM     15  C   UNL     1       2.900   3.630  17.446  0.00  0.00    +0.000 A 
ATOM     16  C   UNL     1       4.253   3.558  17.123  0.00  0.00    +0.000 A 
ATOM     17  C   UNL     1       5.051   4.690  17.241  0.00  0.00    +0.000 A 
ATOM     18  C   UNL     1       4.493   5.896  17.675  0.00  0.00    +0.000 A 
ENDBRANCH   9  13
TORSDOF 1
ENDMDL
MODEL 4
REMARK VINA RESULT:      -7.6      3.254      5.842
REMARK  Name = 
REMARK  3 active torsions:
REMARK  status: ('A' for Active; 'I' for Inactive)
REMARK    1  A    between atoms: C_1  and  C_2
REMARK    2  A    between atoms: C_4  and  C_5
REMARK    3  A    between atoms: C_9  and  C_10
REMARK                            x       y       z     vdW  Elec       q    Type
REMARK                         _______ _______ _______ _____ _____    ______ ____
ROOT
ATOM      1  C   UNL     1      -0.127   9.550  23.452  0.00  0.00    +0.000 C 
ATOM      2  C   UNL     1       0.323   9.605  22.021  0.00  0.00    +0.000 A 
ATOM      3  C   UNL     1       0.107  10.744  21.245  0.00  0.00    +0.000 A 
ATOM      4  C   UNL     1       0.554  10.797  19.918  0.00  0.00    +0.000 A 
ATOM      5  C   UNL     1       0.288  12.043  19.113  0.00  0.00    +0.000 C 
ATOM      6  C   UNL     1       1.234   9.681  19.363  0.00  0.00    +0.000 A 
ATOM      7  C   UNL     1       1.743   9.660  18.055  0.00  0.00    +0.000 A 
ATOM      8  C   UNL     1       2.379   8.526  17.561  0.00  0.00    +0.000 A 
ATOM      9  C   UNL     1       2.491   7.407  18.374  0.00  0.00    +0.000 A 
ATOM     10  N   UNL     1       2.040   7.414  19.656  0.00  0.00    +0.000 NA
ATOM     11  C   UNL     1       1.430   8.516  20.134  0.00  0.00    +0.000 A 
ATOM     12  C   UNL     1       0.972   8.505  21.445  0.00  0.00    +0.000 A 
ENDROOT
BRANCH   9  13
ATOM     13  C   UNL     1       3.060   6.131  17.892  0.00  0.00    +0.000 A 
ATOM     14  C   UNL     1       4.350   6.073  17.334  0.00  0.00    +0.000 A 
ATOM     15  C   UNL     1       4.908   4.861  16.913  0.00  0.00    +0.000 A 
ATOM     16  C   UNL     1       4.186   3.677  17.043  0.00  0.00    +0.000 A 
ATOM     17  C   UNL     1       2.906   3.706  17.586  0.00  0.00    +0.000 A 
ATOM     18  C   UNL     1       2.352   4.919  18.004  0.00  0.00    +0.000 A 
ENDBRANCH   9  13
TORSDOF 1
ENDMDL
MODEL 5
REMARK VINA RESULT:      -7.4      1.267      3.115
REMARK  Name = 
REMARK  3 active torsions:
REMARK  status: ('A' for Active; 'I' for Inactive)
REMARK    1  A    between atoms: C_1  and  C_2
REMARK    2  A    between atoms: C_4  and  C_5
REMARK    3  A    between atoms: C_9  and  C_10
REMARK                            x       y       z     vdW  Elec       q    Type
REMARK                         _______ _______ _______ _____ _____    ______ ____
ROOT
ATOM      1  C   UNL     1       1.441   7.998  20.855  0.00  0.00    +0.000 C 
ATOM      2  C   UNL     1       1.866   6.678  20.282  0.00  0.00    +0.000 A 
ATOM      3  C   UNL     1       1.421   5.478  20.837  0.00  0.00    +0.000 A 
ATOM      4  C   UNL     1       1.801   4.249  20.279  0.00  0.00    +0.000 A 
ATOM      5  C   UNL     1       1.306   2.978  20.918  0.00  0.00    +0.000 C 
ATOM      6  C   UNL     1       2.644   4.231  19.136  0.00  0.00    +0.000 A 
ATOM      7  C   UNL     1       3.047   3.050  18.494  0.00  0.00    +0.000 A 
ATOM      8  C   UNL     1       3.895   3.096  17.393  0.00  0.00    +0.000 A 
ATOM      9  C   UNL     1       4.351   4.328  16.944  0.00  0.00    +0.000 A 
ATOM     10  N   UNL     1       3.946   5.488  17.525  0.00  0.00    +0.000 NA
ATOM     11  C   UNL     1       3.120   5.441  18.588  0.00  0.00    +0.000 A 
ATOM     12  C   UNL     1       2.719   6.634  19.171  0.00  0.00    +0.000 A 
ENDROOT
BRANCH   9  13
ATOM     13  C   UNL     1       5.333   4.458  15.847  0.00  0.00    +0.000 A 
ATOM     14  C   UNL     1       6.561   5.116  16.043  0.00  0.00    +0.000 A 
ATOM     15  C   UNL     1       7.510   5.205  15.019  0.00  0.00    +0.000 A 
ATOM     16  C   UNL     1       7.252   4.636  13.774  0.00  0.00    +0.000 A 
ATOM     17  C   UNL     1       6.043   3.986  13.551  0.00  0.00    +0.000 A 
ATOM     18  C   UNL     1       5.097   3.899  14.576  0.00  0.00    +0.000 A 
ENDBRANCH   9  13
TORSDOF 1
ENDMDL
MODEL 6
REMARK VINA RESULT:      -7.4      1.257      2.907
REMARK  Name = 
REMARK  3 active torsions:
REMARK  status: ('A' for Active; 'I' for Inactive)
REMARK    1  A    between atoms: C_1  and  C_2
REMARK    2  A    between atoms: C_4  and  C_5
REMARK    3  A    between atoms: C_9  and  C_10
REMARK                            x       y       z     vdW  Elec       q    Type
REMARK                         _______ _______ _______ _____ _____    ______ ____
ROOT
ATOM      1  C   UNL     1       1.463   7.973  20.813  0.00  0.00    +0.000 C 
ATOM      2  C   UNL     1       1.876   6.645  20.247  0.00  0.00    +0.000 A 
ATOM      3  C   UNL     1       1.415   5.453  20.805  0.00  0.00    +0.000 A 
ATOM      4  C   UNL     1       1.784   4.218  20.252  0.00  0.00    +0.000 A 
ATOM      5  C   UNL     1       1.272   2.955  20.895  0.00  0.00    +0.000 C 
ATOM      6  C   UNL     1       2.631   4.186  19.113  0.00  0.00    +0.000 A 
ATOM      7  C   UNL     1       3.023   2.998  18.478  0.00  0.00    +0.000 A 
ATOM      8  C   UNL     1       3.876   3.030  17.379  0.00  0.00    +0.000 A 
ATOM      9  C   UNL     1       4.348   4.256  16.928  0.00  0.00    +0.000 A 
ATOM     10  N   UNL     1       3.954   5.422  17.502  0.00  0.00    +0.000 NA
ATOM     11  C   UNL     1       3.123   5.388  18.562  0.00  0.00    +0.000 A 
ATOM     12  C   UNL     1       2.733   6.589  19.140  0.00  0.00    +0.000 A 
ENDROOT
BRANCH   9  13
ATOM     13  C   UNL     1       5.336   4.370  15.835  0.00  0.00    +0.000 A 
ATOM     14  C   UNL     1       5.109   3.770  14.582  0.00  0.00    +0.000 A 
ATOM     15  C   UNL     1       6.023   3.910  13.532  0.00  0.00    +0.000 A 
ATOM     16  C   UNL     1       7.185   4.656  13.712  0.00  0.00    +0.000 A 
ATOM     17  C   UNL     1       7.438   5.255  14.941  0.00  0.00    +0.000 A 
ATOM     18  C   UNL     1       6.523   5.113  15.988  0.00  0.00    +0.000 A 
ENDBRANCH   9  13
TORSDOF 1
ENDMDL
MODEL 7
REMARK VINA RESULT:      -7.4      3.043      7.528
REMARK  Name = 
REMARK  3 active torsions:
REMARK  status: ('A' for Active; 'I' for Inactive)
REMARK    1  A    between atoms: C_1  and  C_2
REMARK    2  A    between atoms: C_4  and  C_5
REMARK    3  A    between atoms: C_9  and  C_10
REMARK                            x       y       z     vdW  Elec       q    Type
REMARK                         _______ _______ _______ _____ _____    ______ ____
ROOT
ATOM      1  C   UNL     1       4.293   2.572  19.793  0.00  0.00    +0.000 C 
ATOM      2  C   UNL     1       4.035   3.935  19.222  0.00  0.00    +0.000 A 
ATOM      3  C   UNL     1       4.608   4.326  18.011  0.00  0.00    +0.000 A 
ATOM      4  C   UNL     1       4.340   5.591  17.471  0.00  0.00    +0.000 A 
ATOM      5  C   UNL     1       4.990   5.976  16.167  0.00  0.00    +0.000 C 
ATOM      6  C   UNL     1       3.474   6.479  18.164  0.00  0.00    +0.000 A 
ATOM      7  C   UNL     1       3.126   7.750  17.682  0.00  0.00    +0.000 A 
ATOM      8  C   UNL     1       2.293   8.584  18.419  0.00  0.00    +0.000 A 
ATOM      9  C   UNL     1       1.821   8.148  19.650  0.00  0.00    +0.000 A 
ATOM     10  N   UNL     1       2.112   6.908  20.122  0.00  0.00    +0.000 NA
ATOM     11  C   UNL     1       2.915   6.100  19.403  0.00  0.00    +0.000 A 
ATOM     12  C   UNL     1       3.206   4.838  19.901  0.00  0.00    +0.000 A 
ENDROOT
BRANCH   9  13
ATOM     13  C   UNL     1       1.016   9.010  20.540  0.00  0.00    +0.000 A 
ATOM     14  C   UNL     1       0.238  10.064  20.026  0.00  0.00    +0.000 A 
ATOM     15  C   UNL     1      -0.556  10.857  20.861  0.00  0.00    +0.000 A 
ATOM     16  C   UNL     1      -0.592  10.613  22.232  0.00  0.00    +0.000 A 
ATOM     17  C   UNL     1       0.173   9.582  22.768  0.00  0.00    +0.000 A 
ATOM     18  C   UNL     1       0.965   8.792  21.931  0.00  0.00    +0.000 A 
ENDBRANCH   9  13
TORSDOF 1
ENDMDL
MODEL 8
REMARK VINA RESULT:      -7.3      4.072      5.982
REMARK  Name = 
REMARK  3 active torsions:
REMARK  status: ('A' for Active; 'I' for Inactive)
REMARK    1  A    between atoms: C_1  and  C_2
REMARK    2  A    between atoms: C_4  and  C_5
REMARK    3  A    between atoms: C_9  and  C_10
REMARK                            x       y       z     vdW  Elec       q    Type
REMARK                         _______ _______ _______ _____ _____    ______ ____
ROOT
ATOM      1  C   UNL     1      -0.072   9.732  23.430  0.00  0.00    +0.000 C 
ATOM      2  C   UNL     1       0.432   9.548  22.028  0.00  0.00    +0.000 A 
ATOM      3  C   UNL     1       0.374  10.590  21.103  0.00  0.00    +0.000 A 
ATOM      4  C   UNL     1       0.873  10.418  19.804  0.00  0.00    +0.000 A 
ATOM      5  C   UNL     1       0.779  11.566  18.833  0.00  0.00    +0.000 C 
ATOM      6  C   UNL     1       1.444   9.171  19.432  0.00  0.00    +0.000 A 
ATOM      7  C   UNL     1       1.994   8.923  18.166  0.00  0.00    +0.000 A 
ATOM      8  C   UNL     1       2.517   7.672  17.854  0.00  0.00    +0.000 A 
ATOM      9  C   UNL     1       2.472   6.666  18.809  0.00  0.00    +0.000 A 
ATOM     10  N   UNL     1       1.979   6.891  20.054  0.00  0.00    +0.000 NA
ATOM     11  C   UNL     1       1.479   8.106  20.356  0.00  0.00    +0.000 A 
ATOM     12  C   UNL     1       0.975   8.319  21.631  0.00  0.00    +0.000 A 
ENDROOT
BRANCH   9  13
ATOM     13  C   UNL     1       2.911   5.283  18.524  0.00  0.00    +0.000 A 
ATOM     14  C   UNL     1       4.080   4.756  19.103  0.00  0.00    +0.000 A 
ATOM     15  C   UNL     1       4.477   3.435  18.868  0.00  0.00    +0.000 A 
ATOM     16  C   UNL     1       3.711   2.610  18.048  0.00  0.00    +0.000 A 
ATOM     17  C   UNL     1       2.555   3.108  17.457  0.00  0.00    +0.000 A 
ATOM     18  C   UNL     1       2.161   4.427  17.694  0.00  0.00    +0.000 A 
ENDBRANCH   9  13
TORSDOF 1
ENDMDL
MODEL 9
REMARK VINA RESULT:      -7.3      3.209      7.729
REMARK  Name = 
REMARK  3 active torsions:
REMARK  status: ('A' for Active; 'I' for Inactive)
REMARK    1  A    between atoms: C_1  and  C_2
REMARK    2  A    between atoms: C_4  and  C_5
REMARK    3  A    between atoms: C_9  and  C_10
REMARK                            x       y       z     vdW  Elec       q    Type
REMARK                         _______ _______ _______ _____ _____    ______ ____
ROOT
ATOM      1  C   UNL     1       4.168   2.736  19.866  0.00  0.00    +0.000 C 
ATOM      2  C   UNL     1       3.885   4.106  19.322  0.00  0.00    +0.000 A 
ATOM      3  C   UNL     1       4.442   4.527  18.114  0.00  0.00    +0.000 A 
ATOM      4  C   UNL     1       4.151   5.799  17.600  0.00  0.00    +0.000 A 
ATOM      5  C   UNL     1       4.784   6.216  16.298  0.00  0.00    +0.000 C 
ATOM      6  C   UNL     1       3.279   6.661  18.317  0.00  0.00    +0.000 A 
ATOM      7  C   UNL     1       2.909   7.936  17.861  0.00  0.00    +0.000 A 
ATOM      8  C   UNL     1       2.071   8.744  18.621  0.00  0.00    +0.000 A 
ATOM      9  C   UNL     1       1.616   8.279  19.847  0.00  0.00    +0.000 A 
ATOM     10  N   UNL     1       1.929   7.035  20.294  0.00  0.00    +0.000 NA
ATOM     11  C   UNL     1       2.736   6.251  19.553  0.00  0.00    +0.000 A 
ATOM     12  C   UNL     1       3.050   4.984  20.025  0.00  0.00    +0.000 A 
ENDROOT
BRANCH   9  13
ATOM     13  C   UNL     1       0.807   9.113  20.760  0.00  0.00    +0.000 A 
ATOM     14  C   UNL     1       0.704   8.805  22.130  0.00  0.00    +0.000 A 
ATOM     15  C   UNL     1      -0.028   9.616  23.005  0.00  0.00    +0.000 A 
ATOM     16  C   UNL     1      -0.672  10.755  22.529  0.00  0.00    +0.000 A 
ATOM     17  C   UNL     1      -0.591  11.080  21.179  0.00  0.00    +0.000 A 
ATOM     18  C   UNL     1       0.140  10.268  20.308  0.00  0.00    +0.000 A 
ENDBRANCH   9  13
TORSDOF 1
ENDMDL
