MODEL 1
REMARK VINA RESULT:      -6.9      0.000      0.000
REMARK  Name = 
REMARK  9 active torsions:
REMARK  status: ('A' for Active; 'I' for Inactive)
REMARK    1  A    between atoms: C_1  and  O_2
REMARK    2  A    between atoms: O_2  and  C_3
REMARK    3  A    between atoms: C_8  and  C_9
REMARK    4  A    between atoms: C_14  and  C_15
REMARK    5  A    between atoms: C_15  and  C_16
REMARK    6  A    between atoms: C_15  and  C_17
REMARK    7  A    between atoms: C_15  and  C_18
REMARK    8  A    between atoms: N_21  and  C_22
REMARK    9  A    between atoms: C_25  and  C_26
REMARK                            x       y       z     vdW  Elec       q    Type
REMARK                         _______ _______ _______ _____ _____    ______ ____
ROOT
ATOM      1  C   UNL     1      -0.234  11.869  19.100  0.00  0.00    +0.000 C 
ATOM      2  C   UNL     1      -1.712  11.992  19.167  0.00  0.00    +0.000 A 
ATOM      3  C   UNL     1      -2.066  13.071  19.985  0.00  0.00    +0.000 A 
ATOM      4  N   UNL     1      -3.379  13.241  20.069  0.00  0.00    +0.000 NA
ATOM      5  N   UNL     1      -3.860  12.275  19.248  0.00  0.00    +0.000 N 
ATOM      6  C   UNL     1      -2.881  11.518  18.616  0.00  0.00    +0.000 A 
ATOM      7  C   UNL     1      -0.888  13.791  20.439  0.00  0.00    +0.000 C 
ATOM      8  O   UNL     1      -0.844  14.785  21.145  0.00  0.00    +0.000 OA
ATOM      9  N   UNL     1       0.173  13.122  19.787  0.00  0.00    +0.000 N 
ATOM     10  H   UNL     1      -4.863  12.223  19.123  0.00  0.00    +0.000 HD
ENDROOT
BRANCH   1  16
ATOM     11  C   UNL     1       1.003   9.681  19.413  0.00  0.00    +0.000 A 
ATOM     12  N   UNL     1       1.387   8.569  20.088  0.00  0.00    +0.000 NA
ATOM     13  C   UNL     1       0.860   8.377  21.314  0.00  0.00    +0.000 A 
ATOM     14  C   UNL     1      -0.034   9.246  21.904  0.00  0.00    +0.000 A 
ATOM     15  C   UNL     1      -0.391  10.392  21.201  0.00  0.00    +0.000 A 
ATOM     16  C   UNL     1       0.131  10.643  19.916  0.00  0.00    +0.000 A 
BRANCH  11  18
ATOM     17  C   UNL     1       2.218   8.720  17.675  0.00  0.00    +0.000 C 
ATOM     18  O   UNL     1       1.481   9.855  18.130  0.00  0.00    +0.000 OA
ENDBRANCH  11  18
ENDBRANCH   1  16
BRANCH   9  19
ATOM     19  C   UNL     1       1.474  13.638  19.664  0.00  0.00    +0.000 A 
ATOM     20  C   UNL     1       2.326  13.723  20.758  0.00  0.00    +0.000 A 
ATOM     21  C   UNL     1       3.630  14.189  20.572  0.00  0.00    +0.000 A 
ATOM     22  C   UNL     1       4.035  14.606  19.305  0.00  0.00    +0.000 A 
ATOM     23  N   UNL     1       3.203  14.578  18.236  0.00  0.00    +0.000 NA
ATOM     24  C   UNL     1       1.960  14.082  18.436  0.00  0.00    +0.000 A 
BRANCH  22  25
ATOM     25  C   UNL     1       5.375  15.127  19.009  0.00  0.00    +0.000 A 
ATOM     26  C   UNL     1       6.219  14.786  17.966  0.00  0.00    +0.000 A 
ATOM     27  C   UNL     1       7.456  15.495  17.995  0.00  0.00    +0.000 A 
ATOM     28  C   UNL     1       7.534  16.341  19.075  0.00  0.00    +0.000 A 
ATOM     29  S   UNL     1       6.125  16.281  20.040  0.00  0.00    +0.000 S 
ENDBRANCH  22  25
ENDBRANCH   9  19
BRANCH   6  30
ATOM     30  C   UNL     1      -3.166  10.486  17.543  0.00  0.00    +0.000 C 
ATOM     31  C   UNL     1      -1.881   9.983  16.857  0.00  0.00    +0.000 C 
ATOM     32  C   UNL     1      -3.875   9.270  18.176  0.00  0.00    +0.000 C 
ATOM     33  C   UNL     1      -4.065  11.086  16.453  0.00  0.00    +0.000 C 
ENDBRANCH   6  30
TORSDOF 5
ENDMDL
MODEL 2
REMARK VINA RESULT:      -6.8      6.320     10.231
REMARK  Name = 
REMARK  9 active torsions:
REMARK  status: ('A' for Active; 'I' for Inactive)
REMARK    1  A    between atoms: C_1  and  O_2
REMARK    2  A    between atoms: O_2  and  C_3
REMARK    3  A    between atoms: C_8  and  C_9
REMARK    4  A    between atoms: C_14  and  C_15
REMARK    5  A    between atoms: C_15  and  C_16
REMARK    6  A    between atoms: C_15  and  C_17
REMARK    7  A    between atoms: C_15  and  C_18
REMARK    8  A    between atoms: N_21  and  C_22
REMARK    9  A    between atoms: C_25  and  C_26
REMARK                            x       y       z     vdW  Elec       q    Type
REMARK                         _______ _______ _______ _____ _____    ______ ____
ROOT
ATOM      1  C   UNL     1       8.336  14.904  19.430  0.00  0.00    +0.000 C 
ATOM      2  C   UNL     1       9.049  13.907  20.266  0.00  0.00    +0.000 A 
ATOM      3  C   UNL     1       8.267  13.566  21.376  0.00  0.00    +0.000 A 
ATOM      4  N   UNL     1       8.849  12.661  22.155  0.00  0.00    +0.000 NA
ATOM      5  N   UNL     1      10.002  12.395  21.494  0.00  0.00    +0.000 N 
ATOM      6  C   UNL     1      10.151  13.083  20.295  0.00  0.00    +0.000 A 
ATOM      7  C   UNL     1       6.968  14.215  21.320  0.00  0.00    +0.000 C 
ATOM      8  O   UNL     1       6.048  14.117  22.114  0.00  0.00    +0.000 OA
ATOM      9  N   UNL     1       7.001  14.900  20.084  0.00  0.00    +0.000 N 
ATOM     10  H   UNL     1      10.618  11.695  21.889  0.00  0.00    +0.000 HD
ENDROOT
BRANCH   1  16
ATOM     11  C   UNL     1       9.666  16.881  18.570  0.00  0.00    +0.000 A 
ATOM     12  N   UNL     1      10.310  18.069  18.672  0.00  0.00    +0.000 NA
ATOM     13  C   UNL     1      10.381  18.631  19.896  0.00  0.00    +0.000 A 
ATOM     14  C   UNL     1       9.835  18.063  21.028  0.00  0.00    +0.000 A 
ATOM     15  C   UNL     1       9.156  16.856  20.891  0.00  0.00    +0.000 A 
ATOM     16  C   UNL     1       9.051  16.226  19.635  0.00  0.00    +0.000 A 
BRANCH  11  18
ATOM     17  C   UNL     1      10.917  16.315  16.691  0.00  0.00    +0.000 C 
ATOM     18  O   UNL     1       9.645  16.261  17.337  0.00  0.00    +0.000 OA
ENDBRANCH  11  18
ENDBRANCH   1  16
BRANCH   9  19
ATOM     19  C   UNL     1       5.866  15.420  19.440  0.00  0.00    +0.000 A 
ATOM     20  C   UNL     1       5.281  14.767  18.363  0.00  0.00    +0.000 A 
ATOM     21  C   UNL     1       4.118  15.295  17.794  0.00  0.00    +0.000 A 
ATOM     22  C   UNL     1       3.598  16.492  18.285  0.00  0.00    +0.000 A 
ATOM     23  N   UNL     1       4.183  17.170  19.302  0.00  0.00    +0.000 NA
ATOM     24  C   UNL     1       5.283  16.613  19.861  0.00  0.00    +0.000 A 
BRANCH  22  25
ATOM     25  C   UNL     1       2.395  17.137  17.747  0.00  0.00    +0.000 A 
ATOM     26  C   UNL     1       2.219  17.730  16.508  0.00  0.00    +0.000 A 
ATOM     27  C   UNL     1       0.909  18.264  16.326  0.00  0.00    +0.000 A 
ATOM     28  C   UNL     1       0.127  18.087  17.443  0.00  0.00    +0.000 A 
ATOM     29  S   UNL     1       0.966  17.281  18.693  0.00  0.00    +0.000 S 
ENDBRANCH  22  25
ENDBRANCH   9  19
BRANCH   6  30
ATOM     30  C   UNL     1      11.278  12.840  19.310  0.00  0.00    +0.000 C 
ATOM     31  C   UNL     1      12.212  14.058  19.177  0.00  0.00    +0.000 C 
ATOM     32  C   UNL     1      12.125  11.641  19.786  0.00  0.00    +0.000 C 
ATOM     33  C   UNL     1      10.711  12.539  17.916  0.00  0.00    +0.000 C 
ENDBRANCH   6  30
TORSDOF 5
ENDMDL
MODEL 3
REMARK VINA RESULT:      -6.7      0.655      1.240
REMARK  Name = 
REMARK  9 active torsions:
REMARK  status: ('A' for Active; 'I' for Inactive)
REMARK    1  A    between atoms: C_1  and  O_2
REMARK    2  A    between atoms: O_2  and  C_3
REMARK    3  A    between atoms: C_8  and  C_9
REMARK    4  A    between atoms: C_14  and  C_15
REMARK    5  A    between atoms: C_15  and  C_16
REMARK    6  A    between atoms: C_15  and  C_17
REMARK    7  A    between atoms: C_15  and  C_18
REMARK    8  A    between atoms: N_21  and  C_22
REMARK    9  A    between atoms: C_25  and  C_26
REMARK                            x       y       z     vdW  Elec       q    Type
REMARK                         _______ _______ _______ _____ _____    ______ ____
ROOT
ATOM      1  C   UNL     1      -0.153  11.811  19.063  0.00  0.00    +0.000 C 
ATOM      2  C   UNL     1      -1.628  11.959  19.135  0.00  0.00    +0.000 A 
ATOM      3  C   UNL     1      -1.961  13.046  19.952  0.00  0.00    +0.000 A 
ATOM      4  N   UNL     1      -3.271  13.239  20.041  0.00  0.00    +0.000 NA
ATOM      5  N   UNL     1      -3.771  12.279  19.223  0.00  0.00    +0.000 N 
ATOM      6  C   UNL     1      -2.807  11.504  18.590  0.00  0.00    +0.000 A 
ATOM      7  C   UNL     1      -0.769  13.748  20.400  0.00  0.00    +0.000 C 
ATOM      8  O   UNL     1      -0.707  14.742  21.103  0.00  0.00    +0.000 OA
ATOM      9  N   UNL     1       0.278  13.059  19.746  0.00  0.00    +0.000 N 
ATOM     10  H   UNL     1      -4.776  12.243  19.102  0.00  0.00    +0.000 HD
ENDROOT
BRANCH   1  16
ATOM     11  C   UNL     1       1.088   9.628  19.398  0.00  0.00    +0.000 A 
ATOM     12  N   UNL     1       1.458   8.514  20.076  0.00  0.00    +0.000 NA
ATOM     13  C   UNL     1       0.894   8.309  21.284  0.00  0.00    +0.000 A 
ATOM     14  C   UNL     1      -0.023   9.169  21.852  0.00  0.00    +0.000 A 
ATOM     15  C   UNL     1      -0.365  10.318  21.148  0.00  0.00    +0.000 A 
ATOM     16  C   UNL     1       0.194  10.582  19.881  0.00  0.00    +0.000 A 
BRANCH  11  18
ATOM     17  C   UNL     1       2.316   8.668  17.670  0.00  0.00    +0.000 C 
ATOM     18  O   UNL     1       1.604   9.815  18.132  0.00  0.00    +0.000 OA
ENDBRANCH  11  18
ENDBRANCH   1  16
BRANCH   9  19
ATOM     19  C   UNL     1       1.586  13.553  19.617  0.00  0.00    +0.000 A 
ATOM     20  C   UNL     1       2.139  13.826  18.373  0.00  0.00    +0.000 A 
ATOM     21  C   UNL     1       3.425  14.371  18.302  0.00  0.00    +0.000 A 
ATOM     22  C   UNL     1       4.145  14.581  19.477  0.00  0.00    +0.000 A 
ATOM     23  N   UNL     1       3.643  14.274  20.697  0.00  0.00    +0.000 NA
ATOM     24  C   UNL     1       2.380  13.788  20.738  0.00  0.00    +0.000 A 
BRANCH  22  25
ATOM     25  C   UNL     1       5.506  15.131  19.509  0.00  0.00    +0.000 A 
ATOM     26  C   UNL     1       6.213  15.735  18.484  0.00  0.00    +0.000 A 
ATOM     27  C   UNL     1       7.521  16.148  18.875  0.00  0.00    +0.000 A 
ATOM     28  C   UNL     1       7.787  15.823  20.184  0.00  0.00    +0.000 A 
ATOM     29  S   UNL     1       6.469  15.034  20.930  0.00  0.00    +0.000 S 
ENDBRANCH  22  25
ENDBRANCH   9  19
BRANCH   6  30
ATOM     30  C   UNL     1      -3.113  10.474  17.520  0.00  0.00    +0.000 C 
ATOM     31  C   UNL     1      -3.920   9.282  18.066  0.00  0.00    +0.000 C 
ATOM     32  C   UNL     1      -3.940  11.134  16.396  0.00  0.00    +0.000 C 
ATOM     33  C   UNL     1      -1.810   9.916  16.929  0.00  0.00    +0.000 C 
ENDBRANCH   6  30
TORSDOF 5
ENDMDL
MODEL 4
REMARK VINA RESULT:      -6.6      0.813      1.118
REMARK  Name = 
REMARK  9 active torsions:
REMARK  status: ('A' for Active; 'I' for Inactive)
REMARK    1  A    between atoms: C_1  and  O_2
REMARK    2  A    between atoms: O_2  and  C_3
REMARK    3  A    between atoms: C_8  and  C_9
REMARK    4  A    between atoms: C_14  and  C_15
REMARK    5  A    between atoms: C_15  and  C_16
REMARK    6  A    between atoms: C_15  and  C_17
REMARK    7  A    between atoms: C_15  and  C_18
REMARK    8  A    between atoms: N_21  and  C_22
REMARK    9  A    between atoms: C_25  and  C_26
REMARK                            x       y       z     vdW  Elec       q    Type
REMARK                         _______ _______ _______ _____ _____    ______ ____
ROOT
ATOM      1  C   UNL     1      -0.281  11.947  19.187  0.00  0.00    +0.000 C 
ATOM      2  C   UNL     1      -1.762  12.038  19.225  0.00  0.00    +0.000 A 
ATOM      3  C   UNL     1      -2.156  13.091  20.059  0.00  0.00    +0.000 A 
ATOM      4  N   UNL     1      -3.475  13.232  20.118  0.00  0.00    +0.000 NA
ATOM      5  N   UNL     1      -3.917  12.275  19.266  0.00  0.00    +0.000 N 
ATOM      6  C   UNL     1      -2.908  11.553  18.639  0.00  0.00    +0.000 A 
ATOM      7  C   UNL     1      -1.004  13.825  20.554  0.00  0.00    +0.000 C 
ATOM      8  O   UNL     1      -0.997  14.803  21.282  0.00  0.00    +0.000 OA
ATOM      9  N   UNL     1       0.085  13.194  19.911  0.00  0.00    +0.000 N 
ATOM     10  H   UNL     1      -4.916  12.204  19.118  0.00  0.00    +0.000 HD
ENDROOT
BRANCH   1  16
ATOM     11  C   UNL     1       0.960   9.756  19.460  0.00  0.00    +0.000 A 
ATOM     12  N   UNL     1       1.350   8.635  20.116  0.00  0.00    +0.000 NA
ATOM     13  C   UNL     1       0.837   8.428  21.346  0.00  0.00    +0.000 A 
ATOM     14  C   UNL     1      -0.050   9.290  21.956  0.00  0.00    +0.000 A 
ATOM     15  C   UNL     1      -0.415  10.445  21.272  0.00  0.00    +0.000 A 
ATOM     16  C   UNL     1       0.093  10.712  19.984  0.00  0.00    +0.000 A 
BRANCH  11  18
ATOM     17  C   UNL     1       2.217   8.848  17.724  0.00  0.00    +0.000 C 
ATOM     18  O   UNL     1       1.423   9.946  18.174  0.00  0.00    +0.000 OA
ENDBRANCH  11  18
ENDBRANCH   1  16
BRANCH   9  19
ATOM     19  C   UNL     1       1.377  13.739  19.828  0.00  0.00    +0.000 A 
ATOM     20  C   UNL     1       1.804  14.420  18.696  0.00  0.00    +0.000 A 
ATOM     21  C   UNL     1       3.079  14.994  18.686  0.00  0.00    +0.000 A 
ATOM     22  C   UNL     1       3.913  14.829  19.791  0.00  0.00    +0.000 A 
ATOM     23  N   UNL     1       3.533  14.125  20.884  0.00  0.00    +0.000 NA
ATOM     24  C   UNL     1       2.278  13.617  20.883  0.00  0.00    +0.000 A 
BRANCH  22  25
ATOM     25  C   UNL     1       5.273  15.376  19.873  0.00  0.00    +0.000 A 
ATOM     26  C   UNL     1       6.334  14.931  20.642  0.00  0.00    +0.000 A 
ATOM     27  C   UNL     1       7.515  15.713  20.471  0.00  0.00    +0.000 A 
ATOM     28  C   UNL     1       7.315  16.752  19.592  0.00  0.00    +0.000 A 
ATOM     29  S   UNL     1       5.720  16.776  18.980  0.00  0.00    +0.000 S 
ENDBRANCH  22  25
ENDBRANCH   9  19
BRANCH   6  30
ATOM     30  C   UNL     1      -3.148  10.539  17.537  0.00  0.00    +0.000 C 
ATOM     31  C   UNL     1      -1.838  10.066  16.880  0.00  0.00    +0.000 C 
ATOM     32  C   UNL     1      -3.860   9.302  18.124  0.00  0.00    +0.000 C 
ATOM     33  C   UNL     1      -4.023  11.150  16.433  0.00  0.00    +0.000 C 
ENDBRANCH   6  30
TORSDOF 5
ENDMDL
MODEL 5
REMARK VINA RESULT:      -6.5      3.134      6.281
REMARK  Name = 
REMARK  9 active torsions:
REMARK  status: ('A' for Active; 'I' for Inactive)
REMARK    1  A    between atoms: C_1  and  O_2
REMARK    2  A    between atoms: O_2  and  C_3
REMARK    3  A    between atoms: C_8  and  C_9
REMARK    4  A    between atoms: C_14  and  C_15
REMARK    5  A    between atoms: C_15  and  C_16
REMARK    6  A    between atoms: C_15  and  C_17
REMARK    7  A    between atoms: C_15  and  C_18
REMARK    8  A    between atoms: N_21  and  C_22
REMARK    9  A    between atoms: C_25  and  C_26
REMARK                            x       y       z     vdW  Elec       q    Type
REMARK                         _______ _______ _______ _____ _____    ______ ____
ROOT
ATOM      1  C   UNL     1      -0.626  13.087  20.813  0.00  0.00    +0.000 C 
ATOM      2  C   UNL     1      -1.963  13.672  21.086  0.00  0.00    +0.000 A 
ATOM      3  C   UNL     1      -2.929  13.054  20.284  0.00  0.00    +0.000 A 
ATOM      4  N   UNL     1      -4.151  13.526  20.497  0.00  0.00    +0.000 NA
ATOM      5  N   UNL     1      -3.954  14.430  21.488  0.00  0.00    +0.000 N 
ATOM      6  C   UNL     1      -2.641  14.517  21.935  0.00  0.00    +0.000 A 
ATOM      7  C   UNL     1      -2.348  11.973  19.505  0.00  0.00    +0.000 C 
ATOM      8  O   UNL     1      -2.914  11.225  18.726  0.00  0.00    +0.000 OA
ATOM      9  N   UNL     1      -1.005  11.942  19.944  0.00  0.00    +0.000 N 
ATOM     10  H   UNL     1      -4.767  14.913  21.850  0.00  0.00    +0.000 HD
ENDROOT
BRANCH   1  16
ATOM     11  C   UNL     1       1.532  14.254  20.187  0.00  0.00    +0.000 A 
ATOM     12  N   UNL     1       2.297  15.156  19.523  0.00  0.00    +0.000 NA
ATOM     13  C   UNL     1       1.664  16.010  18.693  0.00  0.00    +0.000 A 
ATOM     14  C   UNL     1       0.300  16.006  18.490  0.00  0.00    +0.000 A 
ATOM     15  C   UNL     1      -0.458  15.054  19.163  0.00  0.00    +0.000 A 
ATOM     16  C   UNL     1       0.152  14.137  20.043  0.00  0.00    +0.000 A 
BRANCH  11  18
ATOM     17  C   UNL     1       3.477  13.864  21.405  0.00  0.00    +0.000 C 
ATOM     18  O   UNL     1       2.157  13.420  21.091  0.00  0.00    +0.000 OA
ENDBRANCH  11  18
ENDBRANCH   1  16
BRANCH   9  19
ATOM     19  C   UNL     1      -0.124  10.873  19.712  0.00  0.00    +0.000 A 
ATOM     20  C   UNL     1       0.203   9.972  20.716  0.00  0.00    +0.000 A 
ATOM     21  C   UNL     1       1.039   8.892  20.419  0.00  0.00    +0.000 A 
ATOM     22  C   UNL     1       1.568   8.769  19.134  0.00  0.00    +0.000 A 
ATOM     23  N   UNL     1       1.302   9.665  18.155  0.00  0.00    +0.000 NA
ATOM     24  C   UNL     1       0.455  10.677  18.460  0.00  0.00    +0.000 A 
BRANCH  22  25
ATOM     25  C   UNL     1       2.468   7.683  18.726  0.00  0.00    +0.000 A 
ATOM     26  C   UNL     1       3.328   7.641  17.643  0.00  0.00    +0.000 A 
ATOM     27  C   UNL     1       4.052   6.415  17.551  0.00  0.00    +0.000 A 
ATOM     28  C   UNL     1       3.705   5.543  18.556  0.00  0.00    +0.000 A 
ATOM     29  S   UNL     1       2.522   6.201  19.597  0.00  0.00    +0.000 S 
ENDBRANCH  22  25
ENDBRANCH   9  19
BRANCH   6  30
ATOM     30  C   UNL     1      -2.203  15.340  23.130  0.00  0.00    +0.000 C 
ATOM     31  C   UNL     1      -1.283  16.509  22.732  0.00  0.00    +0.000 C 
ATOM     32  C   UNL     1      -3.446  15.929  23.830  0.00  0.00    +0.000 C 
ATOM     33  C   UNL     1      -1.429  14.464  24.125  0.00  0.00    +0.000 C 
ENDBRANCH   6  30
TORSDOF 5
ENDMDL
MODEL 6
REMARK VINA RESULT:      -6.4      2.967      6.486
REMARK  Name = 
REMARK  9 active torsions:
REMARK  status: ('A' for Active; 'I' for Inactive)
REMARK    1  A    between atoms: C_1  and  O_2
REMARK    2  A    between atoms: O_2  and  C_3
REMARK    3  A    between atoms: C_8  and  C_9
REMARK    4  A    between atoms: C_14  and  C_15
REMARK    5  A    between atoms: C_15  and  C_16
REMARK    6  A    between atoms: C_15  and  C_17
REMARK    7  A    between atoms: C_15  and  C_18
REMARK    8  A    between atoms: N_21  and  C_22
REMARK    9  A    between atoms: C_25  and  C_26
REMARK                            x       y       z     vdW  Elec       q    Type
REMARK                         _______ _______ _______ _____ _____    ______ ____
ROOT
ATOM      1  C   UNL     1       0.399  12.002  20.260  0.00  0.00    +0.000 C 
ATOM      2  C   UNL     1      -0.907  12.705  20.315  0.00  0.00    +0.000 A 
ATOM      3  C   UNL     1      -1.822  12.083  19.457  0.00  0.00    +0.000 A 
ATOM      4  N   UNL     1      -3.017  12.660  19.476  0.00  0.00    +0.000 NA
ATOM      5  N   UNL     1      -2.863  13.638  20.403  0.00  0.00    +0.000 N 
ATOM      6  C   UNL     1      -1.607  13.673  20.998  0.00  0.00    +0.000 A 
ATOM      7  C   UNL     1      -1.246  10.894  18.852  0.00  0.00    +0.000 C 
ATOM      8  O   UNL     1      -1.777  10.117  18.077  0.00  0.00    +0.000 OA
ATOM      9  N   UNL     1       0.030  10.809  19.454  0.00  0.00    +0.000 N 
ATOM     10  H   UNL     1      -3.669  14.210  20.618  0.00  0.00    +0.000 HD
ENDROOT
BRANCH   1  16
ATOM     11  C   UNL     1       2.473  13.450  20.122  0.00  0.00    +0.000 A 
ATOM     12  N   UNL     1       3.370  14.260  19.508  0.00  0.00    +0.000 NA
ATOM     13  C   UNL     1       3.130  14.587  18.222  0.00  0.00    +0.000 A 
ATOM     14  C   UNL     1       2.033  14.140  17.515  0.00  0.00    +0.000 A 
ATOM     15  C   UNL     1       1.142  13.289  18.160  0.00  0.00    +0.000 A 
ATOM     16  C   UNL     1       1.345  12.915  19.503  0.00  0.00    +0.000 A 
BRANCH  11  18
ATOM     17  C   UNL     1       3.692  13.976  22.034  0.00  0.00    +0.000 C 
ATOM     18  O   UNL     1       2.669  13.164  21.457  0.00  0.00    +0.000 OA
ENDBRANCH  11  18
ENDBRANCH   1  16
BRANCH   9  19
ATOM     19  C   UNL     1       0.842   9.663  19.425  0.00  0.00    +0.000 A 
ATOM     20  C   UNL     1       0.999   8.858  20.545  0.00  0.00    +0.000 A 
ATOM     21  C   UNL     1       1.771   7.697  20.449  0.00  0.00    +0.000 A 
ATOM     22  C   UNL     1       2.407   7.396  19.245  0.00  0.00    +0.000 A 
ATOM     23  N   UNL     1       2.307   8.194  18.155  0.00  0.00    +0.000 NA
ATOM     24  C   UNL     1       1.519   9.289  18.266  0.00  0.00    +0.000 A 
BRANCH  22  25
ATOM     25  C   UNL     1       3.252   6.212  19.046  0.00  0.00    +0.000 A 
ATOM     26  C   UNL     1       3.382   5.101  19.863  0.00  0.00    +0.000 A 
ATOM     27  C   UNL     1       4.303   4.139  19.354  0.00  0.00    +0.000 A 
ATOM     28  C   UNL     1       4.872   4.553  18.173  0.00  0.00    +0.000 A 
ATOM     29  S   UNL     1       4.295   6.084  17.685  0.00  0.00    +0.000 S 
ENDBRANCH  22  25
ENDBRANCH   9  19
BRANCH   6  30
ATOM     30  C   UNL     1      -1.244  14.574  22.162  0.00  0.00    +0.000 C 
ATOM     31  C   UNL     1       0.065  15.348  21.919  0.00  0.00    +0.000 C 
ATOM     32  C   UNL     1      -2.371  15.604  22.385  0.00  0.00    +0.000 C 
ATOM     33  C   UNL     1      -1.057  13.743  23.440  0.00  0.00    +0.000 C 
ENDBRANCH   6  30
TORSDOF 5
ENDMDL
MODEL 7
REMARK VINA RESULT:      -6.3      3.341      6.065
REMARK  Name = 
REMARK  9 active torsions:
REMARK  status: ('A' for Active; 'I' for Inactive)
REMARK    1  A    between atoms: C_1  and  O_2
REMARK    2  A    between atoms: O_2  and  C_3
REMARK    3  A    between atoms: C_8  and  C_9
REMARK    4  A    between atoms: C_14  and  C_15
REMARK    5  A    between atoms: C_15  and  C_16
REMARK    6  A    between atoms: C_15  and  C_17
REMARK    7  A    between atoms: C_15  and  C_18
REMARK    8  A    between atoms: N_21  and  C_22
REMARK    9  A    between atoms: C_25  and  C_26
REMARK                            x       y       z     vdW  Elec       q    Type
REMARK                         _______ _______ _______ _____ _____    ______ ____
ROOT
ATOM      1  C   UNL     1      -1.263  11.758  19.976  0.00  0.00    +0.000 C 
ATOM      2  C   UNL     1      -2.657  12.175  19.681  0.00  0.00    +0.000 A 
ATOM      3  C   UNL     1      -3.048  11.683  18.430  0.00  0.00    +0.000 A 
ATOM      4  N   UNL     1      -4.297  12.010  18.118  0.00  0.00    +0.000 NA
ATOM      5  N   UNL     1      -4.713  12.684  19.219  0.00  0.00    +0.000 N 
ATOM      6  C   UNL     1      -3.770  12.761  20.237  0.00  0.00    +0.000 A 
ATOM      7  C   UNL     1      -2.013  10.844  17.850  0.00  0.00    +0.000 C 
ATOM      8  O   UNL     1      -2.041  10.249  16.786  0.00  0.00    +0.000 OA
ATOM      9  N   UNL     1      -1.021  10.811  18.857  0.00  0.00    +0.000 N 
ATOM     10  H   UNL     1      -5.669  13.017  19.230  0.00  0.00    +0.000 HD
ENDROOT
BRANCH   1  16
ATOM     11  C   UNL     1       0.158  13.607  20.966  0.00  0.00    +0.000 A 
ATOM     12  N   UNL     1       0.943  14.712  20.927  0.00  0.00    +0.000 NA
ATOM     13  C   UNL     1       1.162  15.272  19.721  0.00  0.00    +0.000 A 
ATOM     14  C   UNL     1       0.634  14.781  18.545  0.00  0.00    +0.000 A 
ATOM     15  C   UNL     1      -0.147  13.632  18.610  0.00  0.00    +0.000 A 
ATOM     16  C   UNL     1      -0.407  13.004  19.845  0.00  0.00    +0.000 A 
BRANCH  11  18
ATOM     17  C   UNL     1      -0.465  14.065  23.162  0.00  0.00    +0.000 C 
ATOM     18  O   UNL     1      -0.131  13.064  22.201  0.00  0.00    +0.000 OA
ENDBRANCH  11  18
ENDBRANCH   1  16
BRANCH   9  19
ATOM     19  C   UNL     1       0.034   9.884  18.894  0.00  0.00    +0.000 A 
ATOM     20  C   UNL     1       0.444   9.301  20.086  0.00  0.00    +0.000 A 
ATOM     21  C   UNL     1       1.460   8.341  20.061  0.00  0.00    +0.000 A 
ATOM     22  C   UNL     1       2.075   8.025  18.850  0.00  0.00    +0.000 A 
ATOM     23  N   UNL     1       1.723   8.619  17.685  0.00  0.00    +0.000 NA
ATOM     24  C   UNL     1       0.708   9.513  17.732  0.00  0.00    +0.000 A 
BRANCH  22  25
ATOM     25  C   UNL     1       3.160   7.045  18.721  0.00  0.00    +0.000 A 
ATOM     26  C   UNL     1       4.178   7.008  17.783  0.00  0.00    +0.000 A 
ATOM     27  C   UNL     1       5.060   5.901  17.959  0.00  0.00    +0.000 A 
ATOM     28  C   UNL     1       4.676   5.107  19.013  0.00  0.00    +0.000 A 
ATOM     29  S   UNL     1       3.269   5.696  19.782  0.00  0.00    +0.000 S 
ENDBRANCH  22  25
ENDBRANCH   9  19
BRANCH   6  30
ATOM     30  C   UNL     1      -4.052  13.328  21.615  0.00  0.00    +0.000 C 
ATOM     31  C   UNL     1      -3.477  12.447  22.741  0.00  0.00    +0.000 C 
ATOM     32  C   UNL     1      -3.414  14.728  21.734  0.00  0.00    +0.000 C 
ATOM     33  C   UNL     1      -5.566  13.439  21.845  0.00  0.00    +0.000 C 
ENDBRANCH   6  30
TORSDOF 5
ENDMDL
MODEL 8
REMARK VINA RESULT:      -6.3      3.079      6.533
REMARK  Name = 
REMARK  9 active torsions:
REMARK  status: ('A' for Active; 'I' for Inactive)
REMARK    1  A    between atoms: C_1  and  O_2
REMARK    2  A    between atoms: O_2  and  C_3
REMARK    3  A    between atoms: C_8  and  C_9
REMARK    4  A    between atoms: C_14  and  C_15
REMARK    5  A    between atoms: C_15  and  C_16
REMARK    6  A    between atoms: C_15  and  C_17
REMARK    7  A    between atoms: C_15  and  C_18
REMARK    8  A    between atoms: N_21  and  C_22
REMARK    9  A    between atoms: C_25  and  C_26
REMARK                            x       y       z     vdW  Elec       q    Type
REMARK                         _______ _______ _______ _____ _____    ______ ____
ROOT
ATOM      1  C   UNL     1       0.538  11.846  19.985  0.00  0.00    +0.000 C 
ATOM      2  C   UNL     1      -0.774  12.537  20.049  0.00  0.00    +0.000 A 
ATOM      3  C   UNL     1      -1.657  11.974  19.120  0.00  0.00    +0.000 A 
ATOM      4  N   UNL     1      -2.857  12.542  19.143  0.00  0.00    +0.000 NA
ATOM      5  N   UNL     1      -2.738  13.452  20.141  0.00  0.00    +0.000 N 
ATOM      6  C   UNL     1      -1.502  13.450  20.777  0.00  0.00    +0.000 A 
ATOM      7  C   UNL     1      -1.054  10.834  18.450  0.00  0.00    +0.000 C 
ATOM      8  O   UNL     1      -1.556  10.112  17.604  0.00  0.00    +0.000 OA
ATOM      9  N   UNL     1       0.203  10.713  19.084  0.00  0.00    +0.000 N 
ATOM     10  H   UNL     1      -3.555  14.004  20.372  0.00  0.00    +0.000 HD
ENDROOT
BRANCH   1  16
ATOM     11  C   UNL     1       2.539  13.398  20.049  0.00  0.00    +0.000 A 
ATOM     12  N   UNL     1       3.446  14.260  19.527  0.00  0.00    +0.000 NA
ATOM     13  C   UNL     1       3.306  14.592  18.227  0.00  0.00    +0.000 A 
ATOM     14  C   UNL     1       2.302  14.101  17.419  0.00  0.00    +0.000 A 
ATOM     15  C   UNL     1       1.401  13.198  17.973  0.00  0.00    +0.000 A 
ATOM     16  C   UNL     1       1.501  12.816  19.326  0.00  0.00    +0.000 A 
BRANCH  11  18
ATOM     17  C   UNL     1       3.514  13.990  22.078  0.00  0.00    +0.000 C 
ATOM     18  O   UNL     1       2.629  13.103  21.394  0.00  0.00    +0.000 OA
ENDBRANCH  11  18
ENDBRANCH   1  16
BRANCH   9  19
ATOM     19  C   UNL     1       1.023   9.575  18.998  0.00  0.00    +0.000 A 
ATOM     20  C   UNL     1       1.726   9.274  17.839  0.00  0.00    +0.000 A 
ATOM     21  C   UNL     1       2.574   8.163  17.824  0.00  0.00    +0.000 A 
ATOM     22  C   UNL     1       2.659   7.351  18.955  0.00  0.00    +0.000 A 
ATOM     23  N   UNL     1       1.943   7.600  20.078  0.00  0.00    +0.000 NA
ATOM     24  C   UNL     1       1.163   8.706  20.078  0.00  0.00    +0.000 A 
BRANCH  22  25
ATOM     25  C   UNL     1       3.504   6.154  19.035  0.00  0.00    +0.000 A 
ATOM     26  C   UNL     1       4.705   5.906  18.392  0.00  0.00    +0.000 A 
ATOM     27  C   UNL     1       5.251   4.625  18.702  0.00  0.00    +0.000 A 
ATOM     28  C   UNL     1       4.436   3.918  19.556  0.00  0.00    +0.000 A 
ATOM     29  S   UNL     1       3.033   4.796  19.978  0.00  0.00    +0.000 S 
ENDBRANCH  22  25
ENDBRANCH   9  19
BRANCH   6  30
ATOM     30  C   UNL     1      -1.181  14.267  22.014  0.00  0.00    +0.000 C 
ATOM     31  C   UNL     1      -0.019  15.250  21.783  0.00  0.00    +0.000 C 
ATOM     32  C   UNL     1      -2.423  15.086  22.423  0.00  0.00    +0.000 C 
ATOM     33  C   UNL     1      -0.780  13.343  23.172  0.00  0.00    +0.000 C 
ENDBRANCH   6  30
TORSDOF 5
ENDMDL
MODEL 9
REMARK VINA RESULT:      -6.3      3.185      6.084
REMARK  Name = 
REMARK  9 active torsions:
REMARK  status: ('A' for Active; 'I' for Inactive)
REMARK    1  A    between atoms: C_1  and  O_2
REMARK    2  A    between atoms: O_2  and  C_3
REMARK    3  A    between atoms: C_8  and  C_9
REMARK    4  A    between atoms: C_14  and  C_15
REMARK    5  A    between atoms: C_15  and  C_16
REMARK    6  A    between atoms: C_15  and  C_17
REMARK    7  A    between atoms: C_15  and  C_18
REMARK    8  A    between atoms: N_21  and  C_22
REMARK    9  A    between atoms: C_25  and  C_26
REMARK                            x       y       z     vdW  Elec       q    Type
REMARK                         _______ _______ _______ _____ _____    ______ ____
ROOT
ATOM      1  C   UNL     1      -1.197  11.666  19.945  0.00  0.00    +0.000 C 
ATOM      2  C   UNL     1      -2.583  12.086  19.618  0.00  0.00    +0.000 A 
ATOM      3  C   UNL     1      -2.956  11.575  18.369  0.00  0.00    +0.000 A 
ATOM      4  N   UNL     1      -4.196  11.905  18.029  0.00  0.00    +0.000 NA
ATOM      5  N   UNL     1      -4.628  12.600  19.110  0.00  0.00    +0.000 N 
ATOM      6  C   UNL     1      -3.703  12.689  20.143  0.00  0.00    +0.000 A 
ATOM      7  C   UNL     1      -1.915  10.720  17.823  0.00  0.00    +0.000 C 
ATOM      8  O   UNL     1      -1.928  10.106  16.769  0.00  0.00    +0.000 OA
ATOM      9  N   UNL     1      -0.942  10.698  18.847  0.00  0.00    +0.000 N 
ATOM     10  H   UNL     1      -5.581  12.940  19.098  0.00  0.00    +0.000 HD
ENDROOT
BRANCH   1  16
ATOM     11  C   UNL     1       0.214  13.525  20.929  0.00  0.00    +0.000 A 
ATOM     12  N   UNL     1       1.008  14.624  20.885  0.00  0.00    +0.000 NA
ATOM     13  C   UNL     1       1.254  15.160  19.673  0.00  0.00    +0.000 A 
ATOM     14  C   UNL     1       0.747  14.649  18.496  0.00  0.00    +0.000 A 
ATOM     15  C   UNL     1      -0.043  13.507  18.567  0.00  0.00    +0.000 A 
ATOM     16  C   UNL     1      -0.332  12.904  19.808  0.00  0.00    +0.000 A 
BRANCH  11  18
ATOM     17  C   UNL     1      -0.422  14.030  23.110  0.00  0.00    +0.000 C 
ATOM     18  O   UNL     1      -0.103  13.007  22.168  0.00  0.00    +0.000 OA
ENDBRANCH  11  18
ENDBRANCH   1  16
BRANCH   9  19
ATOM     19  C   UNL     1       0.106   9.765  18.920  0.00  0.00    +0.000 A 
ATOM     20  C   UNL     1       0.496   9.206  20.130  0.00  0.00    +0.000 A 
ATOM     21  C   UNL     1       1.505   8.239  20.141  0.00  0.00    +0.000 A 
ATOM     22  C   UNL     1       2.134   7.892  18.946  0.00  0.00    +0.000 A 
ATOM     23  N   UNL     1       1.803   8.462  17.763  0.00  0.00    +0.000 NA
ATOM     24  C   UNL     1       0.793   9.364  17.776  0.00  0.00    +0.000 A 
BRANCH  22  25
ATOM     25  C   UNL     1       3.215   6.903  18.854  0.00  0.00    +0.000 A 
ATOM     26  C   UNL     1       3.496   5.854  19.713  0.00  0.00    +0.000 A 
ATOM     27  C   UNL     1       4.633   5.093  19.312  0.00  0.00    +0.000 A 
ATOM     28  C   UNL     1       5.207   5.598  18.169  0.00  0.00    +0.000 A 
ATOM     29  S   UNL     1       4.376   6.972  17.587  0.00  0.00    +0.000 S 
ENDBRANCH  22  25
ENDBRANCH   9  19
BRANCH   6  30
ATOM     30  C   UNL     1      -4.006  13.282  21.506  0.00  0.00    +0.000 C 
ATOM     31  C   UNL     1      -3.435  14.703  21.667  0.00  0.00    +0.000 C 
ATOM     32  C   UNL     1      -5.535  13.358  21.703  0.00  0.00    +0.000 C 
ATOM     33  C   UNL     1      -3.395  12.412  22.613  0.00  0.00    +0.000 C 
ENDBRANCH   6  30
TORSDOF 5
ENDMDL
