MODEL 1
REMARK VINA RESULT:      -6.2      0.000      0.000
REMARK  Name = 
REMARK  6 active torsions:
REMARK  status: ('A' for Active; 'I' for Inactive)
REMARK    1  A    between atoms: C_1  and  C_2
REMARK    2  A    between atoms: C_2  and  N_3
REMARK    3  A    between atoms: C_6  and  C_7
REMARK    4  A    between atoms: N_9  and  C_10
REMARK    5  A    between atoms: C_11  and  C_12
REMARK    6  A    between atoms: N_14  and  C_15
REMARK                            x       y       z     vdW  Elec       q    Type
REMARK                         _______ _______ _______ _____ _____    ______ ____
ROOT
ATOM      1  N   UNL     1       2.999   3.668  19.483  0.00  0.00    +0.000 N 
ATOM      2  C   UNL     1       3.955   2.702  19.611  0.00  0.00    +0.000 A 
ATOM      3  N   UNL     1       5.153   3.199  19.494  0.00  0.00    +0.000 NA
ATOM      4  C   UNL     1       4.998   4.570  19.316  0.00  0.00    +0.000 A 
ATOM      5  C   UNL     1       3.630   4.896  19.341  0.00  0.00    +0.000 A 
ENDROOT
BRANCH   4   6
ATOM      6  C   UNL     1       6.208   5.401  19.102  0.00  0.00    +0.000 C 
ATOM      7  O   UNL     1       7.135   5.399  19.912  0.00  0.00    +0.000 OA
ATOM      8  N   UNL     1       6.281   6.152  17.948  0.00  0.00    +0.000 N 
ATOM      9  C   UNL     1       7.411   6.990  17.638  0.00  0.00    +0.000 C 
ATOM     10  H   UNL     1       5.431   6.308  17.415  0.00  0.00    +0.000 HD
ENDBRANCH   4   6
BRANCH   5  11
ATOM     11  C   UNL     1       3.031   6.213  19.303  0.00  0.00    +0.000 C 
ATOM     12  O   UNL     1       3.084   6.919  18.295  0.00  0.00    +0.000 OA
ATOM     13  N   UNL     1       2.351   6.643  20.418  0.00  0.00    +0.000 N 
ATOM     14  C   UNL     1       1.667   7.916  20.454  0.00  0.00    +0.000 C 
ATOM     15  H   UNL     1       2.213   6.025  21.198  0.00  0.00    +0.000 HD
ENDBRANCH   5  11
BRANCH   1  17
ATOM     16  C   UNL     1       1.153   3.016  20.974  0.00  0.00    +0.000 C 
ATOM     17  C   UNL     1       1.584   3.356  19.554  0.00  0.00    +0.000 C 
ENDBRANCH   1  17
TORSDOF 3
ENDMDL
MODEL 2
REMARK VINA RESULT:      -5.9      1.098      1.133
REMARK  Name = 
REMARK  6 active torsions:
REMARK  status: ('A' for Active; 'I' for Inactive)
REMARK    1  A    between atoms: C_1  and  C_2
REMARK    2  A    between atoms: C_2  and  N_3
REMARK    3  A    between atoms: C_6  and  C_7
REMARK    4  A    between atoms: N_9  and  C_10
REMARK    5  A    between atoms: C_11  and  C_12
REMARK    6  A    between atoms: N_14  and  C_15
REMARK                            x       y       z     vdW  Elec       q    Type
REMARK                         _______ _______ _______ _____ _____    ______ ____
ROOT
ATOM      1  N   UNL     1       2.964   3.701  19.199  0.00  0.00    +0.000 N 
ATOM      2  C   UNL     1       3.910   2.730  19.359  0.00  0.00    +0.000 A 
ATOM      3  N   UNL     1       5.113   3.227  19.333  0.00  0.00    +0.000 NA
ATOM      4  C   UNL     1       4.970   4.603  19.186  0.00  0.00    +0.000 A 
ATOM      5  C   UNL     1       3.603   4.931  19.133  0.00  0.00    +0.000 A 
ENDROOT
BRANCH   4   6
ATOM      6  C   UNL     1       6.192   5.437  19.073  0.00  0.00    +0.000 C 
ATOM      7  O   UNL     1       7.037   5.454  19.968  0.00  0.00    +0.000 OA
ATOM      8  N   UNL     1       6.371   6.169  17.919  0.00  0.00    +0.000 N 
ATOM      9  C   UNL     1       7.522   7.008  17.703  0.00  0.00    +0.000 C 
ATOM     10  H   UNL     1       5.575   6.311  17.305  0.00  0.00    +0.000 HD
ENDBRANCH   4   6
BRANCH   5  11
ATOM     11  C   UNL     1       3.009   6.250  19.096  0.00  0.00    +0.000 C 
ATOM     12  O   UNL     1       2.491   6.756  20.093  0.00  0.00    +0.000 OA
ATOM     13  N   UNL     1       3.080   6.955  17.917  0.00  0.00    +0.000 N 
ATOM     14  C   UNL     1       2.572   8.303  17.800  0.00  0.00    +0.000 C 
ATOM     15  H   UNL     1       3.599   6.590  17.138  0.00  0.00    +0.000 HD
ENDBRANCH   5  11
BRANCH   1  17
ATOM     16  C   UNL     1       0.961   3.309  20.573  0.00  0.00    +0.000 C 
ATOM     17  C   UNL     1       1.547   3.390  19.171  0.00  0.00    +0.000 C 
ENDBRANCH   1  17
TORSDOF 3
ENDMDL
MODEL 3
REMARK VINA RESULT:      -5.8      1.127      1.194
REMARK  Name = 
REMARK  6 active torsions:
REMARK  status: ('A' for Active; 'I' for Inactive)
REMARK    1  A    between atoms: C_1  and  C_2
REMARK    2  A    between atoms: C_2  and  N_3
REMARK    3  A    between atoms: C_6  and  C_7
REMARK    4  A    between atoms: N_9  and  C_10
REMARK    5  A    between atoms: C_11  and  C_12
REMARK    6  A    between atoms: N_14  and  C_15
REMARK                            x       y       z     vdW  Elec       q    Type
REMARK                         _______ _______ _______ _____ _____    ______ ____
ROOT
ATOM      1  N   UNL     1       2.755   3.445  19.943  0.00  0.00    +0.000 N 
ATOM      2  C   UNL     1       3.765   2.532  20.042  0.00  0.00    +0.000 A 
ATOM      3  N   UNL     1       4.899   3.030  19.638  0.00  0.00    +0.000 NA
ATOM      4  C   UNL     1       4.648   4.352  19.286  0.00  0.00    +0.000 A 
ATOM      5  C   UNL     1       3.291   4.648  19.506  0.00  0.00    +0.000 A 
ENDROOT
BRANCH   4   6
ATOM      6  C   UNL     1       5.760   5.164  18.735  0.00  0.00    +0.000 C 
ATOM      7  O   UNL     1       5.663   5.723  17.643  0.00  0.00    +0.000 OA
ATOM      8  N   UNL     1       6.899   5.304  19.500  0.00  0.00    +0.000 N 
ATOM      9  C   UNL     1       8.037   6.073  19.065  0.00  0.00    +0.000 C 
ATOM     10  H   UNL     1       7.042   4.669  20.280  0.00  0.00    +0.000 HD
ENDBRANCH   4   6
BRANCH   5  11
ATOM     11  C   UNL     1       2.631   5.930  19.377  0.00  0.00    +0.000 C 
ATOM     12  O   UNL     1       2.306   6.384  18.280  0.00  0.00    +0.000 OA
ATOM     13  N   UNL     1       2.328   6.617  20.530  0.00  0.00    +0.000 N 
ATOM     14  C   UNL     1       1.615   7.874  20.507  0.00  0.00    +0.000 C 
ATOM     15  H   UNL     1       2.493   6.198  21.428  0.00  0.00    +0.000 HD
ENDBRANCH   5  11
BRANCH   1  17
ATOM     16  C   UNL     1       0.599   2.585  19.127  0.00  0.00    +0.000 C 
ATOM     17  C   UNL     1       1.391   3.118  20.313  0.00  0.00    +0.000 C 
ENDBRANCH   1  17
TORSDOF 3
ENDMDL
MODEL 4
REMARK VINA RESULT:      -5.8      1.110      1.136
REMARK  Name = 
REMARK  6 active torsions:
REMARK  status: ('A' for Active; 'I' for Inactive)
REMARK    1  A    between atoms: C_1  and  C_2
REMARK    2  A    between atoms: C_2  and  N_3
REMARK    3  A    between atoms: C_6  and  C_7
REMARK    4  A    between atoms: N_9  and  C_10
REMARK    5  A    between atoms: C_11  and  C_12
REMARK    6  A    between atoms: N_14  and  C_15
REMARK                            x       y       z     vdW  Elec       q    Type
REMARK                         _______ _______ _______ _____ _____    ______ ____
ROOT
ATOM      1  N   UNL     1       2.772   3.429  20.137  0.00  0.00    +0.000 N 
ATOM      2  C   UNL     1       3.705   2.452  20.334  0.00  0.00    +0.000 A 
ATOM      3  N   UNL     1       4.850   2.773  19.802  0.00  0.00    +0.000 NA
ATOM      4  C   UNL     1       4.691   4.041  19.254  0.00  0.00    +0.000 A 
ATOM      5  C   UNL     1       3.380   4.494  19.487  0.00  0.00    +0.000 A 
ENDROOT
BRANCH   4   6
ATOM      6  C   UNL     1       5.832   4.650  18.527  0.00  0.00    +0.000 C 
ATOM      7  O   UNL     1       6.505   5.549  19.033  0.00  0.00    +0.000 OA
ATOM      8  N   UNL     1       6.141   4.155  17.278  0.00  0.00    +0.000 N 
ATOM      9  C   UNL     1       7.231   4.669  16.488  0.00  0.00    +0.000 C 
ATOM     10  H   UNL     1       5.455   3.580  16.799  0.00  0.00    +0.000 HD
ENDBRANCH   4   6
BRANCH   5  11
ATOM     11  C   UNL     1       2.824   5.796  19.185  0.00  0.00    +0.000 C 
ATOM     12  O   UNL     1       2.601   6.152  18.028  0.00  0.00    +0.000 OA
ATOM     13  N   UNL     1       2.502   6.618  20.239  0.00  0.00    +0.000 N 
ATOM     14  C   UNL     1       1.885   7.910  20.041  0.00  0.00    +0.000 C 
ATOM     15  H   UNL     1       2.580   6.286  21.184  0.00  0.00    +0.000 HD
ENDBRANCH   5  11
BRANCH   1  17
ATOM     16  C   UNL     1       1.353   2.525  21.932  0.00  0.00    +0.000 C 
ATOM     17  C   UNL     1       1.411   3.293  20.619  0.00  0.00    +0.000 C 
ENDBRANCH   1  17
TORSDOF 3
ENDMDL
MODEL 5
REMARK VINA RESULT:      -5.8      1.475      1.489
REMARK  Name = 
REMARK  6 active torsions:
REMARK  status: ('A' for Active; 'I' for Inactive)
REMARK    1  A    between atoms: C_1  and  C_2
REMARK    2  A    between atoms: C_2  and  N_3
REMARK    3  A    between atoms: C_6  and  C_7
REMARK    4  A    between atoms: N_9  and  C_10
REMARK    5  A    between atoms: C_11  and  C_12
REMARK    6  A    between atoms: N_14  and  C_15
REMARK                            x       y       z     vdW  Elec       q    Type
REMARK                         _______ _______ _______ _____ _____    ______ ____
ROOT
ATOM      1  N   UNL     1       2.747   3.556  19.848  0.00  0.00    +0.000 N 
ATOM      2  C   UNL     1       3.739   2.621  19.927  0.00  0.00    +0.000 A 
ATOM      3  N   UNL     1       4.883   3.107  19.539  0.00  0.00    +0.000 NA
ATOM      4  C   UNL     1       4.659   4.442  19.220  0.00  0.00    +0.000 A 
ATOM      5  C   UNL     1       3.307   4.759  19.444  0.00  0.00    +0.000 A 
ENDROOT
BRANCH   4   6
ATOM      6  C   UNL     1       5.789   5.246  18.693  0.00  0.00    +0.000 C 
ATOM      7  O   UNL     1       5.713   5.821  17.607  0.00  0.00    +0.000 OA
ATOM      8  N   UNL     1       6.920   5.360  19.474  0.00  0.00    +0.000 N 
ATOM      9  C   UNL     1       8.073   6.120  19.062  0.00  0.00    +0.000 C 
ATOM     10  H   UNL     1       7.045   4.713  20.246  0.00  0.00    +0.000 HD
ENDBRANCH   4   6
BRANCH   5  11
ATOM     11  C   UNL     1       2.673   6.056  19.346  0.00  0.00    +0.000 C 
ATOM     12  O   UNL     1       2.087   6.564  20.303  0.00  0.00    +0.000 OA
ATOM     13  N   UNL     1       2.785   6.739  18.158  0.00  0.00    +0.000 N 
ATOM     14  C   UNL     1       2.240   8.067  17.984  0.00  0.00    +0.000 C 
ATOM     15  H   UNL     1       3.356   6.376  17.415  0.00  0.00    +0.000 HD
ENDBRANCH   5  11
BRANCH   1  17
ATOM     16  C   UNL     1       1.275   2.687  21.618  0.00  0.00    +0.000 C 
ATOM     17  C   UNL     1       1.376   3.246  20.205  0.00  0.00    +0.000 C 
ENDBRANCH   1  17
TORSDOF 3
ENDMDL
MODEL 6
REMARK VINA RESULT:      -5.7      3.040      4.411
REMARK  Name = 
REMARK  6 active torsions:
REMARK  status: ('A' for Active; 'I' for Inactive)
REMARK    1  A    between atoms: C_1  and  C_2
REMARK    2  A    between atoms: C_2  and  N_3
REMARK    3  A    between atoms: C_6  and  C_7
REMARK    4  A    between atoms: N_9  and  C_10
REMARK    5  A    between atoms: C_11  and  C_12
REMARK    6  A    between atoms: N_14  and  C_15
REMARK                            x       y       z     vdW  Elec       q    Type
REMARK                         _______ _______ _______ _____ _____    ______ ____
ROOT
ATOM      1  N   UNL     1       4.816   4.792  18.137  0.00  0.00    +0.000 N 
ATOM      2  C   UNL     1       4.179   3.823  17.416  0.00  0.00    +0.000 A 
ATOM      3  N   UNL     1       4.719   3.672  16.240  0.00  0.00    +0.000 NA
ATOM      4  C   UNL     1       5.793   4.553  16.181  0.00  0.00    +0.000 A 
ATOM      5  C   UNL     1       5.894   5.254  17.397  0.00  0.00    +0.000 A 
ENDROOT
BRANCH   4   6
ATOM      6  C   UNL     1       6.576   4.637  14.924  0.00  0.00    +0.000 C 
ATOM      7  O   UNL     1       7.533   5.404  14.817  0.00  0.00    +0.000 OA
ATOM      8  N   UNL     1       6.220   3.803  13.885  0.00  0.00    +0.000 N 
ATOM      9  C   UNL     1       6.914   3.798  12.622  0.00  0.00    +0.000 C 
ATOM     10  H   UNL     1       5.313   3.348  13.915  0.00  0.00    +0.000 HD
ENDBRANCH   4   6
BRANCH   5  11
ATOM     11  C   UNL     1       6.929   6.182  17.801  0.00  0.00    +0.000 C 
ATOM     12  O   UNL     1       7.831   5.851  18.572  0.00  0.00    +0.000 OA
ATOM     13  N   UNL     1       6.907   7.446  17.259  0.00  0.00    +0.000 N 
ATOM     14  C   UNL     1       7.932   8.422  17.553  0.00  0.00    +0.000 C 
ATOM     15  H   UNL     1       6.239   7.681  16.547  0.00  0.00    +0.000 HD
ENDBRANCH   5  11
BRANCH   1  17
ATOM     16  C   UNL     1       3.131   6.025  19.439  0.00  0.00    +0.000 C 
ATOM     17  C   UNL     1       4.382   5.159  19.472  0.00  0.00    +0.000 C 
ENDBRANCH   1  17
TORSDOF 3
ENDMDL
MODEL 7
REMARK VINA RESULT:      -5.7      1.226      1.282
REMARK  Name = 
REMARK  6 active torsions:
REMARK  status: ('A' for Active; 'I' for Inactive)
REMARK    1  A    between atoms: C_1  and  C_2
REMARK    2  A    between atoms: C_2  and  N_3
REMARK    3  A    between atoms: C_6  and  C_7
REMARK    4  A    between atoms: N_9  and  C_10
REMARK    5  A    between atoms: C_11  and  C_12
REMARK    6  A    between atoms: N_14  and  C_15
REMARK                            x       y       z     vdW  Elec       q    Type
REMARK                         _______ _______ _______ _____ _____    ______ ____
ROOT
ATOM      1  N   UNL     1       3.333   3.950  18.510  0.00  0.00    +0.000 N 
ATOM      2  C   UNL     1       4.077   3.013  19.168  0.00  0.00    +0.000 A 
ATOM      3  N   UNL     1       5.264   3.466  19.458  0.00  0.00    +0.000 NA
ATOM      4  C   UNL     1       5.307   4.781  19.007  0.00  0.00    +0.000 A 
ATOM      5  C   UNL     1       4.071   5.122  18.429  0.00  0.00    +0.000 A 
ENDROOT
BRANCH   4   6
ATOM      6  C   UNL     1       6.570   5.543  19.160  0.00  0.00    +0.000 C 
ATOM      7  O   UNL     1       7.325   5.344  20.112  0.00  0.00    +0.000 OA
ATOM      8  N   UNL     1       6.894   6.461  18.183  0.00  0.00    +0.000 N 
ATOM      9  C   UNL     1       8.098   7.252  18.229  0.00  0.00    +0.000 C 
ATOM     10  H   UNL     1       6.168   6.762  17.539  0.00  0.00    +0.000 HD
ENDBRANCH   4   6
BRANCH   5  11
ATOM     11  C   UNL     1       3.649   6.416  17.936  0.00  0.00    +0.000 C 
ATOM     12  O   UNL     1       4.146   6.918  16.928  0.00  0.00    +0.000 OA
ATOM     13  N   UNL     1       2.632   7.058  18.603  0.00  0.00    +0.000 N 
ATOM     14  C   UNL     1       2.099   8.323  18.151  0.00  0.00    +0.000 C 
ATOM     15  H   UNL     1       2.151   6.600  19.358  0.00  0.00    +0.000 HD
ENDBRANCH   5  11
BRANCH   1  17
ATOM     16  C   UNL     1       1.050   3.374  19.227  0.00  0.00    +0.000 C 
ATOM     17  C   UNL     1       1.982   3.672  18.060  0.00  0.00    +0.000 C 
ENDBRANCH   1  17
TORSDOF 3
ENDMDL
MODEL 8
REMARK VINA RESULT:      -5.7      2.142      2.142
REMARK  Name = 
REMARK  6 active torsions:
REMARK  status: ('A' for Active; 'I' for Inactive)
REMARK    1  A    between atoms: C_1  and  C_2
REMARK    2  A    between atoms: C_2  and  N_3
REMARK    3  A    between atoms: C_6  and  C_7
REMARK    4  A    between atoms: N_9  and  C_10
REMARK    5  A    between atoms: C_11  and  C_12
REMARK    6  A    between atoms: N_14  and  C_15
REMARK                            x       y       z     vdW  Elec       q    Type
REMARK                         _______ _______ _______ _____ _____    ______ ____
ROOT
ATOM      1  N   UNL     1       2.107   3.146  19.003  0.00  0.00    +0.000 N 
ATOM      2  C   UNL     1       2.736   2.046  18.494  0.00  0.00    +0.000 A 
ATOM      3  N   UNL     1       3.777   2.379  17.786  0.00  0.00    +0.000 NA
ATOM      4  C   UNL     1       3.876   3.765  17.854  0.00  0.00    +0.000 A 
ATOM      5  C   UNL     1       2.838   4.272  18.656  0.00  0.00    +0.000 A 
ENDROOT
BRANCH   4   6
ATOM      6  C   UNL     1       4.956   4.438  17.091  0.00  0.00    +0.000 C 
ATOM      7  O   UNL     1       4.711   5.374  16.329  0.00  0.00    +0.000 OA
ATOM      8  N   UNL     1       6.251   4.006  17.285  0.00  0.00    +0.000 N 
ATOM      9  C   UNL     1       7.375   4.592  16.600  0.00  0.00    +0.000 C 
ATOM     10  H   UNL     1       6.401   3.110  17.737  0.00  0.00    +0.000 HD
ENDBRANCH   4   6
BRANCH   5  11
ATOM     11  C   UNL     1       2.632   5.641  19.077  0.00  0.00    +0.000 C 
ATOM     12  O   UNL     1       2.660   5.964  20.265  0.00  0.00    +0.000 OA
ATOM     13  N   UNL     1       2.451   6.594  18.102  0.00  0.00    +0.000 N 
ATOM     14  C   UNL     1       2.300   7.997  18.421  0.00  0.00    +0.000 C 
ATOM     15  H   UNL     1       2.538   6.351  17.132  0.00  0.00    +0.000 HD
ENDBRANCH   5  11
BRANCH   1  17
ATOM     16  C   UNL     1       1.232   2.832  21.282  0.00  0.00    +0.000 C 
ATOM     17  C   UNL     1       0.905   3.033  19.808  0.00  0.00    +0.000 C 
ENDBRANCH   1  17
TORSDOF 3
ENDMDL
MODEL 9
REMARK VINA RESULT:      -5.5      2.648      5.392
REMARK  Name = 
REMARK  6 active torsions:
REMARK  status: ('A' for Active; 'I' for Inactive)
REMARK    1  A    between atoms: C_1  and  C_2
REMARK    2  A    between atoms: C_2  and  N_3
REMARK    3  A    between atoms: C_6  and  C_7
REMARK    4  A    between atoms: N_9  and  C_10
REMARK    5  A    between atoms: C_11  and  C_12
REMARK    6  A    between atoms: N_14  and  C_15
REMARK                            x       y       z     vdW  Elec       q    Type
REMARK                         _______ _______ _______ _____ _____    ______ ____
ROOT
ATOM      1  N   UNL     1       6.801   5.822  17.916  0.00  0.00    +0.000 N 
ATOM      2  C   UNL     1       7.026   5.795  19.262  0.00  0.00    +0.000 A 
ATOM      3  N   UNL     1       6.296   4.890  19.849  0.00  0.00    +0.000 NA
ATOM      4  C   UNL     1       5.574   4.252  18.845  0.00  0.00    +0.000 A 
ATOM      5  C   UNL     1       5.908   4.810  17.598  0.00  0.00    +0.000 A 
ENDROOT
BRANCH   4   6
ATOM      6  C   UNL     1       4.608   3.194  19.229  0.00  0.00    +0.000 C 
ATOM      7  O   UNL     1       4.917   2.303  20.020  0.00  0.00    +0.000 OA
ATOM      8  N   UNL     1       3.337   3.256  18.697  0.00  0.00    +0.000 N 
ATOM      9  C   UNL     1       2.319   2.283  19.006  0.00  0.00    +0.000 C 
ATOM     10  H   UNL     1       3.174   3.856  17.895  0.00  0.00    +0.000 HD
ENDBRANCH   4   6
BRANCH   5  11
ATOM     11  C   UNL     1       5.475   4.374  16.288  0.00  0.00    +0.000 C 
ATOM     12  O   UNL     1       4.282   4.226  16.016  0.00  0.00    +0.000 OA
ATOM     13  N   UNL     1       6.437   4.172  15.326  0.00  0.00    +0.000 N 
ATOM     14  C   UNL     1       6.099   3.798  13.971  0.00  0.00    +0.000 C 
ATOM     15  H   UNL     1       7.397   4.399  15.514  0.00  0.00    +0.000 HD
ENDBRANCH   5  11
BRANCH   1  17
ATOM     16  C   UNL     1       7.860   8.040  17.788  0.00  0.00    +0.000 C 
ATOM     17  C   UNL     1       7.481   6.765  17.048  0.00  0.00    +0.000 C 
ENDBRANCH   1  17
TORSDOF 3
ENDMDL
