MODEL 1
REMARK VINA RESULT:      -7.0      0.000      0.000
REMARK  Name = 
REMARK  6 active torsions:
REMARK  status: ('A' for Active; 'I' for Inactive)
REMARK    1  A    between atoms: C_1  and  N_2
REMARK    2  A    between atoms: N_2  and  C_3
REMARK    3  A    between atoms: N_2  and  C_4
REMARK    4  A    between atoms: C_4  and  C_5
REMARK    5  A    between atoms: C_5  and  O_6
REMARK    6  A    between atoms: O_6  and  C_7
REMARK                            x       y       z     vdW  Elec       q    Type
REMARK                         _______ _______ _______ _____ _____    ______ ____
ROOT
ATOM      1  C   UNL     1       3.277   6.721  17.901  0.00  0.00    +0.000 A 
ATOM      2  C   UNL     1       2.861   8.066  17.936  0.00  0.00    +0.000 A 
ATOM      3  C   UNL     1       2.110   8.574  18.997  0.00  0.00    +0.000 A 
ATOM      4  C   UNL     1       1.789   7.750  20.062  0.00  0.00    +0.000 A 
ATOM      5 CL   UNL     1       0.861   8.408  21.361  0.00  0.00    +0.000 Cl
ATOM      6  C   UNL     1       2.196   6.411  20.052  0.00  0.00    +0.000 A 
ATOM      7  C   UNL     1       2.946   5.867  18.972  0.00  0.00    +0.000 A 
ATOM      8  C   UNL     1       3.045   4.327  18.934  0.00  0.00    +0.000 C 
ATOM      9  C   UNL     1       1.739   3.912  18.194  0.00  0.00    +0.000 C 
ATOM     10  C   UNL     1       1.542   2.432  17.909  0.00  0.00    +0.000 C 
ATOM     11  C   UNL     1       2.787   1.677  17.468  0.00  0.00    +0.000 C 
ATOM     12  C   UNL     1       4.077   2.115  18.152  0.00  0.00    +0.000 C 
ATOM     13  C   UNL     1       4.240   3.645  18.221  0.00  0.00    +0.000 C 
ATOM     14  N   UNL     1       3.086   3.849  20.323  0.00  0.00    +0.000 N 
ATOM     15  C   UNL     1       2.357   4.359  21.341  0.00  0.00    +0.000 C 
ATOM     16  O   UNL     1       2.248   3.779  22.403  0.00  0.00    +0.000 OA
ATOM     17  N   UNL     1       1.821   5.589  21.122  0.00  0.00    +0.000 N 
ATOM     18  H   UNL     1       3.741   3.135  20.613  0.00  0.00    +0.000 HD
ATOM     19  H   UNL     1       1.322   5.989  21.903  0.00  0.00    +0.000 HD
ENDROOT
BRANCH   1  20
ATOM     20  O   UNL     1       3.955   6.190  16.832  0.00  0.00    +0.000 OA
BRANCH  20  21
ATOM     21  C   UNL     1       5.161   6.867  16.458  0.00  0.00    +0.000 C 
BRANCH  21  22
ATOM     22  C   UNL     1       6.304   6.521  17.421  0.00  0.00    +0.000 C 
BRANCH  22  24
ATOM     23  C   UNL     1       7.741   4.609  17.735  0.00  0.00    +0.000 C 
ATOM     24  N   UNL     1       7.333   5.659  16.800  0.00  0.00    +0.000 NA
ATOM     25  C   UNL     1       6.878   5.057  15.544  0.00  0.00    +0.000 C 
ENDBRANCH  22  24
ENDBRANCH  21  22
ENDBRANCH  20  21
ENDBRANCH   1  20
TORSDOF 4
ENDMDL
MODEL 2
REMARK VINA RESULT:      -6.7      2.420      4.472
REMARK  Name = 
REMARK  6 active torsions:
REMARK  status: ('A' for Active; 'I' for Inactive)
REMARK    1  A    between atoms: C_1  and  N_2
REMARK    2  A    between atoms: N_2  and  C_3
REMARK    3  A    between atoms: N_2  and  C_4
REMARK    4  A    between atoms: C_4  and  C_5
REMARK    5  A    between atoms: C_5  and  O_6
REMARK    6  A    between atoms: O_6  and  C_7
REMARK                            x       y       z     vdW  Elec       q    Type
REMARK                         _______ _______ _______ _____ _____    ______ ____
ROOT
ATOM      1  C   UNL     1       2.903   6.050  19.548  0.00  0.00    +0.000 A 
ATOM      2  C   UNL     1       1.667   6.198  20.207  0.00  0.00    +0.000 A 
ATOM      3  C   UNL     1       1.068   5.138  20.890  0.00  0.00    +0.000 A 
ATOM      4  C   UNL     1       1.713   3.915  20.953  0.00  0.00    +0.000 A 
ATOM      5 CL   UNL     1       0.948   2.624  21.808  0.00  0.00    +0.000 Cl
ATOM      6  C   UNL     1       2.945   3.745  20.311  0.00  0.00    +0.000 A 
ATOM      7  C   UNL     1       3.565   4.806  19.594  0.00  0.00    +0.000 A 
ATOM      8  C   UNL     1       4.737   4.399  18.675  0.00  0.00    +0.000 C 
ATOM      9  C   UNL     1       4.018   3.972  17.361  0.00  0.00    +0.000 C 
ATOM     10  C   UNL     1       4.896   3.574  16.186  0.00  0.00    +0.000 C 
ATOM     11  C   UNL     1       6.142   4.423  15.980  0.00  0.00    +0.000 C 
ATOM     12  C   UNL     1       6.820   4.887  17.264  0.00  0.00    +0.000 C 
ATOM     13  C   UNL     1       5.832   5.433  18.312  0.00  0.00    +0.000 C 
ATOM     14  N   UNL     1       5.443   3.284  19.322  0.00  0.00    +0.000 N 
ATOM     15  C   UNL     1       4.846   2.269  19.988  0.00  0.00    +0.000 C 
ATOM     16  O   UNL     1       5.451   1.260  20.290  0.00  0.00    +0.000 OA
ATOM     17  N   UNL     1       3.556   2.486  20.355  0.00  0.00    +0.000 N 
ATOM     18  H   UNL     1       6.453   3.258  19.367  0.00  0.00    +0.000 HD
ATOM     19  H   UNL     1       3.130   1.748  20.898  0.00  0.00    +0.000 HD
ENDROOT
BRANCH   1  20
ATOM     20  O   UNL     1       3.470   7.061  18.814  0.00  0.00    +0.000 OA
BRANCH  20  21
ATOM     21  C   UNL     1       2.620   7.675  17.837  0.00  0.00    +0.000 C 
BRANCH  21  22
ATOM     22  C   UNL     1       2.302   9.126  18.223  0.00  0.00    +0.000 C 
BRANCH  22  24
ATOM     23  C   UNL     1       1.045   9.645  20.215  0.00  0.00    +0.000 C 
ATOM     24  N   UNL     1       0.950   9.280  18.801  0.00  0.00    +0.000 NA
ATOM     25  C   UNL     1       0.143  10.273  18.085  0.00  0.00    +0.000 C 
ENDBRANCH  22  24
ENDBRANCH  21  22
ENDBRANCH  20  21
ENDBRANCH   1  20
TORSDOF 4
ENDMDL
MODEL 3
REMARK VINA RESULT:      -6.7      2.805      5.170
REMARK  Name = 
REMARK  6 active torsions:
REMARK  status: ('A' for Active; 'I' for Inactive)
REMARK    1  A    between atoms: C_1  and  N_2
REMARK    2  A    between atoms: N_2  and  C_3
REMARK    3  A    between atoms: N_2  and  C_4
REMARK    4  A    between atoms: C_4  and  C_5
REMARK    5  A    between atoms: C_5  and  O_6
REMARK    6  A    between atoms: O_6  and  C_7
REMARK                            x       y       z     vdW  Elec       q    Type
REMARK                         _______ _______ _______ _____ _____    ______ ____
ROOT
ATOM      1  C   UNL     1       3.197   6.182  17.832  0.00  0.00    +0.000 A 
ATOM      2  C   UNL     1       4.159   7.012  17.224  0.00  0.00    +0.000 A 
ATOM      3  C   UNL     1       5.349   6.498  16.707  0.00  0.00    +0.000 A 
ATOM      4  C   UNL     1       5.584   5.134  16.760  0.00  0.00    +0.000 A 
ATOM      5 CL   UNL     1       7.064   4.528  16.109  0.00  0.00    +0.000 Cl
ATOM      6  C   UNL     1       4.639   4.289  17.354  0.00  0.00    +0.000 A 
ATOM      7  C   UNL     1       3.428   4.794  17.904  0.00  0.00    +0.000 A 
ATOM      8  C   UNL     1       2.642   3.816  18.804  0.00  0.00    +0.000 C 
ATOM      9  C   UNL     1       3.316   4.004  20.195  0.00  0.00    +0.000 C 
ATOM     10  C   UNL     1       2.727   3.230  21.363  0.00  0.00    +0.000 C 
ATOM     11  C   UNL     1       1.208   3.152  21.400  0.00  0.00    +0.000 C 
ATOM     12  C   UNL     1       0.541   3.020  20.035  0.00  0.00    +0.000 C 
ATOM     13  C   UNL     1       1.112   3.987  18.982  0.00  0.00    +0.000 C 
ATOM     14  N   UNL     1       2.831   2.463  18.261  0.00  0.00    +0.000 N 
ATOM     15  C   UNL     1       3.990   1.984  17.755  0.00  0.00    +0.000 C 
ATOM     16  O   UNL     1       4.155   0.798  17.547  0.00  0.00    +0.000 OA
ATOM     17  N   UNL     1       4.921   2.920  17.431  0.00  0.00    +0.000 N 
ATOM     18  H   UNL     1       2.053   1.823  18.168  0.00  0.00    +0.000 HD
ATOM     19  H   UNL     1       5.764   2.562  17.005  0.00  0.00    +0.000 HD
ENDROOT
BRANCH   1  20
ATOM     20  O   UNL     1       2.055   6.682  18.407  0.00  0.00    +0.000 OA
BRANCH  20  21
ATOM     21  C   UNL     1       2.228   7.839  19.234  0.00  0.00    +0.000 C 
BRANCH  21  22
ATOM     22  C   UNL     1       1.646   7.604  20.634  0.00  0.00    +0.000 C 
BRANCH  22  24
ATOM     23  C   UNL     1       1.146   9.201  22.370  0.00  0.00    +0.000 C 
ATOM     24  N   UNL     1       0.734   8.685  21.064  0.00  0.00    +0.000 NA
ATOM     25  C   UNL     1       0.667   9.782  20.095  0.00  0.00    +0.000 C 
ENDBRANCH  22  24
ENDBRANCH  21  22
ENDBRANCH  20  21
ENDBRANCH   1  20
TORSDOF 4
ENDMDL
MODEL 4
REMARK VINA RESULT:      -6.6      2.961      5.217
REMARK  Name = 
REMARK  6 active torsions:
REMARK  status: ('A' for Active; 'I' for Inactive)
REMARK    1  A    between atoms: C_1  and  N_2
REMARK    2  A    between atoms: N_2  and  C_3
REMARK    3  A    between atoms: N_2  and  C_4
REMARK    4  A    between atoms: C_4  and  C_5
REMARK    5  A    between atoms: C_5  and  O_6
REMARK    6  A    between atoms: O_6  and  C_7
REMARK                            x       y       z     vdW  Elec       q    Type
REMARK                         _______ _______ _______ _____ _____    ______ ____
ROOT
ATOM      1  C   UNL     1       3.246   6.241  17.766  0.00  0.00    +0.000 A 
ATOM      2  C   UNL     1       4.216   7.051  17.145  0.00  0.00    +0.000 A 
ATOM      3  C   UNL     1       5.390   6.514  16.614  0.00  0.00    +0.000 A 
ATOM      4  C   UNL     1       5.599   5.146  16.667  0.00  0.00    +0.000 A 
ATOM      5 CL   UNL     1       7.059   4.510  15.999  0.00  0.00    +0.000 Cl
ATOM      6  C   UNL     1       4.646   4.320  17.274  0.00  0.00    +0.000 A 
ATOM      7  C   UNL     1       3.452   4.849  17.838  0.00  0.00    +0.000 A 
ATOM      8  C   UNL     1       2.659   3.887  18.750  0.00  0.00    +0.000 C 
ATOM      9  C   UNL     1       3.354   4.066  20.133  0.00  0.00    +0.000 C 
ATOM     10  C   UNL     1       2.765   3.305  21.310  0.00  0.00    +0.000 C 
ATOM     11  C   UNL     1       1.246   3.256  21.365  0.00  0.00    +0.000 C 
ATOM     12  C   UNL     1       0.558   3.133  20.010  0.00  0.00    +0.000 C 
ATOM     13  C   UNL     1       1.135   4.087  18.947  0.00  0.00    +0.000 C 
ATOM     14  N   UNL     1       2.815   2.530  18.209  0.00  0.00    +0.000 N 
ATOM     15  C   UNL     1       3.959   2.028  17.689  0.00  0.00    +0.000 C 
ATOM     16  O   UNL     1       4.099   0.839  17.482  0.00  0.00    +0.000 OA
ATOM     17  N   UNL     1       4.903   2.945  17.351  0.00  0.00    +0.000 N 
ATOM     18  H   UNL     1       2.025   1.904  18.127  0.00  0.00    +0.000 HD
ATOM     19  H   UNL     1       5.734   2.571  16.916  0.00  0.00    +0.000 HD
ENDROOT
BRANCH   1  20
ATOM     20  O   UNL     1       2.121   6.763  18.354  0.00  0.00    +0.000 OA
BRANCH  20  21
ATOM     21  C   UNL     1       2.243   8.099  18.858  0.00  0.00    +0.000 C 
BRANCH  21  22
ATOM     22  C   UNL     1       1.477   9.090  17.971  0.00  0.00    +0.000 C 
BRANCH  22  24
ATOM     23  C   UNL     1      -0.634  10.224  18.241  0.00  0.00    +0.000 C 
ATOM     24  N   UNL     1       0.731  10.098  18.753  0.00  0.00    +0.000 NA
ATOM     25  C   UNL     1       0.698   9.788  20.185  0.00  0.00    +0.000 C 
ENDBRANCH  22  24
ENDBRANCH  21  22
ENDBRANCH  20  21
ENDBRANCH   1  20
TORSDOF 4
ENDMDL
MODEL 5
REMARK VINA RESULT:      -6.4      2.654      4.873
REMARK  Name = 
REMARK  6 active torsions:
REMARK  status: ('A' for Active; 'I' for Inactive)
REMARK    1  A    between atoms: C_1  and  N_2
REMARK    2  A    between atoms: N_2  and  C_3
REMARK    3  A    between atoms: N_2  and  C_4
REMARK    4  A    between atoms: C_4  and  C_5
REMARK    5  A    between atoms: C_5  and  O_6
REMARK    6  A    between atoms: O_6  and  C_7
REMARK                            x       y       z     vdW  Elec       q    Type
REMARK                         _______ _______ _______ _____ _____    ______ ____
ROOT
ATOM      1  C   UNL     1       3.902   6.272  17.601  0.00  0.00    +0.000 A 
ATOM      2  C   UNL     1       5.013   7.072  17.273  0.00  0.00    +0.000 A 
ATOM      3  C   UNL     1       6.318   6.666  17.556  0.00  0.00    +0.000 A 
ATOM      4  C   UNL     1       6.538   5.433  18.145  0.00  0.00    +0.000 A 
ATOM      5 CL   UNL     1       8.164   4.958  18.480  0.00  0.00    +0.000 Cl
ATOM      6  C   UNL     1       5.449   4.617  18.476  0.00  0.00    +0.000 A 
ATOM      7  C   UNL     1       4.110   5.020  18.214  0.00  0.00    +0.000 A 
ATOM      8  C   UNL     1       3.011   4.189  18.913  0.00  0.00    +0.000 C 
ATOM      9  C   UNL     1       2.906   4.860  20.314  0.00  0.00    +0.000 C 
ATOM     10  C   UNL     1       1.841   4.330  21.261  0.00  0.00    +0.000 C 
ATOM     11  C   UNL     1       0.505   3.987  20.619  0.00  0.00    +0.000 C 
ATOM     12  C   UNL     1       0.601   3.377  19.225  0.00  0.00    +0.000 C 
ATOM     13  C   UNL     1       1.589   4.117  18.304  0.00  0.00    +0.000 C 
ATOM     14  N   UNL     1       3.484   2.799  18.985  0.00  0.00    +0.000 N 
ATOM     15  C   UNL     1       4.756   2.424  19.252  0.00  0.00    +0.000 C 
ATOM     16  O   UNL     1       5.037   1.276  19.537  0.00  0.00    +0.000 OA
ATOM     17  N   UNL     1       5.696   3.394  19.110  0.00  0.00    +0.000 N 
ATOM     18  H   UNL     1       2.873   2.025  18.758  0.00  0.00    +0.000 HD
ATOM     19  H   UNL     1       6.651   3.097  19.258  0.00  0.00    +0.000 HD
ENDROOT
BRANCH   1  20
ATOM     20  O   UNL     1       2.611   6.688  17.394  0.00  0.00    +0.000 OA
BRANCH  20  21
ATOM     21  C   UNL     1       2.336   8.056  17.719  0.00  0.00    +0.000 C 
BRANCH  21  22
ATOM     22  C   UNL     1       1.966   8.203  19.201  0.00  0.00    +0.000 C 
BRANCH  22  24
ATOM     23  C   UNL     1       0.493   9.887  18.303  0.00  0.00    +0.000 C 
ATOM     24  N   UNL     1       1.237   9.456  19.487  0.00  0.00    +0.000 NA
ATOM     25  C   UNL     1       0.325   9.329  20.628  0.00  0.00    +0.000 C 
ENDBRANCH  22  24
ENDBRANCH  21  22
ENDBRANCH  20  21
ENDBRANCH   1  20
TORSDOF 4
ENDMDL
MODEL 6
REMARK VINA RESULT:      -6.4      1.884      2.583
REMARK  Name = 
REMARK  6 active torsions:
REMARK  status: ('A' for Active; 'I' for Inactive)
REMARK    1  A    between atoms: C_1  and  N_2
REMARK    2  A    between atoms: N_2  and  C_3
REMARK    3  A    between atoms: N_2  and  C_4
REMARK    4  A    between atoms: C_4  and  C_5
REMARK    5  A    between atoms: C_5  and  O_6
REMARK    6  A    between atoms: O_6  and  C_7
REMARK                            x       y       z     vdW  Elec       q    Type
REMARK                         _______ _______ _______ _____ _____    ______ ____
ROOT
ATOM      1  C   UNL     1       5.492   5.657  17.638  0.00  0.00    +0.000 A 
ATOM      2  C   UNL     1       5.622   6.861  16.920  0.00  0.00    +0.000 A 
ATOM      3  C   UNL     1       4.614   7.827  16.918  0.00  0.00    +0.000 A 
ATOM      4  C   UNL     1       3.468   7.619  17.665  0.00  0.00    +0.000 A 
ATOM      5 CL   UNL     1       2.240   8.833  17.646  0.00  0.00    +0.000 Cl
ATOM      6  C   UNL     1       3.318   6.432  18.393  0.00  0.00    +0.000 A 
ATOM      7  C   UNL     1       4.325   5.426  18.393  0.00  0.00    +0.000 A 
ATOM      8  C   UNL     1       3.900   4.053  18.959  0.00  0.00    +0.000 C 
ATOM      9  C   UNL     1       3.248   3.356  17.729  0.00  0.00    +0.000 C 
ATOM     10  C   UNL     1       2.774   1.923  17.912  0.00  0.00    +0.000 C 
ATOM     11  C   UNL     1       3.690   1.030  18.736  0.00  0.00    +0.000 C 
ATOM     12  C   UNL     1       4.371   1.722  19.911  0.00  0.00    +0.000 C 
ATOM     13  C   UNL     1       4.966   3.095  19.548  0.00  0.00    +0.000 C 
ATOM     14  N   UNL     1       2.941   4.298  20.046  0.00  0.00    +0.000 N 
ATOM     15  C   UNL     1       1.976   5.245  20.031  0.00  0.00    +0.000 C 
ATOM     16  O   UNL     1       1.068   5.245  20.839  0.00  0.00    +0.000 OA
ATOM     17  N   UNL     1       2.131   6.228  19.105  0.00  0.00    +0.000 N 
ATOM     18  H   UNL     1       3.006   3.800  20.923  0.00  0.00    +0.000 HD
ATOM     19  H   UNL     1       1.437   6.961  19.132  0.00  0.00    +0.000 HD
ENDROOT
BRANCH   1  20
ATOM     20  O   UNL     1       6.443   4.669  17.593  0.00  0.00    +0.000 OA
BRANCH  20  21
ATOM     21  C   UNL     1       7.091   4.484  16.328  0.00  0.00    +0.000 C 
BRANCH  21  22
ATOM     22  C   UNL     1       6.159   3.776  15.335  0.00  0.00    +0.000 C 
BRANCH  22  24
ATOM     23  C   UNL     1       7.414   5.127  13.780  0.00  0.00    +0.000 C 
ATOM     24  N   UNL     1       6.155   4.413  14.001  0.00  0.00    +0.000 NA
ATOM     25  C   UNL     1       5.933   3.451  12.918  0.00  0.00    +0.000 C 
ENDBRANCH  22  24
ENDBRANCH  21  22
ENDBRANCH  20  21
ENDBRANCH   1  20
TORSDOF 4
ENDMDL
MODEL 7
REMARK VINA RESULT:      -6.0      7.251     10.841
REMARK  Name = 
REMARK  6 active torsions:
REMARK  status: ('A' for Active; 'I' for Inactive)
REMARK    1  A    between atoms: C_1  and  N_2
REMARK    2  A    between atoms: N_2  and  C_3
REMARK    3  A    between atoms: N_2  and  C_4
REMARK    4  A    between atoms: C_4  and  C_5
REMARK    5  A    between atoms: C_5  and  O_6
REMARK    6  A    between atoms: O_6  and  C_7
REMARK                            x       y       z     vdW  Elec       q    Type
REMARK                         _______ _______ _______ _____ _____    ______ ____
ROOT
ATOM      1  C   UNL     1      -2.630  12.090  19.703  0.00  0.00    +0.000 A 
ATOM      2  C   UNL     1      -2.215  11.770  18.396  0.00  0.00    +0.000 A 
ATOM      3  C   UNL     1      -1.066  11.015  18.155  0.00  0.00    +0.000 A 
ATOM      4  C   UNL     1      -0.327  10.537  19.224  0.00  0.00    +0.000 A 
ATOM      5 CL   UNL     1       1.088   9.604  18.895  0.00  0.00    +0.000 Cl
ATOM      6  C   UNL     1      -0.723  10.838  20.533  0.00  0.00    +0.000 A 
ATOM      7  C   UNL     1      -1.880  11.622  20.800  0.00  0.00    +0.000 A 
ATOM      8  C   UNL     1      -2.016  12.144  22.247  0.00  0.00    +0.000 C 
ATOM      9  C   UNL     1      -1.172  13.454  22.225  0.00  0.00    +0.000 C 
ATOM     10  C   UNL     1      -1.148  14.286  23.496  0.00  0.00    +0.000 C 
ATOM     11  C   UNL     1      -2.475  14.399  24.232  0.00  0.00    +0.000 C 
ATOM     12  C   UNL     1      -3.328  13.135  24.212  0.00  0.00    +0.000 C 
ATOM     13  C   UNL     1      -3.415  12.482  22.820  0.00  0.00    +0.000 C 
ATOM     14  N   UNL     1      -1.454  11.124  23.143  0.00  0.00    +0.000 N 
ATOM     15  C   UNL     1      -0.344  10.394  22.890  0.00  0.00    +0.000 C 
ATOM     16  O   UNL     1       0.208   9.747  23.758  0.00  0.00    +0.000 OA
ATOM     17  N   UNL     1       0.066  10.378  21.594  0.00  0.00    +0.000 N 
ATOM     18  H   UNL     1      -1.930  10.854  23.993  0.00  0.00    +0.000 HD
ATOM     19  H   UNL     1       0.864   9.790  21.399  0.00  0.00    +0.000 HD
ENDROOT
BRANCH   1  20
ATOM     20  O   UNL     1      -3.717  12.890  19.952  0.00  0.00    +0.000 OA
BRANCH  20  21
ATOM     21  C   UNL     1      -4.958  12.453  19.386  0.00  0.00    +0.000 C 
BRANCH  21  22
ATOM     22  C   UNL     1      -6.139  12.854  20.279  0.00  0.00    +0.000 C 
BRANCH  22  24
ATOM     23  C   UNL     1      -7.228  12.319  22.363  0.00  0.00    +0.000 C 
ATOM     24  N   UNL     1      -6.570  11.764  21.180  0.00  0.00    +0.000 NA
ATOM     25  C   UNL     1      -7.462  10.807  20.519  0.00  0.00    +0.000 C 
ENDBRANCH  22  24
ENDBRANCH  21  22
ENDBRANCH  20  21
ENDBRANCH   1  20
TORSDOF 4
ENDMDL
MODEL 8
REMARK VINA RESULT:      -6.0      7.235     10.801
REMARK  Name = 
REMARK  6 active torsions:
REMARK  status: ('A' for Active; 'I' for Inactive)
REMARK    1  A    between atoms: C_1  and  N_2
REMARK    2  A    between atoms: N_2  and  C_3
REMARK    3  A    between atoms: N_2  and  C_4
REMARK    4  A    between atoms: C_4  and  C_5
REMARK    5  A    between atoms: C_5  and  O_6
REMARK    6  A    between atoms: O_6  and  C_7
REMARK                            x       y       z     vdW  Elec       q    Type
REMARK                         _______ _______ _______ _____ _____    ______ ____
ROOT
ATOM      1  C   UNL     1      -3.945  11.979  19.019  0.00  0.00    +0.000 A 
ATOM      2  C   UNL     1      -4.870  11.893  17.960  0.00  0.00    +0.000 A 
ATOM      3  C   UNL     1      -4.523  11.342  16.726  0.00  0.00    +0.000 A 
ATOM      4  C   UNL     1      -3.248  10.835  16.538  0.00  0.00    +0.000 A 
ATOM      5 CL   UNL     1      -2.849  10.156  15.001  0.00  0.00    +0.000 Cl
ATOM      6  C   UNL     1      -2.313  10.903  17.578  0.00  0.00    +0.000 A 
ATOM      7  C   UNL     1      -2.640  11.478  18.838  0.00  0.00    +0.000 A 
ATOM      8  C   UNL     1      -1.444  11.783  19.766  0.00  0.00    +0.000 C 
ATOM      9  C   UNL     1      -0.976  13.187  19.282  0.00  0.00    +0.000 C 
ATOM     10  C   UNL     1       0.164  13.841  20.045  0.00  0.00    +0.000 C 
ATOM     11  C   UNL     1       0.124  13.673  21.556  0.00  0.00    +0.000 C 
ATOM     12  C   UNL     1      -0.382  12.317  22.036  0.00  0.00    +0.000 C 
ATOM     13  C   UNL     1      -1.650  11.846  21.300  0.00  0.00    +0.000 C 
ATOM     14  N   UNL     1      -0.432  10.741  19.543  0.00  0.00    +0.000 N 
ATOM     15  C   UNL     1      -0.114  10.211  18.340  0.00  0.00    +0.000 C 
ATOM     16  O   UNL     1       0.885   9.538  18.181  0.00  0.00    +0.000 OA
ATOM     17  N   UNL     1      -1.019  10.422  17.348  0.00  0.00    +0.000 N 
ATOM     18  H   UNL     1       0.044  10.298  20.318  0.00  0.00    +0.000 HD
ATOM     19  H   UNL     1      -0.804   9.980  16.465  0.00  0.00    +0.000 HD
ENDROOT
BRANCH   1  20
ATOM     20  O   UNL     1      -4.250  12.581  20.213  0.00  0.00    +0.000 OA
BRANCH  20  21
ATOM     21  C   UNL     1      -5.627  12.523  20.608  0.00  0.00    +0.000 C 
BRANCH  21  22
ATOM     22  C   UNL     1      -5.860  13.322  21.897  0.00  0.00    +0.000 C 
BRANCH  22  24
ATOM     23  C   UNL     1      -4.389  12.905  23.761  0.00  0.00    +0.000 C 
ATOM     24  N   UNL     1      -5.643  12.515  23.117  0.00  0.00    +0.000 NA
ATOM     25  C   UNL     1      -6.749  12.630  24.071  0.00  0.00    +0.000 C 
ENDBRANCH  22  24
ENDBRANCH  21  22
ENDBRANCH  20  21
ENDBRANCH   1  20
TORSDOF 4
ENDMDL
MODEL 9
REMARK VINA RESULT:      -5.9      8.365     11.067
REMARK  Name = 
REMARK  6 active torsions:
REMARK  status: ('A' for Active; 'I' for Inactive)
REMARK    1  A    between atoms: C_1  and  N_2
REMARK    2  A    between atoms: N_2  and  C_3
REMARK    3  A    between atoms: N_2  and  C_4
REMARK    4  A    between atoms: C_4  and  C_5
REMARK    5  A    between atoms: C_5  and  O_6
REMARK    6  A    between atoms: O_6  and  C_7
REMARK                            x       y       z     vdW  Elec       q    Type
REMARK                         _______ _______ _______ _____ _____    ______ ____
ROOT
ATOM      1  C   UNL     1      -2.581  11.366  18.812  0.00  0.00    +0.000 A 
ATOM      2  C   UNL     1      -1.796  10.535  17.990  0.00  0.00    +0.000 A 
ATOM      3  C   UNL     1      -2.217  10.158  16.713  0.00  0.00    +0.000 A 
ATOM      4  C   UNL     1      -3.420  10.635  16.222  0.00  0.00    +0.000 A 
ATOM      5 CL   UNL     1      -3.912  10.154  14.638  0.00  0.00    +0.000 Cl
ATOM      6  C   UNL     1      -4.215  11.468  17.019  0.00  0.00    +0.000 A 
ATOM      7  C   UNL     1      -3.814  11.849  18.330  0.00  0.00    +0.000 A 
ATOM      8  C   UNL     1      -4.912  12.488  19.207  0.00  0.00    +0.000 C 
ATOM      9  C   UNL     1      -5.632  11.251  19.821  0.00  0.00    +0.000 C 
ATOM     10  C   UNL     1      -6.747  11.520  20.819  0.00  0.00    +0.000 C 
ATOM     11  C   UNL     1      -6.490  12.654  21.799  0.00  0.00    +0.000 C 
ATOM     12  C   UNL     1      -5.740  13.847  21.216  0.00  0.00    +0.000 C 
ATOM     13  C   UNL     1      -4.522  13.442  20.364  0.00  0.00    +0.000 C 
ATOM     14  N   UNL     1      -5.787  13.272  18.324  0.00  0.00    +0.000 N 
ATOM     15  C   UNL     1      -6.178  12.896  17.085  0.00  0.00    +0.000 C 
ATOM     16  O   UNL     1      -7.083  13.458  16.502  0.00  0.00    +0.000 OA
ATOM     17  N   UNL     1      -5.446  11.902  16.514  0.00  0.00    +0.000 N 
ATOM     18  H   UNL     1      -6.092  14.202  18.579  0.00  0.00    +0.000 HD
ATOM     19  H   UNL     1      -5.707  11.660  15.569  0.00  0.00    +0.000 HD
ENDROOT
BRANCH   1  20
ATOM     20  O   UNL     1      -2.213  11.687  20.095  0.00  0.00    +0.000 OA
BRANCH  20  21
ATOM     21  C   UNL     1      -0.893  11.289  20.484  0.00  0.00    +0.000 C 
BRANCH  21  22
ATOM     22  C   UNL     1      -0.329  12.235  21.552  0.00  0.00    +0.000 C 
BRANCH  22  24
ATOM     23  C   UNL     1      -1.948  12.464  23.325  0.00  0.00    +0.000 C 
ATOM     24  N   UNL     1      -0.692  11.827  22.926  0.00  0.00    +0.000 NA
ATOM     25  C   UNL     1      -0.806  10.373  23.070  0.00  0.00    +0.000 C 
ENDBRANCH  22  24
ENDBRANCH  21  22
ENDBRANCH  20  21
ENDBRANCH   1  20
TORSDOF 4
ENDMDL
