MODEL 1
REMARK VINA RESULT:      -7.8      0.000      0.000
REMARK  Name = 
REMARK  5 active torsions:
REMARK  status: ('A' for Active; 'I' for Inactive)
REMARK    1  A    between atoms: C_2  and  C_4
REMARK    2  A    between atoms: N_10  and  CA_11
REMARK    3  A    between atoms: CA_11  and  C_12
REMARK    4  A    between atoms: CA_11  and  C_15
REMARK    5  A    between atoms: C_12  and  OXT_14
REMARK                            x       y       z     vdW  Elec       q    Type
REMARK                         _______ _______ _______ _____ _____    ______ ____
ROOT
ATOM      1  C   UNL     1       1.407   8.416  20.054  0.00  0.00    +0.000 A 
ATOM      2  C   UNL     1       1.235   9.532  19.214  0.00  0.00    +0.000 A 
ATOM      3  C   UNL     1       1.740   9.524  17.921  0.00  0.00    +0.000 A 
ATOM      4  C   UNL     1       2.502   8.443  17.501  0.00  0.00    +0.000 A 
ATOM      5  C   UNL     1       2.763   7.351  18.367  0.00  0.00    +0.000 A 
ATOM      6  C   UNL     1       3.698   6.335  18.092  0.00  0.00    +0.000 A 
ATOM      7  N   UNL     1       4.585   6.474  17.018  0.00  0.00    +0.000 N 
ATOM      8  N   UNL     1       3.868   5.271  18.901  0.00  0.00    +0.000 NA
ATOM      9  C   UNL     1       3.088   5.223  19.986  0.00  0.00    +0.000 A 
ATOM     10  N   UNL     1       2.279   6.192  20.404  0.00  0.00    +0.000 NA
ATOM     11  C   UNL     1       2.140   7.288  19.628  0.00  0.00    +0.000 A 
ATOM     12  H   UNL     1       4.085   6.384  16.137  0.00  0.00    +0.000 HD
ENDROOT
BRANCH   1  14
ATOM     13  N   UNL     1       1.625   8.870  22.463  0.00  0.00    +0.000 N 
ATOM     14  C   UNL     1       0.810   8.533  21.422  0.00  0.00    +0.000 C 
ATOM     15  O   UNL     1      -0.385   8.340  21.620  0.00  0.00    +0.000 OA
ATOM     16  H   UNL     1       1.230   8.966  23.386  0.00  0.00    +0.000 HD
ATOM     17  H   UNL     1       2.614   9.047  22.315  0.00  0.00    +0.000 HD
ENDBRANCH   1  14
BRANCH   7  18
ATOM     18  CA  UNL     1       5.860   5.713  17.011  0.00  0.00    +0.000 C 
BRANCH  18  19
ATOM     19  C   UNL     1       6.111   5.129  15.617  0.00  0.00    +0.000 A 
ATOM     20  C   UNL     1       5.127   4.315  15.027  0.00  0.00    +0.000 A 
ATOM     21  C   UNL     1       5.312   3.779  13.751  0.00  0.00    +0.000 A 
ATOM     22  C   UNL     1       6.486   4.038  13.049  0.00  0.00    +0.000 A 
ATOM     23  C   UNL     1       7.492   4.798  13.640  0.00  0.00    +0.000 A 
ATOM     24  C   UNL     1       7.314   5.328  14.921  0.00  0.00    +0.000 A 
ENDBRANCH  18  19
BRANCH  18  25
ATOM     25  C   UNL     1       7.082   6.563  17.481  0.00  0.00    +0.000 C 
ATOM     26  O   UNL     1       7.380   7.678  17.055  0.00  0.00    +0.000 OA
BRANCH  25  27
ATOM     27  OXT UNL     1       7.869   5.944  18.394  0.00  0.00    +0.000 OA
ATOM     28  HXT UNL     1       8.794   5.897  18.061  0.00  0.00    +0.000 HD
ENDBRANCH  25  27
ENDBRANCH  18  25
ENDBRANCH   7  18
TORSDOF 5
ENDMDL
MODEL 2
REMARK VINA RESULT:      -7.7      3.180      3.799
REMARK  Name = 
REMARK  5 active torsions:
REMARK  status: ('A' for Active; 'I' for Inactive)
REMARK    1  A    between atoms: C_2  and  C_4
REMARK    2  A    between atoms: N_10  and  CA_11
REMARK    3  A    between atoms: CA_11  and  C_12
REMARK    4  A    between atoms: CA_11  and  C_15
REMARK    5  A    between atoms: C_12  and  OXT_14
REMARK                            x       y       z     vdW  Elec       q    Type
REMARK                         _______ _______ _______ _____ _____    ______ ____
ROOT
ATOM      1  C   UNL     1       2.636   3.499  19.883  0.00  0.00    +0.000 A 
ATOM      2  C   UNL     1       1.830   2.608  19.149  0.00  0.00    +0.000 A 
ATOM      3  C   UNL     1       2.297   2.045  17.969  0.00  0.00    +0.000 A 
ATOM      4  C   UNL     1       3.528   2.447  17.471  0.00  0.00    +0.000 A 
ATOM      5  C   UNL     1       4.312   3.413  18.150  0.00  0.00    +0.000 A 
ATOM      6  C   UNL     1       5.454   4.027  17.601  0.00  0.00    +0.000 A 
ATOM      7  N   UNL     1       5.753   3.858  16.244  0.00  0.00    +0.000 N 
ATOM      8  N   UNL     1       6.221   4.887  18.301  0.00  0.00    +0.000 NA
ATOM      9  C   UNL     1       5.844   5.122  19.562  0.00  0.00    +0.000 A 
ATOM     10  N   UNL     1       4.714   4.704  20.126  0.00  0.00    +0.000 NA
ATOM     11  C   UNL     1       3.910   3.884  19.414  0.00  0.00    +0.000 A 
ATOM     12  H   UNL     1       6.064   2.906  16.070  0.00  0.00    +0.000 HD
ENDROOT
BRANCH   1  14
ATOM     13  N   UNL     1       1.896   5.384  21.279  0.00  0.00    +0.000 N 
ATOM     14  C   UNL     1       2.033   4.034  21.144  0.00  0.00    +0.000 C 
ATOM     15  O   UNL     1       1.659   3.289  22.044  0.00  0.00    +0.000 OA
ATOM     16  H   UNL     1       1.477   5.755  22.119  0.00  0.00    +0.000 HD
ATOM     17  H   UNL     1       2.188   6.015  20.539  0.00  0.00    +0.000 HD
ENDBRANCH   1  14
BRANCH   7  18
ATOM     18  CA  UNL     1       6.606   4.855  15.546  0.00  0.00    +0.000 C 
BRANCH  18  19
ATOM     19  C   UNL     1       6.691   4.515  14.055  0.00  0.00    +0.000 A 
ATOM     20  C   UNL     1       5.846   3.522  13.528  0.00  0.00    +0.000 A 
ATOM     21  C   UNL     1       5.882   3.197  12.170  0.00  0.00    +0.000 A 
ATOM     22  C   UNL     1       6.771   3.850  11.320  0.00  0.00    +0.000 A 
ATOM     23  C   UNL     1       7.652   4.798  11.836  0.00  0.00    +0.000 A 
ATOM     24  C   UNL     1       7.625   5.118  13.196  0.00  0.00    +0.000 A 
ENDBRANCH  18  19
BRANCH  18  25
ATOM     25  C   UNL     1       6.119   6.324  15.750  0.00  0.00    +0.000 C 
ATOM     26  O   UNL     1       5.110   6.817  15.249  0.00  0.00    +0.000 OA
BRANCH  25  27
ATOM     27  OXT UNL     1       6.949   7.082  16.508  0.00  0.00    +0.000 OA
ATOM     28  HXT UNL     1       7.860   6.710  16.482  0.00  0.00    +0.000 HD
ENDBRANCH  25  27
ENDBRANCH  18  25
ENDBRANCH   7  18
TORSDOF 5
ENDMDL
MODEL 3
REMARK VINA RESULT:      -7.6      3.122      3.924
REMARK  Name = 
REMARK  5 active torsions:
REMARK  status: ('A' for Active; 'I' for Inactive)
REMARK    1  A    between atoms: C_2  and  C_4
REMARK    2  A    between atoms: N_10  and  CA_11
REMARK    3  A    between atoms: CA_11  and  C_12
REMARK    4  A    between atoms: CA_11  and  C_15
REMARK    5  A    between atoms: C_12  and  OXT_14
REMARK                            x       y       z     vdW  Elec       q    Type
REMARK                         _______ _______ _______ _____ _____    ______ ____
ROOT
ATOM      1  C   UNL     1       2.369   3.393  19.669  0.00  0.00    +0.000 A 
ATOM      2  C   UNL     1       1.754   2.359  18.938  0.00  0.00    +0.000 A 
ATOM      3  C   UNL     1       2.412   1.763  17.871  0.00  0.00    +0.000 A 
ATOM      4  C   UNL     1       3.642   2.267  17.472  0.00  0.00    +0.000 A 
ATOM      5  C   UNL     1       4.233   3.369  18.139  0.00  0.00    +0.000 A 
ATOM      6  C   UNL     1       5.358   4.066  17.660  0.00  0.00    +0.000 A 
ATOM      7  N   UNL     1       5.828   3.828  16.363  0.00  0.00    +0.000 N 
ATOM      8  N   UNL     1       5.941   5.063  18.356  0.00  0.00    +0.000 NA
ATOM      9  C   UNL     1       5.398   5.351  19.543  0.00  0.00    +0.000 A 
ATOM     10  N   UNL     1       4.263   4.849  20.020  0.00  0.00    +0.000 NA
ATOM     11  C   UNL     1       3.639   3.887  19.305  0.00  0.00    +0.000 A 
ATOM     12  H   UNL     1       6.258   2.908  16.311  0.00  0.00    +0.000 HD
ENDROOT
BRANCH   1  14
ATOM     13  N   UNL     1       1.332   5.294  20.837  0.00  0.00    +0.000 N 
ATOM     14  C   UNL     1       1.570   3.951  20.805  0.00  0.00    +0.000 C 
ATOM     15  O   UNL     1       1.125   3.232  21.694  0.00  0.00    +0.000 OA
ATOM     16  H   UNL     1       0.782   5.679  21.591  0.00  0.00    +0.000 HD
ATOM     17  H   UNL     1       1.681   5.903  20.104  0.00  0.00    +0.000 HD
ENDBRANCH   1  14
BRANCH   7  18
ATOM     18  CA  UNL     1       6.643   4.860  15.672  0.00  0.00    +0.000 C 
BRANCH  18  19
ATOM     19  C   UNL     1       6.733   4.538  14.177  0.00  0.00    +0.000 A 
ATOM     20  C   UNL     1       7.659   5.234  13.380  0.00  0.00    +0.000 A 
ATOM     21  C   UNL     1       7.783   4.956  12.016  0.00  0.00    +0.000 A 
ATOM     22  C   UNL     1       6.976   3.986  11.427  0.00  0.00    +0.000 A 
ATOM     23  C   UNL     1       6.017   3.325  12.191  0.00  0.00    +0.000 A 
ATOM     24  C   UNL     1       5.884   3.609  13.553  0.00  0.00    +0.000 A 
ENDBRANCH  18  19
BRANCH  18  25
ATOM     25  C   UNL     1       6.109   6.309  15.893  0.00  0.00    +0.000 C 
ATOM     26  O   UNL     1       5.072   6.767  15.414  0.00  0.00    +0.000 OA
BRANCH  25  27
ATOM     27  OXT UNL     1       6.925   7.094  16.637  0.00  0.00    +0.000 OA
ATOM     28  HXT UNL     1       7.791   7.202  16.182  0.00  0.00    +0.000 HD
ENDBRANCH  25  27
ENDBRANCH  18  25
ENDBRANCH   7  18
TORSDOF 5
ENDMDL
MODEL 4
REMARK VINA RESULT:      -7.5      2.884      4.356
REMARK  Name = 
REMARK  5 active torsions:
REMARK  status: ('A' for Active; 'I' for Inactive)
REMARK    1  A    between atoms: C_2  and  C_4
REMARK    2  A    between atoms: N_10  and  CA_11
REMARK    3  A    between atoms: CA_11  and  C_12
REMARK    4  A    between atoms: CA_11  and  C_15
REMARK    5  A    between atoms: C_12  and  OXT_14
REMARK                            x       y       z     vdW  Elec       q    Type
REMARK                         _______ _______ _______ _____ _____    ______ ____
ROOT
ATOM      1  C   UNL     1      -0.083  10.428  20.500  0.00  0.00    +0.000 A 
ATOM      2  C   UNL     1      -0.405   9.882  21.757  0.00  0.00    +0.000 A 
ATOM      3  C   UNL     1       0.241   8.742  22.216  0.00  0.00    +0.000 A 
ATOM      4  C   UNL     1       1.135   8.091  21.377  0.00  0.00    +0.000 A 
ATOM      5  C   UNL     1       1.401   8.576  20.072  0.00  0.00    +0.000 A 
ATOM      6  C   UNL     1       2.118   7.856  19.097  0.00  0.00    +0.000 A 
ATOM      7  N   UNL     1       2.428   6.508  19.311  0.00  0.00    +0.000 N 
ATOM      8  N   UNL     1       2.418   8.376  17.890  0.00  0.00    +0.000 NA
ATOM      9  C   UNL     1       2.005   9.628  17.667  0.00  0.00    +0.000 A 
ATOM     10  N   UNL     1       1.210  10.337  18.463  0.00  0.00    +0.000 NA
ATOM     11  C   UNL     1       0.858   9.805  19.654  0.00  0.00    +0.000 A 
ATOM     12  H   UNL     1       3.139   6.423  20.033  0.00  0.00    +0.000 HD
ENDROOT
BRANCH   1  14
ATOM     13  N   UNL     1      -1.737  11.589  19.096  0.00  0.00    +0.000 N 
ATOM     14  C   UNL     1      -0.835  11.665  20.116  0.00  0.00    +0.000 C 
ATOM     15  O   UNL     1      -0.661  12.730  20.699  0.00  0.00    +0.000 OA
ATOM     16  H   UNL     1      -2.260  12.412  18.838  0.00  0.00    +0.000 HD
ATOM     17  H   UNL     1      -1.904  10.712  18.611  0.00  0.00    +0.000 HD
ENDBRANCH   1  14
BRANCH   7  18
ATOM     18  CA  UNL     1       2.708   5.622  18.152  0.00  0.00    +0.000 C 
BRANCH  18  19
ATOM     19  C   UNL     1       4.212   5.352  18.053  0.00  0.00    +0.000 A 
ATOM     20  C   UNL     1       4.755   4.931  16.826  0.00  0.00    +0.000 A 
ATOM     21  C   UNL     1       6.125   4.693  16.692  0.00  0.00    +0.000 A 
ATOM     22  C   UNL     1       6.971   4.859  17.785  0.00  0.00    +0.000 A 
ATOM     23  C   UNL     1       6.442   5.224  19.021  0.00  0.00    +0.000 A 
ATOM     24  C   UNL     1       5.071   5.454  19.160  0.00  0.00    +0.000 A 
ENDBRANCH  18  19
BRANCH  18  25
ATOM     25  C   UNL     1       1.909   4.282  18.201  0.00  0.00    +0.000 C 
ATOM     26  O   UNL     1       2.109   3.362  18.992  0.00  0.00    +0.000 OA
BRANCH  25  27
ATOM     27  OXT UNL     1       0.969   4.162  17.232  0.00  0.00    +0.000 OA
ATOM     28  HXT UNL     1       1.309   3.595  16.504  0.00  0.00    +0.000 HD
ENDBRANCH  25  27
ENDBRANCH  18  25
ENDBRANCH   7  18
TORSDOF 5
ENDMDL
MODEL 5
REMARK VINA RESULT:      -7.5      2.854      4.305
REMARK  Name = 
REMARK  5 active torsions:
REMARK  status: ('A' for Active; 'I' for Inactive)
REMARK    1  A    between atoms: C_2  and  C_4
REMARK    2  A    between atoms: N_10  and  CA_11
REMARK    3  A    between atoms: CA_11  and  C_12
REMARK    4  A    between atoms: CA_11  and  C_15
REMARK    5  A    between atoms: C_12  and  OXT_14
REMARK                            x       y       z     vdW  Elec       q    Type
REMARK                         _______ _______ _______ _____ _____    ______ ____
ROOT
ATOM      1  C   UNL     1       0.016  10.399  20.409  0.00  0.00    +0.000 A 
ATOM      2  C   UNL     1      -0.369   9.852  21.648  0.00  0.00    +0.000 A 
ATOM      3  C   UNL     1       0.225   8.689  22.120  0.00  0.00    +0.000 A 
ATOM      4  C   UNL     1       1.130   8.018  21.309  0.00  0.00    +0.000 A 
ATOM      5  C   UNL     1       1.459   8.505  20.020  0.00  0.00    +0.000 A 
ATOM      6  C   UNL     1       2.190   7.773  19.065  0.00  0.00    +0.000 A 
ATOM      7  N   UNL     1       2.451   6.414  19.277  0.00  0.00    +0.000 N 
ATOM      8  N   UNL     1       2.551   8.293  17.875  0.00  0.00    +0.000 NA
ATOM      9  C   UNL     1       2.185   9.560  17.649  0.00  0.00    +0.000 A 
ATOM     10  N   UNL     1       1.382  10.286  18.422  0.00  0.00    +0.000 NA
ATOM     11  C   UNL     1       0.969   9.754  19.593  0.00  0.00    +0.000 A 
ATOM     12  H   UNL     1       3.131   6.301  20.025  0.00  0.00    +0.000 HD
ENDROOT
BRANCH   1  14
ATOM     13  N   UNL     1       0.059  12.796  19.856  0.00  0.00    +0.000 N 
ATOM     14  C   UNL     1      -0.682  11.661  20.009  0.00  0.00    +0.000 C 
ATOM     15  O   UNL     1      -1.893  11.691  19.813  0.00  0.00    +0.000 OA
ATOM     16  H   UNL     1      -0.400  13.649  19.572  0.00  0.00    +0.000 HD
ATOM     17  H   UNL     1       1.064  12.786  20.002  0.00  0.00    +0.000 HD
ENDBRANCH   1  14
BRANCH   7  18
ATOM     18  CA  UNL     1       2.747   5.530  18.121  0.00  0.00    +0.000 C 
BRANCH  18  19
ATOM     19  C   UNL     1       4.257   5.289  18.022  0.00  0.00    +0.000 A 
ATOM     20  C   UNL     1       5.059   5.488  19.160  0.00  0.00    +0.000 A 
ATOM     21  C   UNL     1       6.437   5.262  19.114  0.00  0.00    +0.000 A 
ATOM     22  C   UNL     1       7.036   4.846  17.928  0.00  0.00    +0.000 A 
ATOM     23  C   UNL     1       6.264   4.696  16.778  0.00  0.00    +0.000 A 
ATOM     24  C   UNL     1       4.887   4.931  16.819  0.00  0.00    +0.000 A 
ENDBRANCH  18  19
BRANCH  18  25
ATOM     25  C   UNL     1       1.976   4.175  18.175  0.00  0.00    +0.000 C 
ATOM     26  O   UNL     1       2.256   3.223  18.903  0.00  0.00    +0.000 OA
BRANCH  25  27
ATOM     27  OXT UNL     1       0.958   4.081  17.285  0.00  0.00    +0.000 OA
ATOM     28  HXT UNL     1       0.176   4.578  17.617  0.00  0.00    +0.000 HD
ENDBRANCH  25  27
ENDBRANCH  18  25
ENDBRANCH   7  18
TORSDOF 5
ENDMDL
MODEL 6
REMARK VINA RESULT:      -7.5      2.955      4.518
REMARK  Name = 
REMARK  5 active torsions:
REMARK  status: ('A' for Active; 'I' for Inactive)
REMARK    1  A    between atoms: C_2  and  C_4
REMARK    2  A    between atoms: N_10  and  CA_11
REMARK    3  A    between atoms: CA_11  and  C_12
REMARK    4  A    between atoms: CA_11  and  C_15
REMARK    5  A    between atoms: C_12  and  OXT_14
REMARK                            x       y       z     vdW  Elec       q    Type
REMARK                         _______ _______ _______ _____ _____    ______ ____
ROOT
ATOM      1  C   UNL     1       0.124  10.666  20.469  0.00  0.00    +0.000 A 
ATOM      2  C   UNL     1      -0.078  10.472  21.849  0.00  0.00    +0.000 A 
ATOM      3  C   UNL     1       0.550   9.428  22.512  0.00  0.00    +0.000 A 
ATOM      4  C   UNL     1       1.300   8.518  21.780  0.00  0.00    +0.000 A 
ATOM      5  C   UNL     1       1.437   8.645  20.375  0.00  0.00    +0.000 A 
ATOM      6  C   UNL     1       1.991   7.651  19.546  0.00  0.00    +0.000 A 
ATOM      7  N   UNL     1       2.245   6.374  20.060  0.00  0.00    +0.000 N 
ATOM      8  N   UNL     1       2.176   7.833  18.223  0.00  0.00    +0.000 NA
ATOM      9  C   UNL     1       1.813   9.024  17.734  0.00  0.00    +0.000 A 
ATOM     10  N   UNL     1       1.160   9.971  18.402  0.00  0.00    +0.000 NA
ATOM     11  C   UNL     1       0.920   9.777  19.717  0.00  0.00    +0.000 A 
ATOM     12  H   UNL     1       3.030   6.408  20.706  0.00  0.00    +0.000 HD
ENDROOT
BRANCH   1  14
ATOM     13  N   UNL     1       0.121  12.725  19.123  0.00  0.00    +0.000 N 
ATOM     14  C   UNL     1      -0.595  11.831  19.863  0.00  0.00    +0.000 C 
ATOM     15  O   UNL     1      -1.802  11.991  20.013  0.00  0.00    +0.000 OA
ATOM     16  H   UNL     1      -0.356  13.506  18.697  0.00  0.00    +0.000 HD
ATOM     17  H   UNL     1       1.119  12.602  18.977  0.00  0.00    +0.000 HD
ENDBRANCH   1  14
BRANCH   7  18
ATOM     18  CA  UNL     1       2.334   5.212  19.140  0.00  0.00    +0.000 C 
BRANCH  18  19
ATOM     19  C   UNL     1       3.772   5.055  18.636  0.00  0.00    +0.000 A 
ATOM     20  C   UNL     1       3.994   4.593  17.326  0.00  0.00    +0.000 A 
ATOM     21  C   UNL     1       5.290   4.455  16.825  0.00  0.00    +0.000 A 
ATOM     22  C   UNL     1       6.385   4.763  17.628  0.00  0.00    +0.000 A 
ATOM     23  C   UNL     1       6.184   5.170  18.945  0.00  0.00    +0.000 A 
ATOM     24  C   UNL     1       4.889   5.301  19.452  0.00  0.00    +0.000 A 
ENDBRANCH  18  19
BRANCH  18  25
ATOM     25  C   UNL     1       1.827   3.884  19.782  0.00  0.00    +0.000 C 
ATOM     26  O   UNL     1       2.442   2.818  19.795  0.00  0.00    +0.000 OA
BRANCH  25  27
ATOM     27  OXT UNL     1       0.579   3.962  20.304  0.00  0.00    +0.000 OA
ATOM     28  HXT UNL     1       0.599   4.475  21.143  0.00  0.00    +0.000 HD
ENDBRANCH  25  27
ENDBRANCH  18  25
ENDBRANCH   7  18
TORSDOF 5
ENDMDL
MODEL 7
REMARK VINA RESULT:      -7.5      2.763      3.554
REMARK  Name = 
REMARK  5 active torsions:
REMARK  status: ('A' for Active; 'I' for Inactive)
REMARK    1  A    between atoms: C_2  and  C_4
REMARK    2  A    between atoms: N_10  and  CA_11
REMARK    3  A    between atoms: CA_11  and  C_12
REMARK    4  A    between atoms: CA_11  and  C_15
REMARK    5  A    between atoms: C_12  and  OXT_14
REMARK                            x       y       z     vdW  Elec       q    Type
REMARK                         _______ _______ _______ _____ _____    ______ ____
ROOT
ATOM      1  C   UNL     1       2.153   4.133  20.259  0.00  0.00    +0.000 A 
ATOM      2  C   UNL     1       1.896   5.517  20.253  0.00  0.00    +0.000 A 
ATOM      3  C   UNL     1       2.230   6.290  19.150  0.00  0.00    +0.000 A 
ATOM      4  C   UNL     1       2.911   5.700  18.095  0.00  0.00    +0.000 A 
ATOM      5  C   UNL     1       3.260   4.327  18.125  0.00  0.00    +0.000 A 
ATOM      6  C   UNL     1       4.132   3.717  17.204  0.00  0.00    +0.000 A 
ATOM      7  N   UNL     1       4.877   4.505  16.318  0.00  0.00    +0.000 N 
ATOM      8  N   UNL     1       4.385   2.393  17.215  0.00  0.00    +0.000 NA
ATOM      9  C   UNL     1       3.750   1.678  18.150  0.00  0.00    +0.000 A 
ATOM     10  N   UNL     1       3.020   2.174  19.144  0.00  0.00    +0.000 NA
ATOM     11  C   UNL     1       2.803   3.508  19.174  0.00  0.00    +0.000 A 
ATOM     12  H   UNL     1       4.266   4.913  15.615  0.00  0.00    +0.000 HD
ENDROOT
BRANCH   1  14
ATOM     13  N   UNL     1       0.652   2.577  21.434  0.00  0.00    +0.000 N 
ATOM     14  C   UNL     1       1.739   3.399  21.496  0.00  0.00    +0.000 C 
ATOM     15  O   UNL     1       2.356   3.516  22.550  0.00  0.00    +0.000 OA
ATOM     16  H   UNL     1       0.373   2.066  22.258  0.00  0.00    +0.000 HD
ATOM     17  H   UNL     1       0.137   2.458  20.567  0.00  0.00    +0.000 HD
ENDBRANCH   1  14
BRANCH   7  18
ATOM     18  CA  UNL     1       6.126   3.966  15.721  0.00  0.00    +0.000 C 
BRANCH  18  19
ATOM     19  C   UNL     1       5.980   3.878  14.199  0.00  0.00    +0.000 A 
ATOM     20  C   UNL     1       7.104   4.116  13.387  0.00  0.00    +0.000 A 
ATOM     21  C   UNL     1       7.014   4.027  11.996  0.00  0.00    +0.000 A 
ATOM     22  C   UNL     1       5.799   3.711  11.394  0.00  0.00    +0.000 A 
ATOM     23  C   UNL     1       4.665   3.526  12.181  0.00  0.00    +0.000 A 
ATOM     24  C   UNL     1       4.749   3.624  13.572  0.00  0.00    +0.000 A 
ENDBRANCH  18  19
BRANCH  18  25
ATOM     25  C   UNL     1       7.392   4.792  16.107  0.00  0.00    +0.000 C 
ATOM     26  O   UNL     1       7.694   5.892  15.646  0.00  0.00    +0.000 OA
BRANCH  25  27
ATOM     27  OXT UNL     1       8.215   4.168  16.985  0.00  0.00    +0.000 OA
ATOM     28  HXT UNL     1       9.151   4.395  16.786  0.00  0.00    +0.000 HD
ENDBRANCH  25  27
ENDBRANCH  18  25
ENDBRANCH   7  18
TORSDOF 5
ENDMDL
MODEL 8
REMARK VINA RESULT:      -7.5      3.007      4.462
REMARK  Name = 
REMARK  5 active torsions:
REMARK  status: ('A' for Active; 'I' for Inactive)
REMARK    1  A    between atoms: C_2  and  C_4
REMARK    2  A    between atoms: N_10  and  CA_11
REMARK    3  A    between atoms: CA_11  and  C_12
REMARK    4  A    between atoms: CA_11  and  C_15
REMARK    5  A    between atoms: C_12  and  OXT_14
REMARK                            x       y       z     vdW  Elec       q    Type
REMARK                         _______ _______ _______ _____ _____    ______ ____
ROOT
ATOM      1  C   UNL     1      -0.249  10.691  20.753  0.00  0.00    +0.000 A 
ATOM      2  C   UNL     1      -0.513  10.114  22.009  0.00  0.00    +0.000 A 
ATOM      3  C   UNL     1       0.180   8.985  22.425  0.00  0.00    +0.000 A 
ATOM      4  C   UNL     1       1.064   8.375  21.546  0.00  0.00    +0.000 A 
ATOM      5  C   UNL     1       1.273   8.890  20.242  0.00  0.00    +0.000 A 
ATOM      6  C   UNL     1       1.977   8.209  19.231  0.00  0.00    +0.000 A 
ATOM      7  N   UNL     1       2.332   6.867  19.409  0.00  0.00    +0.000 N 
ATOM      8  N   UNL     1       2.222   8.759  18.025  0.00  0.00    +0.000 NA
ATOM      9  C   UNL     1       1.767  10.003  17.839  0.00  0.00    +0.000 A 
ATOM     10  N   UNL     1       0.979  10.674  18.674  0.00  0.00    +0.000 NA
ATOM     11  C   UNL     1       0.681  10.110  19.865  0.00  0.00    +0.000 A 
ATOM     12  H   UNL     1       3.068   6.790  20.106  0.00  0.00    +0.000 HD
ENDROOT
BRANCH   1  14
ATOM     13  N   UNL     1      -1.907  11.858  19.359  0.00  0.00    +0.000 N 
ATOM     14  C   UNL     1      -1.047  11.912  20.417  0.00  0.00    +0.000 C 
ATOM     15  O   UNL     1      -0.947  12.945  21.070  0.00  0.00    +0.000 OA
ATOM     16  H   UNL     1      -2.461  12.670  19.133  0.00  0.00    +0.000 HD
ATOM     17  H   UNL     1      -2.012  11.007  18.816  0.00  0.00    +0.000 HD
ENDBRANCH   1  14
BRANCH   7  18
ATOM     18  CA  UNL     1       2.598   6.010  18.225  0.00  0.00    +0.000 C 
BRANCH  18  19
ATOM     19  C   UNL     1       4.108   5.841  18.033  0.00  0.00    +0.000 A 
ATOM     20  C   UNL     1       4.884   5.348  19.099  0.00  0.00    +0.000 A 
ATOM     21  C   UNL     1       6.261   5.163  18.956  0.00  0.00    +0.000 A 
ATOM     22  C   UNL     1       6.886   5.478  17.752  0.00  0.00    +0.000 A 
ATOM     23  C   UNL     1       6.141   6.017  16.706  0.00  0.00    +0.000 A 
ATOM     24  C   UNL     1       4.765   6.212  16.849  0.00  0.00    +0.000 A 
ENDBRANCH  18  19
BRANCH  18  25
ATOM     25  C   UNL     1       1.893   4.621  18.306  0.00  0.00    +0.000 C 
ATOM     26  O   UNL     1       1.611   3.907  17.344  0.00  0.00    +0.000 OA
BRANCH  25  27
ATOM     27  OXT UNL     1       1.539   4.251  19.561  0.00  0.00    +0.000 OA
ATOM     28  HXT UNL     1       2.251   3.703  19.962  0.00  0.00    +0.000 HD
ENDBRANCH  25  27
ENDBRANCH  18  25
ENDBRANCH   7  18
TORSDOF 5
ENDMDL
MODEL 9
REMARK VINA RESULT:      -7.4      0.840      1.433
REMARK  Name = 
REMARK  5 active torsions:
REMARK  status: ('A' for Active; 'I' for Inactive)
REMARK    1  A    between atoms: C_2  and  C_4
REMARK    2  A    between atoms: N_10  and  CA_11
REMARK    3  A    between atoms: CA_11  and  C_12
REMARK    4  A    between atoms: CA_11  and  C_15
REMARK    5  A    between atoms: C_12  and  OXT_14
REMARK                            x       y       z     vdW  Elec       q    Type
REMARK                         _______ _______ _______ _____ _____    ______ ____
ROOT
ATOM      1  C   UNL     1       1.472   8.507  20.134  0.00  0.00    +0.000 A 
ATOM      2  C   UNL     1       1.448   9.604  19.254  0.00  0.00    +0.000 A 
ATOM      3  C   UNL     1       1.922   9.476  17.956  0.00  0.00    +0.000 A 
ATOM      4  C   UNL     1       2.512   8.281  17.568  0.00  0.00    +0.000 A 
ATOM      5  C   UNL     1       2.627   7.195  18.472  0.00  0.00    +0.000 A 
ATOM      6  C   UNL     1       3.400   6.045  18.224  0.00  0.00    +0.000 A 
ATOM      7  N   UNL     1       4.278   6.014  17.134  0.00  0.00    +0.000 N 
ATOM      8  N   UNL     1       3.430   4.997  19.071  0.00  0.00    +0.000 NA
ATOM      9  C   UNL     1       2.671   5.102  20.168  0.00  0.00    +0.000 A 
ATOM     10  N   UNL     1       2.019   6.193  20.558  0.00  0.00    +0.000 NA
ATOM     11  C   UNL     1       2.026   7.269  19.742  0.00  0.00    +0.000 A 
ATOM     12  H   UNL     1       3.753   5.966  16.264  0.00  0.00    +0.000 HD
ENDROOT
BRANCH   1  14
ATOM     13  N   UNL     1      -0.346   8.345  21.785  0.00  0.00    +0.000 N 
ATOM     14  C   UNL     1       0.924   8.758  21.504  0.00  0.00    +0.000 C 
ATOM     15  O   UNL     1       1.589   9.317  22.371  0.00  0.00    +0.000 OA
ATOM     16  H   UNL     1      -0.720   8.496  22.710  0.00  0.00    +0.000 HD
ATOM     17  H   UNL     1      -0.906   7.869  21.084  0.00  0.00    +0.000 HD
ENDBRANCH   1  14
BRANCH   7  18
ATOM     18  CA  UNL     1       5.429   5.076  17.139  0.00  0.00    +0.000 C 
BRANCH  18  19
ATOM     19  C   UNL     1       5.838   4.745  15.701  0.00  0.00    +0.000 A 
ATOM     20  C   UNL     1       7.072   5.214  15.213  0.00  0.00    +0.000 A 
ATOM     21  C   UNL     1       7.488   4.918  13.913  0.00  0.00    +0.000 A 
ATOM     22  C   UNL     1       6.674   4.160  13.076  0.00  0.00    +0.000 A 
ATOM     23  C   UNL     1       5.426   3.733  13.525  0.00  0.00    +0.000 A 
ATOM     24  C   UNL     1       5.003   4.036  14.822  0.00  0.00    +0.000 A 
ENDBRANCH  18  19
BRANCH  18  25
ATOM     25  C   UNL     1       6.650   5.611  17.951  0.00  0.00    +0.000 C 
ATOM     26  O   UNL     1       7.387   4.929  18.661  0.00  0.00    +0.000 OA
BRANCH  25  27
ATOM     27  OXT UNL     1       6.825   6.952  17.868  0.00  0.00    +0.000 OA
ATOM     28  HXT UNL     1       6.104   7.414  18.352  0.00  0.00    +0.000 HD
ENDBRANCH  25  27
ENDBRANCH  18  25
ENDBRANCH   7  18
TORSDOF 5
ENDMDL
