MODEL 1
REMARK VINA RESULT:      -8.2      0.000      0.000
REMARK  Name = 
REMARK  5 active torsions:
REMARK  status: ('A' for Active; 'I' for Inactive)
REMARK    1  A    between atoms: C_1  and  C_2
REMARK    2  A    between atoms: C_6  and  C_7
REMARK    3  A    between atoms: N_19  and  C_20
REMARK    4  A    between atoms: C_20  and  C_21
REMARK    5  A    between atoms: C_20  and  C_22
REMARK                            x       y       z     vdW  Elec       q    Type
REMARK                         _______ _______ _______ _____ _____    ______ ____
ROOT
ATOM      1  C   UNL     1       1.894   8.639  18.397  0.00  0.00    +0.000 C 
ATOM      2  O   UNL     1       1.816   9.291  17.349  0.00  0.00    +0.000 OA
ATOM      3  N   UNL     1       1.270   9.093  19.563  0.00  0.00    +0.000 N 
ATOM      4  C   UNL     1       0.234  10.079  19.315  0.00  0.00    +0.000 C 
ATOM      5  C   UNL     1      -0.693  10.221  20.493  0.00  0.00    +0.000 C 
ATOM      6  C   UNL     1       0.065  10.778  21.713  0.00  0.00    +0.000 C 
ATOM      7  C   UNL     1       1.310   9.867  21.985  0.00  0.00    +0.000 C 
ATOM      8  C   UNL     1       1.540   8.717  20.959  0.00  0.00    +0.000 C 
ATOM      9  C   UNL     1       0.573  12.253  21.495  0.00  0.00    +0.000 C 
ATOM     10  C   UNL     1      -0.599  13.155  21.372  0.00  0.00    +0.000 A 
ATOM     11  C   UNL     1      -0.809  14.351  20.681  0.00  0.00    +0.000 A 
ATOM     12  N   UNL     1      -2.057  14.793  20.826  0.00  0.00    +0.000 NA
ATOM     13  N   UNL     1      -2.667  13.854  21.597  0.00  0.00    +0.000 N 
ATOM     14  C   UNL     1      -1.801  12.864  21.993  0.00  0.00    +0.000 A 
ATOM     15  C   UNL     1      -2.000  11.700  22.830  0.00  0.00    +0.000 C 
ATOM     16  O   UNL     1      -3.009  11.469  23.486  0.00  0.00    +0.000 OA
ATOM     17  N   UNL     1      -0.919  10.806  22.840  0.00  0.00    +0.000 N 
ATOM     18  H   UNL     1      -1.124   9.952  23.343  0.00  0.00    +0.000 HD
ENDROOT
BRANCH   1  24
ATOM     19  C   UNL     1       3.505   1.422  18.443  0.00  0.00    +0.000 C 
ATOM     20  C   UNL     1       3.388   2.894  18.333  0.00  0.00    +0.000 A 
ATOM     21  N   UNL     1       2.441   3.651  18.846  0.00  0.00    +0.000 NA
ATOM     22  C   UNL     1       2.759   4.941  18.496  0.00  0.00    +0.000 A 
ATOM     23  C   UNL     1       2.073   6.137  18.773  0.00  0.00    +0.000 A 
ATOM     24  C   UNL     1       2.613   7.339  18.302  0.00  0.00    +0.000 A 
ATOM     25  C   UNL     1       3.787   7.321  17.518  0.00  0.00    +0.000 A 
ATOM     26  C   UNL     1       4.477   6.140  17.224  0.00  0.00    +0.000 A 
ATOM     27  C   UNL     1       3.926   4.968  17.742  0.00  0.00    +0.000 A 
ATOM     28  N   UNL     1       4.308   3.652  17.651  0.00  0.00    +0.000 N 
ATOM     29  H   UNL     1       5.121   3.303  17.163  0.00  0.00    +0.000 HD
ENDBRANCH   1  24
BRANCH  13  30
ATOM     30  C   UNL     1      -4.095  13.995  21.882  0.00  0.00    +0.000 C 
ATOM     31  C   UNL     1      -4.529  15.453  21.740  0.00  0.00    +0.000 C 
ATOM     32  C   UNL     1      -4.977  13.106  20.989  0.00  0.00    +0.000 C 
ENDBRANCH  13  30
TORSDOF 2
ENDMDL
MODEL 2
REMARK VINA RESULT:      -7.8      2.217      3.386
REMARK  Name = 
REMARK  5 active torsions:
REMARK  status: ('A' for Active; 'I' for Inactive)
REMARK    1  A    between atoms: C_1  and  C_2
REMARK    2  A    between atoms: C_6  and  C_7
REMARK    3  A    between atoms: N_19  and  C_20
REMARK    4  A    between atoms: C_20  and  C_21
REMARK    5  A    between atoms: C_20  and  C_22
REMARK                            x       y       z     vdW  Elec       q    Type
REMARK                         _______ _______ _______ _____ _____    ______ ____
ROOT
ATOM      1  C   UNL     1       1.915   7.727  19.540  0.00  0.00    +0.000 C 
ATOM      2  O   UNL     1       1.926   7.449  20.745  0.00  0.00    +0.000 OA
ATOM      3  N   UNL     1       1.344   8.922  19.093  0.00  0.00    +0.000 N 
ATOM      4  C   UNL     1       1.199   9.918  20.140  0.00  0.00    +0.000 C 
ATOM      5  C   UNL     1       1.003  11.299  19.574  0.00  0.00    +0.000 C 
ATOM      6  C   UNL     1      -0.325  11.381  18.796  0.00  0.00    +0.000 C 
ATOM      7  C   UNL     1      -0.345  10.239  17.723  0.00  0.00    +0.000 C 
ATOM      8  C   UNL     1       0.877   9.274  17.744  0.00  0.00    +0.000 C 
ATOM      9  C   UNL     1      -1.586  11.207  19.724  0.00  0.00    +0.000 C 
ATOM     10  C   UNL     1      -1.660  12.356  20.660  0.00  0.00    +0.000 A 
ATOM     11  C   UNL     1      -2.158  12.492  21.958  0.00  0.00    +0.000 A 
ATOM     12  N   UNL     1      -1.966  13.721  22.434  0.00  0.00    +0.000 NA
ATOM     13  N   UNL     1      -1.310  14.377  21.440  0.00  0.00    +0.000 N 
ATOM     14  C   UNL     1      -1.148  13.596  20.322  0.00  0.00    +0.000 A 
ATOM     15  C   UNL     1      -0.546  13.882  19.037  0.00  0.00    +0.000 C 
ATOM     16  O   UNL     1      -0.185  14.990  18.660  0.00  0.00    +0.000 OA
ATOM     17  N   UNL     1      -0.383  12.758  18.213  0.00  0.00    +0.000 N 
ATOM     18  H   UNL     1       0.136  12.964  17.369  0.00  0.00    +0.000 HD
ENDROOT
BRANCH   1  24
ATOM     19  C   UNL     1       6.703   4.577  14.868  0.00  0.00    +0.000 C 
ATOM     20  C   UNL     1       5.659   4.995  15.830  0.00  0.00    +0.000 A 
ATOM     21  N   UNL     1       5.348   6.229  16.171  0.00  0.00    +0.000 NA
ATOM     22  C   UNL     1       4.320   6.121  17.077  0.00  0.00    +0.000 A 
ATOM     23  C   UNL     1       3.627   7.132  17.766  0.00  0.00    +0.000 A 
ATOM     24  C   UNL     1       2.602   6.758  18.643  0.00  0.00    +0.000 A 
ATOM     25  C   UNL     1       2.329   5.391  18.859  0.00  0.00    +0.000 A 
ATOM     26  C   UNL     1       3.015   4.371  18.189  0.00  0.00    +0.000 A 
ATOM     27  C   UNL     1       4.003   4.786  17.298  0.00  0.00    +0.000 A 
ATOM     28  N   UNL     1       4.870   4.088  16.494  0.00  0.00    +0.000 N 
ATOM     29  H   UNL     1       4.922   3.083  16.409  0.00  0.00    +0.000 HD
ENDBRANCH   1  24
BRANCH  13  30
ATOM     30  C   UNL     1      -0.869  15.752  21.674  0.00  0.00    +0.000 C 
ATOM     31  C   UNL     1      -1.755  16.431  22.717  0.00  0.00    +0.000 C 
ATOM     32  C   UNL     1       0.603  15.843  22.111  0.00  0.00    +0.000 C 
ENDBRANCH  13  30
TORSDOF 2
ENDMDL
MODEL 3
REMARK VINA RESULT:      -7.6      2.331      3.485
REMARK  Name = 
REMARK  5 active torsions:
REMARK  status: ('A' for Active; 'I' for Inactive)
REMARK    1  A    between atoms: C_1  and  C_2
REMARK    2  A    between atoms: C_6  and  C_7
REMARK    3  A    between atoms: N_19  and  C_20
REMARK    4  A    between atoms: C_20  and  C_21
REMARK    5  A    between atoms: C_20  and  C_22
REMARK                            x       y       z     vdW  Elec       q    Type
REMARK                         _______ _______ _______ _____ _____    ______ ____
ROOT
ATOM      1  C   UNL     1       1.297   8.539  20.696  0.00  0.00    +0.000 C 
ATOM      2  O   UNL     1       1.350   8.492  21.930  0.00  0.00    +0.000 OA
ATOM      3  N   UNL     1       0.815   9.682  20.051  0.00  0.00    +0.000 N 
ATOM      4  C   UNL     1       0.820  10.864  20.893  0.00  0.00    +0.000 C 
ATOM      5  C   UNL     1       0.721  12.128  20.080  0.00  0.00    +0.000 C 
ATOM      6  C   UNL     1      -0.636  12.197  19.352  0.00  0.00    +0.000 C 
ATOM      7  C   UNL     1      -0.821  10.883  18.518  0.00  0.00    +0.000 C 
ATOM      8  C   UNL     1       0.307   9.820  18.677  0.00  0.00    +0.000 C 
ATOM      9  C   UNL     1      -1.854  12.327  20.342  0.00  0.00    +0.000 C 
ATOM     10  C   UNL     1      -1.769  13.632  21.044  0.00  0.00    +0.000 A 
ATOM     11  C   UNL     1      -2.179  14.058  22.309  0.00  0.00    +0.000 A 
ATOM     12  N   UNL     1      -1.849  15.329  22.534  0.00  0.00    +0.000 NA
ATOM     13  N   UNL     1      -1.192  15.717  21.409  0.00  0.00    +0.000 N 
ATOM     14  C   UNL     1      -1.165  14.730  20.455  0.00  0.00    +0.000 A 
ATOM     15  C   UNL     1      -0.612  14.708  19.118  0.00  0.00    +0.000 C 
ATOM     16  O   UNL     1      -0.173  15.684  18.522  0.00  0.00    +0.000 OA
ATOM     17  N   UNL     1      -0.600  13.440  18.519  0.00  0.00    +0.000 N 
ATOM     18  H   UNL     1      -0.112  13.431  17.632  0.00  0.00    +0.000 HD
ENDROOT
BRANCH   1  24
ATOM     19  C   UNL     1       5.215   4.190  16.178  0.00  0.00    +0.000 C 
ATOM     20  C   UNL     1       4.364   4.865  17.184  0.00  0.00    +0.000 A 
ATOM     21  N   UNL     1       4.063   6.146  17.231  0.00  0.00    +0.000 NA
ATOM     22  C   UNL     1       3.243   6.300  18.324  0.00  0.00    +0.000 A 
ATOM     23  C   UNL     1       2.649   7.466  18.838  0.00  0.00    +0.000 A 
ATOM     24  C   UNL     1       1.841   7.356  19.976  0.00  0.00    +0.000 A 
ATOM     25  C   UNL     1       1.687   6.104  20.608  0.00  0.00    +0.000 A 
ATOM     26  C   UNL     1       2.278   4.935  20.115  0.00  0.00    +0.000 A 
ATOM     27  C   UNL     1       3.046   5.080  18.961  0.00  0.00    +0.000 A 
ATOM     28  N   UNL     1       3.771   4.182  18.217  0.00  0.00    +0.000 N 
ATOM     29  H   UNL     1       3.857   3.192  18.401  0.00  0.00    +0.000 HD
ENDBRANCH   1  24
BRANCH  13  30
ATOM     30  C   UNL     1      -0.614  17.060  21.359  0.00  0.00    +0.000 C 
ATOM     31  C   UNL     1      -1.337  17.993  22.329  0.00  0.00    +0.000 C 
ATOM     32  C   UNL     1       0.895  17.075  21.658  0.00  0.00    +0.000 C 
ENDBRANCH  13  30
TORSDOF 2
ENDMDL
MODEL 4
REMARK VINA RESULT:      -7.5      2.119      3.021
REMARK  Name = 
REMARK  5 active torsions:
REMARK  status: ('A' for Active; 'I' for Inactive)
REMARK    1  A    between atoms: C_1  and  C_2
REMARK    2  A    between atoms: C_6  and  C_7
REMARK    3  A    between atoms: N_19  and  C_20
REMARK    4  A    between atoms: C_20  and  C_21
REMARK    5  A    between atoms: C_20  and  C_22
REMARK                            x       y       z     vdW  Elec       q    Type
REMARK                         _______ _______ _______ _____ _____    ______ ____
ROOT
ATOM      1  C   UNL     1       1.483   8.161  20.483  0.00  0.00    +0.000 C 
ATOM      2  O   UNL     1       1.345   8.056  21.707  0.00  0.00    +0.000 OA
ATOM      3  N   UNL     1       1.052   9.312  19.817  0.00  0.00    +0.000 N 
ATOM      4  C   UNL     1       0.870  10.452  20.698  0.00  0.00    +0.000 C 
ATOM      5  C   UNL     1       0.837  11.748  19.932  0.00  0.00    +0.000 C 
ATOM      6  C   UNL     1      -0.391  11.796  19.003  0.00  0.00    +0.000 C 
ATOM      7  C   UNL     1      -0.381  10.518  18.097  0.00  0.00    +0.000 C 
ATOM      8  C   UNL     1       0.758   9.495  18.388  0.00  0.00    +0.000 C 
ATOM      9  C   UNL     1      -1.753  11.829  19.793  0.00  0.00    +0.000 C 
ATOM     10  C   UNL     1      -1.842  13.101  20.553  0.00  0.00    +0.000 A 
ATOM     11  C   UNL     1      -2.463  13.449  21.754  0.00  0.00    +0.000 A 
ATOM     12  N   UNL     1      -2.233  14.719  22.080  0.00  0.00    +0.000 NA
ATOM     13  N   UNL     1      -1.429  15.188  21.089  0.00  0.00    +0.000 N 
ATOM     14  C   UNL     1      -1.206  14.249  20.112  0.00  0.00    +0.000 A 
ATOM     15  C   UNL     1      -0.452  14.315  18.879  0.00  0.00    +0.000 C 
ATOM     16  O   UNL     1       0.027  15.336  18.400  0.00  0.00    +0.000 OA
ATOM     17  N   UNL     1      -0.286  13.078  18.238  0.00  0.00    +0.000 N 
ATOM     18  H   UNL     1       0.334  13.132  17.439  0.00  0.00    +0.000 HD
ENDROOT
BRANCH   1  24
ATOM     19  C   UNL     1       3.610   1.412  18.337  0.00  0.00    +0.000 C 
ATOM     20  C   UNL     1       3.312   2.840  18.590  0.00  0.00    +0.000 A 
ATOM     21  N   UNL     1       2.665   3.339  19.623  0.00  0.00    +0.000 NA
ATOM     22  C   UNL     1       2.644   4.700  19.431  0.00  0.00    +0.000 A 
ATOM     23  C   UNL     1       2.067   5.706  20.226  0.00  0.00    +0.000 A 
ATOM     24  C   UNL     1       2.188   7.037  19.809  0.00  0.00    +0.000 A 
ATOM     25  C   UNL     1       2.828   7.333  18.587  0.00  0.00    +0.000 A 
ATOM     26  C   UNL     1       3.399   6.344  17.778  0.00  0.00    +0.000 A 
ATOM     27  C   UNL     1       3.288   5.035  18.246  0.00  0.00    +0.000 A 
ATOM     28  N   UNL     1       3.704   3.833  17.728  0.00  0.00    +0.000 N 
ATOM     29  H   UNL     1       4.206   3.703  16.861  0.00  0.00    +0.000 HD
ENDBRANCH   1  24
BRANCH  13  30
ATOM     30  C   UNL     1      -0.915  16.555  21.186  0.00  0.00    +0.000 C 
ATOM     31  C   UNL     1      -1.849  17.532  20.474  0.00  0.00    +0.000 C 
ATOM     32  C   UNL     1      -0.700  17.013  22.639  0.00  0.00    +0.000 C 
ENDBRANCH  13  30
TORSDOF 2
ENDMDL
MODEL 5
REMARK VINA RESULT:      -7.5      1.839      2.475
REMARK  Name = 
REMARK  5 active torsions:
REMARK  status: ('A' for Active; 'I' for Inactive)
REMARK    1  A    between atoms: C_1  and  C_2
REMARK    2  A    between atoms: C_6  and  C_7
REMARK    3  A    between atoms: N_19  and  C_20
REMARK    4  A    between atoms: C_20  and  C_21
REMARK    5  A    between atoms: C_20  and  C_22
REMARK                            x       y       z     vdW  Elec       q    Type
REMARK                         _______ _______ _______ _____ _____    ______ ____
ROOT
ATOM      1  C   UNL     1       0.976  10.371  19.708  0.00  0.00    +0.000 C 
ATOM      2  O   UNL     1       1.308  11.269  18.926  0.00  0.00    +0.000 OA
ATOM      3  N   UNL     1       0.013  10.608  20.693  0.00  0.00    +0.000 N 
ATOM      4  C   UNL     1      -0.812  11.772  20.424  0.00  0.00    +0.000 C 
ATOM      5  C   UNL     1      -2.082  11.755  21.232  0.00  0.00    +0.000 C 
ATOM      6  C   UNL     1      -1.766  11.864  22.737  0.00  0.00    +0.000 C 
ATOM      7  C   UNL     1      -0.750  10.732  23.116  0.00  0.00    +0.000 C 
ATOM      8  C   UNL     1      -0.246   9.856  21.930  0.00  0.00    +0.000 C 
ATOM      9  C   UNL     1      -1.127  13.249  23.128  0.00  0.00    +0.000 C 
ATOM     10  C   UNL     1      -2.126  14.323  22.904  0.00  0.00    +0.000 A 
ATOM     11  C   UNL     1      -2.010  15.672  22.559  0.00  0.00    +0.000 A 
ATOM     12  N   UNL     1      -3.202  16.250  22.419  0.00  0.00    +0.000 NA
ATOM     13  N   UNL     1      -4.097  15.254  22.649  0.00  0.00    +0.000 N 
ATOM     14  C   UNL     1      -3.485  14.075  22.997  0.00  0.00    +0.000 A 
ATOM     15  C   UNL     1      -4.032  12.783  23.353  0.00  0.00    +0.000 C 
ATOM     16  O   UNL     1      -5.218  12.553  23.556  0.00  0.00    +0.000 OA
ATOM     17  N   UNL     1      -3.078  11.759  23.448  0.00  0.00    +0.000 N 
ATOM     18  H   UNL     1      -3.496  10.848  23.590  0.00  0.00    +0.000 HD
ENDROOT
BRANCH   1  24
ATOM     19  C   UNL     1       2.874   3.246  20.265  0.00  0.00    +0.000 C 
ATOM     20  C   UNL     1       2.600   4.666  19.949  0.00  0.00    +0.000 A 
ATOM     21  N   UNL     1       2.073   5.566  20.753  0.00  0.00    +0.000 NA
ATOM     22  C   UNL     1       2.024   6.734  20.030  0.00  0.00    +0.000 A 
ATOM     23  C   UNL     1       1.537   7.998  20.406  0.00  0.00    +0.000 A 
ATOM     24  C   UNL     1       1.605   9.042  19.476  0.00  0.00    +0.000 A 
ATOM     25  C   UNL     1       2.100   8.793  18.178  0.00  0.00    +0.000 A 
ATOM     26  C   UNL     1       2.580   7.539  17.783  0.00  0.00    +0.000 A 
ATOM     27  C   UNL     1       2.528   6.536  18.750  0.00  0.00    +0.000 A 
ATOM     28  N   UNL     1       2.887   5.211  18.722  0.00  0.00    +0.000 N 
ATOM     29  H   UNL     1       3.288   4.721  17.934  0.00  0.00    +0.000 HD
ENDBRANCH   1  24
BRANCH  13  30
ATOM     30  C   UNL     1      -5.524  15.538  22.492  0.00  0.00    +0.000 C 
ATOM     31  C   UNL     1      -6.124  16.019  23.812  0.00  0.00    +0.000 C 
ATOM     32  C   UNL     1      -5.813  16.570  21.388  0.00  0.00    +0.000 C 
ENDBRANCH  13  30
TORSDOF 2
ENDMDL
MODEL 6
REMARK VINA RESULT:      -7.4      1.303      1.771
REMARK  Name = 
REMARK  5 active torsions:
REMARK  status: ('A' for Active; 'I' for Inactive)
REMARK    1  A    between atoms: C_1  and  C_2
REMARK    2  A    between atoms: C_6  and  C_7
REMARK    3  A    between atoms: N_19  and  C_20
REMARK    4  A    between atoms: C_20  and  C_21
REMARK    5  A    between atoms: C_20  and  C_22
REMARK                            x       y       z     vdW  Elec       q    Type
REMARK                         _______ _______ _______ _____ _____    ______ ____
ROOT
ATOM      1  C   UNL     1       1.629   9.068  18.488  0.00  0.00    +0.000 C 
ATOM      2  O   UNL     1       1.427   9.658  17.421  0.00  0.00    +0.000 OA
ATOM      3  N   UNL     1       1.017   9.505  19.667  0.00  0.00    +0.000 N 
ATOM      4  C   UNL     1      -0.135  10.358  19.435  0.00  0.00    +0.000 C 
ATOM      5  C   UNL     1      -1.013  10.452  20.655  0.00  0.00    +0.000 C 
ATOM      6  C   UNL     1      -0.262  11.147  21.808  0.00  0.00    +0.000 C 
ATOM      7  C   UNL     1       1.089  10.391  22.049  0.00  0.00    +0.000 C 
ATOM      8  C   UNL     1       1.395   9.227  21.061  0.00  0.00    +0.000 C 
ATOM      9  C   UNL     1       0.065  12.656  21.502  0.00  0.00    +0.000 C 
ATOM     10  C   UNL     1      -1.206  13.417  21.405  0.00  0.00    +0.000 A 
ATOM     11  C   UNL     1      -1.582  14.549  20.678  0.00  0.00    +0.000 A 
ATOM     12  N   UNL     1      -2.863  14.857  20.872  0.00  0.00    +0.000 NA
ATOM     13  N   UNL     1      -3.325  13.893  21.713  0.00  0.00    +0.000 N 
ATOM     14  C   UNL     1      -2.335  13.025  22.103  0.00  0.00    +0.000 A 
ATOM     15  C   UNL     1      -2.360  11.887  22.996  0.00  0.00    +0.000 C 
ATOM     16  O   UNL     1      -3.303  11.577  23.715  0.00  0.00    +0.000 OA
ATOM     17  N   UNL     1      -1.187  11.118  22.985  0.00  0.00    +0.000 N 
ATOM     18  H   UNL     1      -1.269  10.272  23.533  0.00  0.00    +0.000 HD
ENDROOT
BRANCH   1  24
ATOM     19  C   UNL     1       7.119   4.369  16.921  0.00  0.00    +0.000 C 
ATOM     20  C   UNL     1       5.951   5.150  17.386  0.00  0.00    +0.000 A 
ATOM     21  N   UNL     1       5.502   6.278  16.875  0.00  0.00    +0.000 NA
ATOM     22  C   UNL     1       4.401   6.618  17.624  0.00  0.00    +0.000 A 
ATOM     23  C   UNL     1       3.556   7.737  17.515  0.00  0.00    +0.000 A 
ATOM     24  C   UNL     1       2.485   7.853  18.408  0.00  0.00    +0.000 A 
ATOM     25  C   UNL     1       2.310   6.887  19.423  0.00  0.00    +0.000 A 
ATOM     26  C   UNL     1       3.146   5.773  19.553  0.00  0.00    +0.000 A 
ATOM     27  C   UNL     1       4.180   5.675  18.622  0.00  0.00    +0.000 A 
ATOM     28  N   UNL     1       5.181   4.751  18.450  0.00  0.00    +0.000 N 
ATOM     29  H   UNL     1       5.328   3.924  19.013  0.00  0.00    +0.000 HD
ENDBRANCH   1  24
BRANCH  13  30
ATOM     30  C   UNL     1      -4.744  13.890  22.070  0.00  0.00    +0.000 C 
ATOM     31  C   UNL     1      -5.350  15.279  21.874  0.00  0.00    +0.000 C 
ATOM     32  C   UNL     1      -5.560  12.856  21.275  0.00  0.00    +0.000 C 
ENDBRANCH  13  30
TORSDOF 2
ENDMDL
MODEL 7
REMARK VINA RESULT:      -7.3      2.191      3.221
REMARK  Name = 
REMARK  5 active torsions:
REMARK  status: ('A' for Active; 'I' for Inactive)
REMARK    1  A    between atoms: C_1  and  C_2
REMARK    2  A    between atoms: C_6  and  C_7
REMARK    3  A    between atoms: N_19  and  C_20
REMARK    4  A    between atoms: C_20  and  C_21
REMARK    5  A    between atoms: C_20  and  C_22
REMARK                            x       y       z     vdW  Elec       q    Type
REMARK                         _______ _______ _______ _____ _____    ______ ____
ROOT
ATOM      1  C   UNL     1       1.844   7.187  20.042  0.00  0.00    +0.000 C 
ATOM      2  O   UNL     1       1.410   6.752  21.115  0.00  0.00    +0.000 OA
ATOM      3  N   UNL     1       1.560   8.496  19.641  0.00  0.00    +0.000 N 
ATOM      4  C   UNL     1       1.133   9.353  20.733  0.00  0.00    +0.000 C 
ATOM      5  C   UNL     1       1.255  10.811  20.378  0.00  0.00    +0.000 C 
ATOM      6  C   UNL     1       0.295  11.169  19.226  0.00  0.00    +0.000 C 
ATOM      7  C   UNL     1       0.566  10.194  18.030  0.00  0.00    +0.000 C 
ATOM      8  C   UNL     1       1.625   9.083  18.294  0.00  0.00    +0.000 C 
ATOM      9  C   UNL     1      -1.221  11.040  19.634  0.00  0.00    +0.000 C 
ATOM     10  C   UNL     1      -1.531  12.052  20.673  0.00  0.00    +0.000 A 
ATOM     11  C   UNL     1      -2.441  12.079  21.733  0.00  0.00    +0.000 A 
ATOM     12  N   UNL     1      -2.335  13.197  22.447  0.00  0.00    +0.000 NA
ATOM     13  N   UNL     1      -1.324  13.888  21.858  0.00  0.00    +0.000 N 
ATOM     14  C   UNL     1      -0.839  13.250  20.743  0.00  0.00    +0.000 A 
ATOM     15  C   UNL     1       0.196  13.623  19.803  0.00  0.00    +0.000 C 
ATOM     16  O   UNL     1       0.750  14.715  19.763  0.00  0.00    +0.000 OA
ATOM     17  N   UNL     1       0.551  12.607  18.902  0.00  0.00    +0.000 N 
ATOM     18  H   UNL     1       1.347  12.854  18.329  0.00  0.00    +0.000 HD
ENDROOT
BRANCH   1  24
ATOM     19  C   UNL     1       6.661   4.437  15.151  0.00  0.00    +0.000 C 
ATOM     20  C   UNL     1       5.720   4.786  16.240  0.00  0.00    +0.000 A 
ATOM     21  N   UNL     1       4.957   5.857  16.310  0.00  0.00    +0.000 NA
ATOM     22  C   UNL     1       4.254   5.742  17.486  0.00  0.00    +0.000 A 
ATOM     23  C   UNL     1       3.312   6.618  18.054  0.00  0.00    +0.000 A 
ATOM     24  C   UNL     1       2.727   6.266  19.275  0.00  0.00    +0.000 A 
ATOM     25  C   UNL     1       3.131   5.083  19.932  0.00  0.00    +0.000 A 
ATOM     26  C   UNL     1       4.073   4.205  19.386  0.00  0.00    +0.000 A 
ATOM     27  C   UNL     1       4.607   4.574  18.152  0.00  0.00    +0.000 A 
ATOM     28  N   UNL     1       5.543   3.983  17.339  0.00  0.00    +0.000 N 
ATOM     29  H   UNL     1       6.021   3.111  17.521  0.00  0.00    +0.000 HD
ENDBRANCH   1  24
BRANCH  13  30
ATOM     30  C   UNL     1      -0.888  15.150  22.457  0.00  0.00    +0.000 C 
ATOM     31  C   UNL     1      -1.600  16.331  21.799  0.00  0.00    +0.000 C 
ATOM     32  C   UNL     1      -1.109  15.199  23.979  0.00  0.00    +0.000 C 
ENDBRANCH  13  30
TORSDOF 2
ENDMDL
MODEL 8
REMARK VINA RESULT:      -7.3      2.278      3.566
REMARK  Name = 
REMARK  5 active torsions:
REMARK  status: ('A' for Active; 'I' for Inactive)
REMARK    1  A    between atoms: C_1  and  C_2
REMARK    2  A    between atoms: C_6  and  C_7
REMARK    3  A    between atoms: N_19  and  C_20
REMARK    4  A    between atoms: C_20  and  C_21
REMARK    5  A    between atoms: C_20  and  C_22
REMARK                            x       y       z     vdW  Elec       q    Type
REMARK                         _______ _______ _______ _____ _____    ______ ____
ROOT
ATOM      1  C   UNL     1       0.040  11.452  19.688  0.00  0.00    +0.000 C 
ATOM      2  O   UNL     1       0.127  12.380  18.876  0.00  0.00    +0.000 OA
ATOM      3  N   UNL     1      -0.864  11.524  20.752  0.00  0.00    +0.000 N 
ATOM      4  C   UNL     1      -1.914  12.506  20.549  0.00  0.00    +0.000 C 
ATOM      5  C   UNL     1      -3.085  12.268  21.466  0.00  0.00    +0.000 C 
ATOM      6  C   UNL     1      -2.669  12.467  22.937  0.00  0.00    +0.000 C 
ATOM      7  C   UNL     1      -1.429  11.556  23.231  0.00  0.00    +0.000 C 
ATOM      8  C   UNL     1      -0.869  10.765  22.011  0.00  0.00    +0.000 C 
ATOM      9  C   UNL     1      -2.275  13.957  23.262  0.00  0.00    +0.000 C 
ATOM     10  C   UNL     1      -3.475  14.817  23.120  0.00  0.00    +0.000 A 
ATOM     11  C   UNL     1      -3.647  16.156  22.759  0.00  0.00    +0.000 A 
ATOM     12  N   UNL     1      -4.934  16.496  22.720  0.00  0.00    +0.000 NA
ATOM     13  N   UNL     1      -5.601  15.353  23.033  0.00  0.00    +0.000 N 
ATOM     14  C   UNL     1      -4.749  14.319  23.333  0.00  0.00    +0.000 A 
ATOM     15  C   UNL     1      -5.009  12.956  23.743  0.00  0.00    +0.000 C 
ATOM     16  O   UNL     1      -6.108  12.510  24.050  0.00  0.00    +0.000 OA
ATOM     17  N   UNL     1      -3.873  12.132  23.760  0.00  0.00    +0.000 N 
ATOM     18  H   UNL     1      -4.097  11.162  23.943  0.00  0.00    +0.000 HD
ENDROOT
BRANCH   1  24
ATOM     19  C   UNL     1       3.092   4.722  19.946  0.00  0.00    +0.000 C 
ATOM     20  C   UNL     1       2.591   6.092  19.693  0.00  0.00    +0.000 A 
ATOM     21  N   UNL     1       1.903   6.846  20.524  0.00  0.00    +0.000 NA
ATOM     22  C   UNL     1       1.675   8.027  19.860  0.00  0.00    +0.000 A 
ATOM     23  C   UNL     1       0.975   9.171  20.284  0.00  0.00    +0.000 A 
ATOM     24  C   UNL     1       0.888  10.261  19.410  0.00  0.00    +0.000 A 
ATOM     25  C   UNL     1       1.447  10.170  18.117  0.00  0.00    +0.000 A 
ATOM     26  C   UNL     1       2.139   9.036  17.675  0.00  0.00    +0.000 A 
ATOM     27  C   UNL     1       2.234   7.987  18.588  0.00  0.00    +0.000 A 
ATOM     28  N   UNL     1       2.811   6.743  18.505  0.00  0.00    +0.000 N 
ATOM     29  H   UNL     1       3.306   6.371  17.706  0.00  0.00    +0.000 HD
ENDBRANCH   1  24
BRANCH  13  30
ATOM     30  C   UNL     1      -7.064  15.359  23.000  0.00  0.00    +0.000 C 
ATOM     31  C   UNL     1      -7.600  16.774  23.216  0.00  0.00    +0.000 C 
ATOM     32  C   UNL     1      -7.637  14.785  21.693  0.00  0.00    +0.000 C 
ENDBRANCH  13  30
TORSDOF 2
ENDMDL
MODEL 9
REMARK VINA RESULT:      -7.3      2.248      3.580
REMARK  Name = 
REMARK  5 active torsions:
REMARK  status: ('A' for Active; 'I' for Inactive)
REMARK    1  A    between atoms: C_1  and  C_2
REMARK    2  A    between atoms: C_6  and  C_7
REMARK    3  A    between atoms: N_19  and  C_20
REMARK    4  A    between atoms: C_20  and  C_21
REMARK    5  A    between atoms: C_20  and  C_22
REMARK                            x       y       z     vdW  Elec       q    Type
REMARK                         _______ _______ _______ _____ _____    ______ ____
ROOT
ATOM      1  C   UNL     1       0.168   9.364  20.790  0.00  0.00    +0.000 C 
ATOM      2  O   UNL     1      -0.248   8.725  21.764  0.00  0.00    +0.000 OA
ATOM      3  N   UNL     1      -0.293  10.661  20.544  0.00  0.00    +0.000 N 
ATOM      4  C   UNL     1      -0.901  11.286  21.705  0.00  0.00    +0.000 C 
ATOM      5  C   UNL     1      -0.987  12.781  21.552  0.00  0.00    +0.000 C 
ATOM      6  C   UNL     1      -1.931  13.153  20.393  0.00  0.00    +0.000 C 
ATOM      7  C   UNL     1      -1.454  12.404  19.102  0.00  0.00    +0.000 C 
ATOM      8  C   UNL     1      -0.251  11.432  19.293  0.00  0.00    +0.000 C 
ATOM      9  C   UNL     1      -3.428  12.749  20.672  0.00  0.00    +0.000 C 
ATOM     10  C   UNL     1      -3.942  13.551  21.810  0.00  0.00    +0.000 A 
ATOM     11  C   UNL     1      -4.897  13.297  22.796  0.00  0.00    +0.000 A 
ATOM     12  N   UNL     1      -5.000  14.308  23.656  0.00  0.00    +0.000 NA
ATOM     13  N   UNL     1      -4.078  15.214  23.235  0.00  0.00    +0.000 N 
ATOM     14  C   UNL     1      -3.446  14.815  22.083  0.00  0.00    +0.000 A 
ATOM     15  C   UNL     1      -2.435  15.462  21.275  0.00  0.00    +0.000 C 
ATOM     16  O   UNL     1      -2.054  16.617  21.417  0.00  0.00    +0.000 OA
ATOM     17  N   UNL     1      -1.883  14.644  20.277  0.00  0.00    +0.000 N 
ATOM     18  H   UNL     1      -1.106  15.082  19.799  0.00  0.00    +0.000 HD
ENDROOT
BRANCH   1  24
ATOM     19  C   UNL     1       4.948   4.412  18.088  0.00  0.00    +0.000 C 
ATOM     20  C   UNL     1       4.037   5.524  18.438  0.00  0.00    +0.000 A 
ATOM     21  N   UNL     1       3.394   5.690  19.576  0.00  0.00    +0.000 NA
ATOM     22  C   UNL     1       2.687   6.860  19.441  0.00  0.00    +0.000 A 
ATOM     23  C   UNL     1       1.822   7.492  20.354  0.00  0.00    +0.000 A 
ATOM     24  C   UNL     1       1.218   8.696  19.974  0.00  0.00    +0.000 A 
ATOM     25  C   UNL     1       1.440   9.215  18.680  0.00  0.00    +0.000 A 
ATOM     26  C   UNL     1       2.289   8.595  17.757  0.00  0.00    +0.000 A 
ATOM     27  C   UNL     1       2.899   7.417  18.186  0.00  0.00    +0.000 A 
ATOM     28  N   UNL     1       3.762   6.547  17.565  0.00  0.00    +0.000 N 
ATOM     29  H   UNL     1       4.126   6.641  16.627  0.00  0.00    +0.000 HD
ENDBRANCH   1  24
BRANCH  13  30
ATOM     30  C   UNL     1      -3.873  16.430  24.023  0.00  0.00    +0.000 C 
ATOM     31  C   UNL     1      -5.176  16.862  24.693  0.00  0.00    +0.000 C 
ATOM     32  C   UNL     1      -2.772  16.277  25.086  0.00  0.00    +0.000 C 
ENDBRANCH  13  30
TORSDOF 2
ENDMDL
