MODEL 1
REMARK VINA RESULT:      -7.9      0.000      0.000
REMARK  Name = 
REMARK  9 active torsions:
REMARK  status: ('A' for Active; 'I' for Inactive)
REMARK    1  A    between atoms: C_1  and  O_2
REMARK    2  A    between atoms: O_2  and  C_3
REMARK    3  A    between atoms: C_8  and  N_9
REMARK    4  A    between atoms: N_9  and  S_10
REMARK    5  A    between atoms: S_10  and  C_13
REMARK    6  A    between atoms: C_16  and  N_17
REMARK    7  A    between atoms: C_18  and  C_20
REMARK    8  A    between atoms: C_21  and  C_22
REMARK    9  A    between atoms: C_25  and  N_26
REMARK                            x       y       z     vdW  Elec       q    Type
REMARK                         _______ _______ _______ _____ _____    ______ ____
ROOT
ATOM      1  C   UNL     1       2.475   7.086  19.300  0.00  0.00    +0.000 A 
ATOM      2  C   UNL     1       1.904   7.056  20.567  0.00  0.00    +0.000 A 
ATOM      3  C   UNL     1       1.031   8.075  20.948  0.00  0.00    +0.000 A 
ATOM      4  C   UNL     1       0.727   9.143  20.092  0.00  0.00    +0.000 A 
ATOM      5  C   UNL     1       1.363   9.193  18.843  0.00  0.00    +0.000 A 
ATOM      6  C   UNL     1       2.247   8.177  18.452  0.00  0.00    +0.000 A 
ENDROOT
BRANCH   4   7
ATOM      7  N   UNL     1      -0.205  10.165  20.418  0.00  0.00    +0.000 N 
ATOM      8  C   UNL     1       0.098  11.313  21.127  0.00  0.00    +0.000 C 
ATOM      9  O   UNL     1       1.200  11.649  21.532  0.00  0.00    +0.000 OA
ATOM     10  H   UNL     1      -1.161  10.015  20.131  0.00  0.00    +0.000 HD
BRANCH   8  11
ATOM     11  C   UNL     1      -1.075  12.179  21.425  0.00  0.00    +0.000 C 
ATOM     12  C   UNL     1      -1.862  11.800  22.450  0.00  0.00    +0.000 C 
BRANCH  12  13
ATOM     13  C   UNL     1      -3.135  12.416  22.833  0.00  0.00    +0.000 A 
ATOM     14  C   UNL     1      -3.873  13.090  21.845  0.00  0.00    +0.000 A 
ATOM     15  C   UNL     1      -5.071  13.736  22.162  0.00  0.00    +0.000 A 
ATOM     16  C   UNL     1      -5.544  13.691  23.477  0.00  0.00    +0.000 A 
ATOM     17  C   UNL     1      -4.836  12.996  24.465  0.00  0.00    +0.000 A 
ATOM     18  C   UNL     1      -3.638  12.355  24.137  0.00  0.00    +0.000 A 
BRANCH  16  19
ATOM     19  N   UNL     1      -6.785  14.385  23.833  0.00  0.00    +0.000 N 
ATOM     20  O   UNL     1      -6.762  15.624  23.869  0.00  0.00    +0.000 OA
ATOM     21  O   UNL     1      -7.781  13.693  24.085  0.00  0.00    +0.000 OA
ENDBRANCH  16  19
ENDBRANCH  12  13
ENDBRANCH   8  11
ENDBRANCH   4   7
BRANCH   1  22
ATOM     22  S   UNL     1       3.535   5.758  18.755  0.00  0.00    +0.000 S 
ATOM     23  O   UNL     1       2.759   4.534  18.829  0.00  0.00    +0.000 OA
ATOM     24  O   UNL     1       4.784   5.890  19.468  0.00  0.00    +0.000 OA
BRANCH  22  25
ATOM     25  N   UNL     1       3.872   6.093  17.150  0.00  0.00    +0.000 N 
ATOM     26  H   UNL     1       3.055   6.034  16.550  0.00  0.00    +0.000 HD
BRANCH  25  32
ATOM     27  C   UNL     1       6.266   6.259  16.472  0.00  0.00    +0.000 A 
ATOM     28  N   UNL     1       7.335   5.729  15.822  0.00  0.00    +0.000 NA
ATOM     29  C   UNL     1       7.155   4.489  15.315  0.00  0.00    +0.000 A 
ATOM     30  C   UNL     1       5.960   3.801  15.449  0.00  0.00    +0.000 A 
ATOM     31  N   UNL     1       4.873   4.328  16.065  0.00  0.00    +0.000 NA
ATOM     32  C   UNL     1       5.052   5.566  16.580  0.00  0.00    +0.000 A 
BRANCH  27  34
ATOM     33  C   UNL     1       7.675   7.801  17.508  0.00  0.00    +0.000 C 
ATOM     34  O   UNL     1       6.373   7.529  16.997  0.00  0.00    +0.000 OA
ENDBRANCH  27  34
ENDBRANCH  25  32
ENDBRANCH  22  25
ENDBRANCH   1  22
TORSDOF 8
ENDMDL
MODEL 2
REMARK VINA RESULT:      -7.6      1.965      2.364
REMARK  Name = 
REMARK  9 active torsions:
REMARK  status: ('A' for Active; 'I' for Inactive)
REMARK    1  A    between atoms: C_1  and  O_2
REMARK    2  A    between atoms: O_2  and  C_3
REMARK    3  A    between atoms: C_8  and  N_9
REMARK    4  A    between atoms: N_9  and  S_10
REMARK    5  A    between atoms: S_10  and  C_13
REMARK    6  A    between atoms: C_16  and  N_17
REMARK    7  A    between atoms: C_18  and  C_20
REMARK    8  A    between atoms: C_21  and  C_22
REMARK    9  A    between atoms: C_25  and  N_26
REMARK                            x       y       z     vdW  Elec       q    Type
REMARK                         _______ _______ _______ _____ _____    ______ ____
ROOT
ATOM      1  C   UNL     1       3.040   5.367  18.876  0.00  0.00    +0.000 A 
ATOM      2  C   UNL     1       2.517   5.424  20.162  0.00  0.00    +0.000 A 
ATOM      3  C   UNL     1       1.977   6.623  20.628  0.00  0.00    +0.000 A 
ATOM      4  C   UNL     1       1.965   7.781  19.838  0.00  0.00    +0.000 A 
ATOM      5  C   UNL     1       2.558   7.723  18.569  0.00  0.00    +0.000 A 
ATOM      6  C   UNL     1       3.108   6.525  18.092  0.00  0.00    +0.000 A 
ENDROOT
BRANCH   4   7
ATOM      7  N   UNL     1       1.369   9.003  20.253  0.00  0.00    +0.000 N 
ATOM      8  C   UNL     1       0.247   9.102  21.053  0.00  0.00    +0.000 C 
ATOM      9  O   UNL     1      -0.368   8.178  21.563  0.00  0.00    +0.000 OA
ATOM     10  H   UNL     1       1.789   9.853  19.904  0.00  0.00    +0.000 HD
BRANCH   8  11
ATOM     11  C   UNL     1      -0.239  10.493  21.262  0.00  0.00    +0.000 C 
ATOM     12  C   UNL     1      -0.753  10.780  22.473  0.00  0.00    +0.000 C 
BRANCH  12  13
ATOM     13  C   UNL     1      -1.411  12.032  22.857  0.00  0.00    +0.000 A 
ATOM     14  C   UNL     1      -2.704  11.963  23.405  0.00  0.00    +0.000 A 
ATOM     15  C   UNL     1      -3.400  13.126  23.746  0.00  0.00    +0.000 A 
ATOM     16  C   UNL     1      -2.788  14.369  23.555  0.00  0.00    +0.000 A 
ATOM     17  C   UNL     1      -1.488  14.451  23.040  0.00  0.00    +0.000 A 
ATOM     18  C   UNL     1      -0.803  13.281  22.701  0.00  0.00    +0.000 A 
BRANCH  16  19
ATOM     19  N   UNL     1      -3.512  15.600  23.883  0.00  0.00    +0.000 N 
ATOM     20  O   UNL     1      -3.751  16.391  22.958  0.00  0.00    +0.000 OA
ATOM     21  O   UNL     1      -3.837  15.780  25.064  0.00  0.00    +0.000 OA
ENDBRANCH  16  19
ENDBRANCH  12  13
ENDBRANCH   8  11
ENDBRANCH   4   7
BRANCH   1  22
ATOM     22  S   UNL     1       3.668   3.829  18.224  0.00  0.00    +0.000 S 
ATOM     23  O   UNL     1       3.207   3.727  16.851  0.00  0.00    +0.000 OA
ATOM     24  O   UNL     1       3.360   2.799  19.189  0.00  0.00    +0.000 OA
BRANCH  22  25
ATOM     25  N   UNL     1       5.334   3.994  18.228  0.00  0.00    +0.000 N 
ATOM     26  H   UNL     1       5.684   4.480  19.048  0.00  0.00    +0.000 HD
BRANCH  25  32
ATOM     27  C   UNL     1       6.823   5.451  16.858  0.00  0.00    +0.000 A 
ATOM     28  N   UNL     1       7.338   5.782  15.645  0.00  0.00    +0.000 NA
ATOM     29  C   UNL     1       7.009   4.958  14.625  0.00  0.00    +0.000 A 
ATOM     30  C   UNL     1       6.201   3.847  14.803  0.00  0.00    +0.000 A 
ATOM     31  N   UNL     1       5.652   3.521  15.999  0.00  0.00    +0.000 NA
ATOM     32  C   UNL     1       5.985   4.340  17.023  0.00  0.00    +0.000 A 
BRANCH  27  34
ATOM     33  C   UNL     1       7.372   7.606  17.559  0.00  0.00    +0.000 C 
ATOM     34  O   UNL     1       7.102   6.259  17.939  0.00  0.00    +0.000 OA
ENDBRANCH  27  34
ENDBRANCH  25  32
ENDBRANCH  22  25
ENDBRANCH   1  22
TORSDOF 8
ENDMDL
MODEL 3
REMARK VINA RESULT:      -7.6      4.673      5.704
REMARK  Name = 
REMARK  9 active torsions:
REMARK  status: ('A' for Active; 'I' for Inactive)
REMARK    1  A    between atoms: C_1  and  O_2
REMARK    2  A    between atoms: O_2  and  C_3
REMARK    3  A    between atoms: C_8  and  N_9
REMARK    4  A    between atoms: N_9  and  S_10
REMARK    5  A    between atoms: S_10  and  C_13
REMARK    6  A    between atoms: C_16  and  N_17
REMARK    7  A    between atoms: C_18  and  C_20
REMARK    8  A    between atoms: C_21  and  C_22
REMARK    9  A    between atoms: C_25  and  N_26
REMARK                            x       y       z     vdW  Elec       q    Type
REMARK                         _______ _______ _______ _____ _____    ______ ____
ROOT
ATOM      1  C   UNL     1       2.900   4.787  18.957  0.00  0.00    +0.000 A 
ATOM      2  C   UNL     1       2.704   5.495  17.778  0.00  0.00    +0.000 A 
ATOM      3  C   UNL     1       2.372   6.849  17.841  0.00  0.00    +0.000 A 
ATOM      4  C   UNL     1       2.212   7.512  19.066  0.00  0.00    +0.000 A 
ATOM      5  C   UNL     1       2.348   6.766  20.245  0.00  0.00    +0.000 A 
ATOM      6  C   UNL     1       2.677   5.404  20.194  0.00  0.00    +0.000 A 
ENDROOT
BRANCH   4   7
ATOM      7  N   UNL     1       1.937   8.902  19.172  0.00  0.00    +0.000 N 
ATOM      8  C   UNL     1       0.894   9.448  19.896  0.00  0.00    +0.000 C 
ATOM      9  O   UNL     1       0.090   8.839  20.586  0.00  0.00    +0.000 OA
ATOM     10  H   UNL     1       2.538   9.524  18.651  0.00  0.00    +0.000 HD
BRANCH   8  11
ATOM     11  C   UNL     1       0.760  10.924  19.766  0.00  0.00    +0.000 C 
ATOM     12  C   UNL     1       1.617  11.538  18.928  0.00  0.00    +0.000 C 
BRANCH  12  13
ATOM     13  C   UNL     1       1.761  12.985  18.749  0.00  0.00    +0.000 A 
ATOM     14  C   UNL     1       2.968  13.473  18.218  0.00  0.00    +0.000 A 
ATOM     15  C   UNL     1       3.180  14.847  18.068  0.00  0.00    +0.000 A 
ATOM     16  C   UNL     1       2.167  15.738  18.435  0.00  0.00    +0.000 A 
ATOM     17  C   UNL     1       0.948  15.264  18.935  0.00  0.00    +0.000 A 
ATOM     18  C   UNL     1       0.747  13.889  19.082  0.00  0.00    +0.000 A 
BRANCH  16  19
ATOM     19  N   UNL     1       2.382  17.183  18.309  0.00  0.00    +0.000 N 
ATOM     20  O   UNL     1       2.726  17.805  19.325  0.00  0.00    +0.000 OA
ATOM     21  O   UNL     1       2.200  17.698  17.197  0.00  0.00    +0.000 OA
ENDBRANCH  16  19
ENDBRANCH  12  13
ENDBRANCH   8  11
ENDBRANCH   4   7
BRANCH   1  22
ATOM     22  S   UNL     1       3.401   3.074  18.909  0.00  0.00    +0.000 S 
ATOM     23  O   UNL     1       2.996   2.547  17.619  0.00  0.00    +0.000 OA
ATOM     24  O   UNL     1       2.948   2.463  20.137  0.00  0.00    +0.000 OA
BRANCH  22  25
ATOM     25  N   UNL     1       5.073   3.101  18.985  0.00  0.00    +0.000 N 
ATOM     26  H   UNL     1       5.439   2.732  19.858  0.00  0.00    +0.000 HD
BRANCH  25  32
ATOM     27  C   UNL     1       5.983   4.517  17.146  0.00  0.00    +0.000 A 
ATOM     28  N   UNL     1       6.735   5.578  16.753  0.00  0.00    +0.000 NA
ATOM     29  C   UNL     1       7.224   6.350  17.749  0.00  0.00    +0.000 A 
ATOM     30  C   UNL     1       6.973   6.081  19.084  0.00  0.00    +0.000 A 
ATOM     31  N   UNL     1       6.253   5.008  19.496  0.00  0.00    +0.000 NA
ATOM     32  C   UNL     1       5.757   4.238  18.501  0.00  0.00    +0.000 A 
BRANCH  27  34
ATOM     33  C   UNL     1       6.122   3.822  14.925  0.00  0.00    +0.000 C 
ATOM     34  O   UNL     1       5.469   3.676  16.183  0.00  0.00    +0.000 OA
ENDBRANCH  27  34
ENDBRANCH  25  32
ENDBRANCH  22  25
ENDBRANCH   1  22
TORSDOF 8
ENDMDL
MODEL 4
REMARK VINA RESULT:      -7.6      2.343      3.444
REMARK  Name = 
REMARK  9 active torsions:
REMARK  status: ('A' for Active; 'I' for Inactive)
REMARK    1  A    between atoms: C_1  and  O_2
REMARK    2  A    between atoms: O_2  and  C_3
REMARK    3  A    between atoms: C_8  and  N_9
REMARK    4  A    between atoms: N_9  and  S_10
REMARK    5  A    between atoms: S_10  and  C_13
REMARK    6  A    between atoms: C_16  and  N_17
REMARK    7  A    between atoms: C_18  and  C_20
REMARK    8  A    between atoms: C_21  and  C_22
REMARK    9  A    between atoms: C_25  and  N_26
REMARK                            x       y       z     vdW  Elec       q    Type
REMARK                         _______ _______ _______ _____ _____    ______ ____
ROOT
ATOM      1  C   UNL     1       3.485   4.729  18.737  0.00  0.00    +0.000 A 
ATOM      2  C   UNL     1       3.066   5.501  17.660  0.00  0.00    +0.000 A 
ATOM      3  C   UNL     1       2.416   6.712  17.898  0.00  0.00    +0.000 A 
ATOM      4  C   UNL     1       2.155   7.164  19.199  0.00  0.00    +0.000 A 
ATOM      5  C   UNL     1       2.524   6.341  20.273  0.00  0.00    +0.000 A 
ATOM      6  C   UNL     1       3.174   5.120  20.045  0.00  0.00    +0.000 A 
ENDROOT
BRANCH   4   7
ATOM      7  N   UNL     1       1.552   8.419  19.484  0.00  0.00    +0.000 N 
ATOM      8  C   UNL     1       1.550   9.506  18.630  0.00  0.00    +0.000 C 
ATOM      9  O   UNL     1       2.011   9.544  17.499  0.00  0.00    +0.000 OA
ATOM     10  H   UNL     1       1.124   8.520  20.393  0.00  0.00    +0.000 HD
BRANCH   8  11
ATOM     11  C   UNL     1       0.940  10.737  19.202  0.00  0.00    +0.000 C 
ATOM     12  C   UNL     1       0.132  10.573  20.267  0.00  0.00    +0.000 C 
BRANCH  12  13
ATOM     13  C   UNL     1      -0.679  11.615  20.903  0.00  0.00    +0.000 A 
ATOM     14  C   UNL     1      -0.656  11.713  22.305  0.00  0.00    +0.000 A 
ATOM     15  C   UNL     1      -1.445  12.656  22.970  0.00  0.00    +0.000 A 
ATOM     16  C   UNL     1      -2.249  13.522  22.222  0.00  0.00    +0.000 A 
ATOM     17  C   UNL     1      -2.258  13.456  20.823  0.00  0.00    +0.000 A 
ATOM     18  C   UNL     1      -1.466  12.508  20.170  0.00  0.00    +0.000 A 
BRANCH  16  19
ATOM     19  N   UNL     1      -3.103  14.499  22.903  0.00  0.00    +0.000 N 
ATOM     20  O   UNL     1      -4.311  14.502  22.626  0.00  0.00    +0.000 OA
ATOM     21  O   UNL     1      -2.566  15.270  23.710  0.00  0.00    +0.000 OA
ENDBRANCH  16  19
ENDBRANCH  12  13
ENDBRANCH   8  11
ENDBRANCH   4   7
BRANCH   1  22
ATOM     22  S   UNL     1       4.388   3.213  18.466  0.00  0.00    +0.000 S 
ATOM     23  O   UNL     1       3.492   2.300  17.780  0.00  0.00    +0.000 OA
ATOM     24  O   UNL     1       5.000   2.851  19.722  0.00  0.00    +0.000 OA
BRANCH  22  25
ATOM     25  N   UNL     1       5.640   3.624  17.433  0.00  0.00    +0.000 N 
ATOM     26  H   UNL     1       6.214   2.830  17.167  0.00  0.00    +0.000 HD
BRANCH  25  32
ATOM     27  C   UNL     1       6.576   5.831  16.746  0.00  0.00    +0.000 A 
ATOM     28  N   UNL     1       7.368   6.900  17.022  0.00  0.00    +0.000 NA
ATOM     29  C   UNL     1       7.912   6.921  18.259  0.00  0.00    +0.000 A 
ATOM     30  C   UNL     1       7.676   5.921  19.188  0.00  0.00    +0.000 A 
ATOM     31  N   UNL     1       6.915   4.831  18.918  0.00  0.00    +0.000 NA
ATOM     32  C   UNL     1       6.365   4.810  17.683  0.00  0.00    +0.000 A 
BRANCH  27  34
ATOM     33  C   UNL     1       6.823   5.018  14.575  0.00  0.00    +0.000 C 
ATOM     34  O   UNL     1       6.005   5.735  15.496  0.00  0.00    +0.000 OA
ENDBRANCH  27  34
ENDBRANCH  25  32
ENDBRANCH  22  25
ENDBRANCH   1  22
TORSDOF 8
ENDMDL
MODEL 5
REMARK VINA RESULT:      -7.6      2.236      3.163
REMARK  Name = 
REMARK  9 active torsions:
REMARK  status: ('A' for Active; 'I' for Inactive)
REMARK    1  A    between atoms: C_1  and  O_2
REMARK    2  A    between atoms: O_2  and  C_3
REMARK    3  A    between atoms: C_8  and  N_9
REMARK    4  A    between atoms: N_9  and  S_10
REMARK    5  A    between atoms: S_10  and  C_13
REMARK    6  A    between atoms: C_16  and  N_17
REMARK    7  A    between atoms: C_18  and  C_20
REMARK    8  A    between atoms: C_21  and  C_22
REMARK    9  A    between atoms: C_25  and  N_26
REMARK                            x       y       z     vdW  Elec       q    Type
REMARK                         _______ _______ _______ _____ _____    ______ ____
ROOT
ATOM      1  C   UNL     1       3.003   5.034  18.915  0.00  0.00    +0.000 A 
ATOM      2  C   UNL     1       2.895   6.091  18.019  0.00  0.00    +0.000 A 
ATOM      3  C   UNL     1       2.399   7.316  18.464  0.00  0.00    +0.000 A 
ATOM      4  C   UNL     1       1.987   7.506  19.791  0.00  0.00    +0.000 A 
ATOM      5  C   UNL     1       2.041   6.410  20.664  0.00  0.00    +0.000 A 
ATOM      6  C   UNL     1       2.533   5.172  20.226  0.00  0.00    +0.000 A 
ENDROOT
BRANCH   4   7
ATOM      7  N   UNL     1       1.536   8.755  20.298  0.00  0.00    +0.000 N 
ATOM      8  C   UNL     1       0.403   8.931  21.070  0.00  0.00    +0.000 C 
ATOM      9  O   UNL     1      -0.346   8.055  21.474  0.00  0.00    +0.000 OA
ATOM     10  H   UNL     1       2.076   9.569  20.043  0.00  0.00    +0.000 HD
BRANCH   8  11
ATOM     11  C   UNL     1       0.092  10.350  21.392  0.00  0.00    +0.000 C 
ATOM     12  C   UNL     1      -0.737  10.567  22.430  0.00  0.00    +0.000 C 
BRANCH  12  13
ATOM     13  C   UNL     1      -1.288  11.863  22.838  0.00  0.00    +0.000 A 
ATOM     14  C   UNL     1      -2.582  11.893  23.386  0.00  0.00    +0.000 A 
ATOM     15  C   UNL     1      -3.177  13.105  23.749  0.00  0.00    +0.000 A 
ATOM     16  C   UNL     1      -2.462  14.295  23.581  0.00  0.00    +0.000 A 
ATOM     17  C   UNL     1      -1.160  14.276  23.066  0.00  0.00    +0.000 A 
ATOM     18  C   UNL     1      -0.576  13.059  22.705  0.00  0.00    +0.000 A 
BRANCH  16  19
ATOM     19  N   UNL     1      -3.080  15.576  23.932  0.00  0.00    +0.000 N 
ATOM     20  O   UNL     1      -4.174  15.548  24.515  0.00  0.00    +0.000 OA
ATOM     21  O   UNL     1      -2.476  16.612  23.620  0.00  0.00    +0.000 OA
ENDBRANCH  16  19
ENDBRANCH  12  13
ENDBRANCH   8  11
ENDBRANCH   4   7
BRANCH   1  22
ATOM     22  S   UNL     1       3.705   3.478  18.395  0.00  0.00    +0.000 S 
ATOM     23  O   UNL     1       3.473   3.360  16.967  0.00  0.00    +0.000 OA
ATOM     24  O   UNL     1       3.230   2.468  19.311  0.00  0.00    +0.000 OA
BRANCH  22  25
ATOM     25  N   UNL     1       5.351   3.623  18.667  0.00  0.00    +0.000 N 
ATOM     26  H   UNL     1       5.611   3.460  19.636  0.00  0.00    +0.000 HD
BRANCH  25  32
ATOM     27  C   UNL     1       6.467   4.686  16.707  0.00  0.00    +0.000 A 
ATOM     28  N   UNL     1       7.225   5.693  16.200  0.00  0.00    +0.000 NA
ATOM     29  C   UNL     1       7.525   6.690  17.061  0.00  0.00    +0.000 A 
ATOM     30  C   UNL     1       7.087   6.689  18.376  0.00  0.00    +0.000 A 
ATOM     31  N   UNL     1       6.358   5.677  18.907  0.00  0.00    +0.000 NA
ATOM     32  C   UNL     1       6.051   4.680  18.046  0.00  0.00    +0.000 A 
BRANCH  27  34
ATOM     33  C   UNL     1       6.063   3.998  14.517  0.00  0.00    +0.000 C 
ATOM     34  O   UNL     1       6.141   3.626  15.890  0.00  0.00    +0.000 OA
ENDBRANCH  27  34
ENDBRANCH  25  32
ENDBRANCH  22  25
ENDBRANCH   1  22
TORSDOF 8
ENDMDL
MODEL 6
REMARK VINA RESULT:      -7.5      4.375      5.248
REMARK  Name = 
REMARK  9 active torsions:
REMARK  status: ('A' for Active; 'I' for Inactive)
REMARK    1  A    between atoms: C_1  and  O_2
REMARK    2  A    between atoms: O_2  and  C_3
REMARK    3  A    between atoms: C_8  and  N_9
REMARK    4  A    between atoms: N_9  and  S_10
REMARK    5  A    between atoms: S_10  and  C_13
REMARK    6  A    between atoms: C_16  and  N_17
REMARK    7  A    between atoms: C_18  and  C_20
REMARK    8  A    between atoms: C_21  and  C_22
REMARK    9  A    between atoms: C_25  and  N_26
REMARK                            x       y       z     vdW  Elec       q    Type
REMARK                         _______ _______ _______ _____ _____    ______ ____
ROOT
ATOM      1  C   UNL     1       2.600   4.878  18.821  0.00  0.00    +0.000 A 
ATOM      2  C   UNL     1       2.365   5.311  20.121  0.00  0.00    +0.000 A 
ATOM      3  C   UNL     1       2.112   6.662  20.357  0.00  0.00    +0.000 A 
ATOM      4  C   UNL     1       2.107   7.603  19.317  0.00  0.00    +0.000 A 
ATOM      5  C   UNL     1       2.413   7.160  18.022  0.00  0.00    +0.000 A 
ATOM      6  C   UNL     1       2.673   5.805  17.774  0.00  0.00    +0.000 A 
ENDROOT
BRANCH   4   7
ATOM      7  N   UNL     1       1.792   8.976  19.506  0.00  0.00    +0.000 N 
ATOM      8  C   UNL     1       0.762   9.447  20.298  0.00  0.00    +0.000 C 
ATOM      9  O   UNL     1       0.007   8.777  20.986  0.00  0.00    +0.000 OA
ATOM     10  H   UNL     1       2.352   9.643  18.996  0.00  0.00    +0.000 HD
BRANCH   8  11
ATOM     11  C   UNL     1       0.576  10.923  20.251  0.00  0.00    +0.000 C 
ATOM     12  C   UNL     1       1.029  11.556  19.153  0.00  0.00    +0.000 C 
BRANCH  12  13
ATOM     13  C   UNL     1       1.079  13.006  18.951  0.00  0.00    +0.000 A 
ATOM     14  C   UNL     1       2.318  13.593  18.639  0.00  0.00    +0.000 A 
ATOM     15  C   UNL     1       2.435  14.977  18.482  0.00  0.00    +0.000 A 
ATOM     16  C   UNL     1       1.297  15.779  18.620  0.00  0.00    +0.000 A 
ATOM     17  C   UNL     1       0.051  15.204  18.899  0.00  0.00    +0.000 A 
ATOM     18  C   UNL     1      -0.054  13.820  19.055  0.00  0.00    +0.000 A 
BRANCH  16  19
ATOM     19  N   UNL     1       1.406  17.234  18.484  0.00  0.00    +0.000 N 
ATOM     20  O   UNL     1       2.407  17.686  17.908  0.00  0.00    +0.000 OA
ATOM     21  O   UNL     1       0.497  17.927  18.960  0.00  0.00    +0.000 OA
ENDBRANCH  16  19
ENDBRANCH  12  13
ENDBRANCH   8  11
ENDBRANCH   4   7
BRANCH   1  22
ATOM     22  S   UNL     1       2.851   3.145  18.478  0.00  0.00    +0.000 S 
ATOM     23  O   UNL     1       2.439   2.918  17.105  0.00  0.00    +0.000 OA
ATOM     24  O   UNL     1       2.255   2.405  19.565  0.00  0.00    +0.000 OA
BRANCH  22  25
ATOM     25  N   UNL     1       4.504   2.906  18.596  0.00  0.00    +0.000 N 
ATOM     26  H   UNL     1       4.770   2.352  19.405  0.00  0.00    +0.000 HD
BRANCH  25  32
ATOM     27  C   UNL     1       5.808   4.357  17.043  0.00  0.00    +0.000 A 
ATOM     28  N   UNL     1       6.718   5.348  16.859  0.00  0.00    +0.000 NA
ATOM     29  C   UNL     1       7.146   5.964  17.983  0.00  0.00    +0.000 A 
ATOM     30  C   UNL     1       6.686   5.612  19.242  0.00  0.00    +0.000 A 
ATOM     31  N   UNL     1       5.803   4.603  19.446  0.00  0.00    +0.000 NA
ATOM     32  C   UNL     1       5.368   3.989  18.322  0.00  0.00    +0.000 A 
BRANCH  27  34
ATOM     33  C   UNL     1       6.082   3.970  14.760  0.00  0.00    +0.000 C 
ATOM     34  O   UNL     1       5.344   3.672  15.941  0.00  0.00    +0.000 OA
ENDBRANCH  27  34
ENDBRANCH  25  32
ENDBRANCH  22  25
ENDBRANCH   1  22
TORSDOF 8
ENDMDL
MODEL 7
REMARK VINA RESULT:      -7.5      2.814      3.517
REMARK  Name = 
REMARK  9 active torsions:
REMARK  status: ('A' for Active; 'I' for Inactive)
REMARK    1  A    between atoms: C_1  and  O_2
REMARK    2  A    between atoms: O_2  and  C_3
REMARK    3  A    between atoms: C_8  and  N_9
REMARK    4  A    between atoms: N_9  and  S_10
REMARK    5  A    between atoms: S_10  and  C_13
REMARK    6  A    between atoms: C_16  and  N_17
REMARK    7  A    between atoms: C_18  and  C_20
REMARK    8  A    between atoms: C_21  and  C_22
REMARK    9  A    between atoms: C_25  and  N_26
REMARK                            x       y       z     vdW  Elec       q    Type
REMARK                         _______ _______ _______ _____ _____    ______ ____
ROOT
ATOM      1  C   UNL     1       2.532   4.718  18.846  0.00  0.00    +0.000 A 
ATOM      2  C   UNL     1       2.167   4.564  20.178  0.00  0.00    +0.000 A 
ATOM      3  C   UNL     1       1.895   5.695  20.948  0.00  0.00    +0.000 A 
ATOM      4  C   UNL     1       1.999   6.989  20.418  0.00  0.00    +0.000 A 
ATOM      5  C   UNL     1       2.433   7.129  19.092  0.00  0.00    +0.000 A 
ATOM      6  C   UNL     1       2.713   5.999  18.310  0.00  0.00    +0.000 A 
ENDROOT
BRANCH   4   7
ATOM      7  N   UNL     1       1.670   8.162  21.150  0.00  0.00    +0.000 N 
ATOM      8  C   UNL     1       0.398   8.498  21.574  0.00  0.00    +0.000 C 
ATOM      9  O   UNL     1      -0.616   7.831  21.434  0.00  0.00    +0.000 OA
ATOM     10  H   UNL     1       2.426   8.803  21.342  0.00  0.00    +0.000 HD
BRANCH   8  11
ATOM     11  C   UNL     1       0.300   9.828  22.235  0.00  0.00    +0.000 C 
ATOM     12  C   UNL     1      -0.775  10.578  21.928  0.00  0.00    +0.000 C 
BRANCH  12  13
ATOM     13  C   UNL     1      -1.008  11.963  22.347  0.00  0.00    +0.000 A 
ATOM     14  C   UNL     1      -0.121  12.954  21.892  0.00  0.00    +0.000 A 
ATOM     15  C   UNL     1      -0.266  14.285  22.296  0.00  0.00    +0.000 A 
ATOM     16  C   UNL     1      -1.320  14.629  23.149  0.00  0.00    +0.000 A 
ATOM     17  C   UNL     1      -2.230  13.657  23.585  0.00  0.00    +0.000 A 
ATOM     18  C   UNL     1      -2.074  12.330  23.175  0.00  0.00    +0.000 A 
BRANCH  16  19
ATOM     19  N   UNL     1      -1.472  16.013  23.604  0.00  0.00    +0.000 N 
ATOM     20  O   UNL     1      -0.710  16.413  24.497  0.00  0.00    +0.000 OA
ATOM     21  O   UNL     1      -2.356  16.700  23.075  0.00  0.00    +0.000 OA
ENDBRANCH  16  19
ENDBRANCH  12  13
ENDBRANCH   8  11
ENDBRANCH   4   7
BRANCH   1  22
ATOM     22  S   UNL     1       2.811   3.289  17.815  0.00  0.00    +0.000 S 
ATOM     23  O   UNL     1       2.625   3.712  16.439  0.00  0.00    +0.000 OA
ATOM     24  O   UNL     1       2.035   2.205  18.370  0.00  0.00    +0.000 OA
BRANCH  22  25
ATOM     25  N   UNL     1       4.419   2.884  18.047  0.00  0.00    +0.000 N 
ATOM     26  H   UNL     1       4.559   2.226  18.808  0.00  0.00    +0.000 HD
BRANCH  25  32
ATOM     27  C   UNL     1       6.076   4.272  16.804  0.00  0.00    +0.000 A 
ATOM     28  N   UNL     1       7.074   5.194  16.823  0.00  0.00    +0.000 NA
ATOM     29  C   UNL     1       7.341   5.743  18.028  0.00  0.00    +0.000 A 
ATOM     30  C   UNL     1       6.643   5.392  19.172  0.00  0.00    +0.000 A 
ATOM     31  N   UNL     1       5.667   4.450  19.178  0.00  0.00    +0.000 NA
ATOM     32  C   UNL     1       5.393   3.904  17.972  0.00  0.00    +0.000 A 
BRANCH  27  34
ATOM     33  C   UNL     1       5.841   4.547  14.501  0.00  0.00    +0.000 C 
ATOM     34  O   UNL     1       5.764   3.657  15.612  0.00  0.00    +0.000 OA
ENDBRANCH  27  34
ENDBRANCH  25  32
ENDBRANCH  22  25
ENDBRANCH   1  22
TORSDOF 8
ENDMDL
MODEL 8
REMARK VINA RESULT:      -7.5      3.505     12.837
REMARK  Name = 
REMARK  9 active torsions:
REMARK  status: ('A' for Active; 'I' for Inactive)
REMARK    1  A    between atoms: C_1  and  O_2
REMARK    2  A    between atoms: O_2  and  C_3
REMARK    3  A    between atoms: C_8  and  N_9
REMARK    4  A    between atoms: N_9  and  S_10
REMARK    5  A    between atoms: S_10  and  C_13
REMARK    6  A    between atoms: C_16  and  N_17
REMARK    7  A    between atoms: C_18  and  C_20
REMARK    8  A    between atoms: C_21  and  C_22
REMARK    9  A    between atoms: C_25  and  N_26
REMARK                            x       y       z     vdW  Elec       q    Type
REMARK                         _______ _______ _______ _____ _____    ______ ____
ROOT
ATOM      1  C   UNL     1      -3.833  11.485  18.656  0.00  0.00    +0.000 A 
ATOM      2  C   UNL     1      -3.861  10.372  17.824  0.00  0.00    +0.000 A 
ATOM      3  C   UNL     1      -2.659   9.776  17.439  0.00  0.00    +0.000 A 
ATOM      4  C   UNL     1      -1.420  10.282  17.854  0.00  0.00    +0.000 A 
ATOM      5  C   UNL     1      -1.408  11.445  18.638  0.00  0.00    +0.000 A 
ATOM      6  C   UNL     1      -2.609  12.055  19.027  0.00  0.00    +0.000 A 
ENDROOT
BRANCH   4   7
ATOM      7  N   UNL     1      -0.178   9.668  17.536  0.00  0.00    +0.000 N 
ATOM      8  C   UNL     1       0.807   9.356  18.454  0.00  0.00    +0.000 C 
ATOM      9  O   UNL     1       0.748   9.508  19.664  0.00  0.00    +0.000 OA
ATOM     10  H   UNL     1      -0.004   9.479  16.559  0.00  0.00    +0.000 HD
BRANCH   8  11
ATOM     11  C   UNL     1       2.055   8.809  17.855  0.00  0.00    +0.000 C 
ATOM     12  C   UNL     1       2.334   7.517  18.112  0.00  0.00    +0.000 C 
BRANCH  12  13
ATOM     13  C   UNL     1       3.565   6.811  17.746  0.00  0.00    +0.000 A 
ATOM     14  C   UNL     1       4.654   7.569  17.282  0.00  0.00    +0.000 A 
ATOM     15  C   UNL     1       5.837   6.946  16.874  0.00  0.00    +0.000 A 
ATOM     16  C   UNL     1       5.938   5.554  16.951  0.00  0.00    +0.000 A 
ATOM     17  C   UNL     1       4.872   4.789  17.441  0.00  0.00    +0.000 A 
ATOM     18  C   UNL     1       3.693   5.422  17.844  0.00  0.00    +0.000 A 
BRANCH  16  19
ATOM     19  N   UNL     1       7.161   4.882  16.503  0.00  0.00    +0.000 N 
ATOM     20  O   UNL     1       7.373   4.824  15.283  0.00  0.00    +0.000 OA
ATOM     21  O   UNL     1       7.907   4.406  17.370  0.00  0.00    +0.000 OA
ENDBRANCH  16  19
ENDBRANCH  12  13
ENDBRANCH   8  11
ENDBRANCH   4   7
BRANCH   1  22
ATOM     22  S   UNL     1      -5.354  12.222  19.228  0.00  0.00    +0.000 S 
ATOM     23  O   UNL     1      -6.259  11.136  19.556  0.00  0.00    +0.000 OA
ATOM     24  O   UNL     1      -5.725  13.235  18.267  0.00  0.00    +0.000 OA
BRANCH  22  25
ATOM     25  N   UNL     1      -4.948  13.035  20.635  0.00  0.00    +0.000 N 
ATOM     26  H   UNL     1      -4.072  12.718  21.040  0.00  0.00    +0.000 HD
BRANCH  25  32
ATOM     27  C   UNL     1      -6.788  14.440  21.562  0.00  0.00    +0.000 A 
ATOM     28  N   UNL     1      -7.678  14.689  22.558  0.00  0.00    +0.000 NA
ATOM     29  C   UNL     1      -7.728  13.765  23.542  0.00  0.00    +0.000 A 
ATOM     30  C   UNL     1      -6.928  12.634  23.537  0.00  0.00    +0.000 A 
ATOM     31  N   UNL     1      -6.011  12.386  22.568  0.00  0.00    +0.000 NA
ATOM     32  C   UNL     1      -5.963  13.307  21.579  0.00  0.00    +0.000 A 
BRANCH  27  34
ATOM     33  C   UNL     1      -7.916  15.637  19.910  0.00  0.00    +0.000 C 
ATOM     34  O   UNL     1      -6.669  15.353  20.536  0.00  0.00    +0.000 OA
ENDBRANCH  27  34
ENDBRANCH  25  32
ENDBRANCH  22  25
ENDBRANCH   1  22
TORSDOF 8
ENDMDL
MODEL 9
REMARK VINA RESULT:      -7.5      3.611      4.905
REMARK  Name = 
REMARK  9 active torsions:
REMARK  status: ('A' for Active; 'I' for Inactive)
REMARK    1  A    between atoms: C_1  and  O_2
REMARK    2  A    between atoms: O_2  and  C_3
REMARK    3  A    between atoms: C_8  and  N_9
REMARK    4  A    between atoms: N_9  and  S_10
REMARK    5  A    between atoms: S_10  and  C_13
REMARK    6  A    between atoms: C_16  and  N_17
REMARK    7  A    between atoms: C_18  and  C_20
REMARK    8  A    between atoms: C_21  and  C_22
REMARK    9  A    between atoms: C_25  and  N_26
REMARK                            x       y       z     vdW  Elec       q    Type
REMARK                         _______ _______ _______ _____ _____    ______ ____
ROOT
ATOM      1  C   UNL     1       4.441   5.793  18.358  0.00  0.00    +0.000 A 
ATOM      2  C   UNL     1       3.764   5.930  19.564  0.00  0.00    +0.000 A 
ATOM      3  C   UNL     1       2.733   6.863  19.668  0.00  0.00    +0.000 A 
ATOM      4  C   UNL     1       2.371   7.684  18.589  0.00  0.00    +0.000 A 
ATOM      5  C   UNL     1       3.108   7.579  17.401  0.00  0.00    +0.000 A 
ATOM      6  C   UNL     1       4.150   6.647  17.288  0.00  0.00    +0.000 A 
ENDROOT
BRANCH   4   7
ATOM      7  N   UNL     1       1.286   8.601  18.635  0.00  0.00    +0.000 N 
ATOM      8  C   UNL     1       1.352   9.922  18.233  0.00  0.00    +0.000 C 
ATOM      9  O   UNL     1       2.316  10.485  17.737  0.00  0.00    +0.000 OA
ATOM     10  H   UNL     1       0.419   8.257  19.020  0.00  0.00    +0.000 HD
BRANCH   8  11
ATOM     11  C   UNL     1       0.108  10.701  18.475  0.00  0.00    +0.000 C 
ATOM     12  C   UNL     1      -1.049  10.131  18.085  0.00  0.00    +0.000 C 
BRANCH  12  13
ATOM     13  C   UNL     1      -2.370  10.765  18.096  0.00  0.00    +0.000 A 
ATOM     14  C   UNL     1      -2.651  11.701  19.107  0.00  0.00    +0.000 A 
ATOM     15  C   UNL     1      -3.909  12.302  19.197  0.00  0.00    +0.000 A 
ATOM     16  C   UNL     1      -4.889  11.979  18.253  0.00  0.00    +0.000 A 
ATOM     17  C   UNL     1      -4.613  11.072  17.222  0.00  0.00    +0.000 A 
ATOM     18  C   UNL     1      -3.352  10.476  17.143  0.00  0.00    +0.000 A 
BRANCH  16  19
ATOM     19  N   UNL     1      -6.223  12.580  18.347  0.00  0.00    +0.000 N 
ATOM     20  O   UNL     1      -7.131  12.074  17.671  0.00  0.00    +0.000 OA
ATOM     21  O   UNL     1      -6.361  13.562  19.089  0.00  0.00    +0.000 OA
ENDBRANCH  16  19
ENDBRANCH  12  13
ENDBRANCH   8  11
ENDBRANCH   4   7
BRANCH   1  22
ATOM     22  S   UNL     1       5.712   4.555  18.171  0.00  0.00    +0.000 S 
ATOM     23  O   UNL     1       6.473   4.534  19.407  0.00  0.00    +0.000 OA
ATOM     24  O   UNL     1       6.360   4.797  16.903  0.00  0.00    +0.000 OA
BRANCH  22  25
ATOM     25  N   UNL     1       4.895   3.102  18.011  0.00  0.00    +0.000 N 
ATOM     26  H   UNL     1       4.677   2.871  17.046  0.00  0.00    +0.000 HD
BRANCH  25  32
ATOM     27  C   UNL     1       2.495   2.855  18.642  0.00  0.00    +0.000 A 
ATOM     28  N   UNL     1       1.556   2.646  19.602  0.00  0.00    +0.000 NA
ATOM     29  C   UNL     1       2.032   2.357  20.833  0.00  0.00    +0.000 A 
ATOM     30  C   UNL     1       3.389   2.275  21.102  0.00  0.00    +0.000 A 
ATOM     31  N   UNL     1       4.339   2.514  20.164  0.00  0.00    +0.000 NA
ATOM     32  C   UNL     1       3.866   2.798  18.930  0.00  0.00    +0.000 A 
BRANCH  27  34
ATOM     33  C   UNL     1       1.216   4.308  17.342  0.00  0.00    +0.000 C 
ATOM     34  O   UNL     1       2.080   3.175  17.368  0.00  0.00    +0.000 OA
ENDBRANCH  27  34
ENDBRANCH  25  32
ENDBRANCH  22  25
ENDBRANCH   1  22
TORSDOF 8
ENDMDL
