MODEL 1
REMARK VINA RESULT:      -7.5      0.000      0.000
REMARK  Name = 
REMARK  16 active torsions:
REMARK  status: ('A' for Active; 'I' for Inactive)
REMARK    1  A    between atoms: C_1  and  O_2
REMARK    2  A    between atoms: O_2  and  C_3
REMARK    3  A    between atoms: C_6  and  C_7
REMARK    4  A    between atoms: C_8  and  C_9
REMARK    5  A    between atoms: C_11  and  O_12
REMARK    6  A    between atoms: O_12  and  C_13
REMARK    7  A    between atoms: C_14  and  O_15
REMARK    8  A    between atoms: O_15  and  C_16
REMARK    9  A    between atoms: C_17  and  O_18
REMARK   10  A    between atoms: O_18  and  C_19
REMARK   11  A    between atoms: C_22  and  N_23
REMARK   12  A    between atoms: C_24  and  O_26
REMARK   13  A    between atoms: O_26  and  C_27
REMARK   14  A    between atoms: C_27  and  C_28
REMARK   15  A    between atoms: C_27  and  C_29
REMARK   16  A    between atoms: C_27  and  C_30
REMARK                            x       y       z     vdW  Elec       q    Type
REMARK                         _______ _______ _______ _____ _____    ______ ____
ROOT
ATOM      1  C   UNL     1       5.918   4.729  17.032  0.00  0.00    +0.000 A 
ATOM      2  C   UNL     1       6.762   5.378  16.111  0.00  0.00    +0.000 A 
ATOM      3  C   UNL     1       7.446   6.535  16.454  0.00  0.00    +0.000 A 
ATOM      4  C   UNL     1       7.329   7.042  17.738  0.00  0.00    +0.000 A 
ATOM      5  C   UNL     1       6.535   6.387  18.679  0.00  0.00    +0.000 A 
ATOM      6  C   UNL     1       5.809   5.223  18.356  0.00  0.00    +0.000 A 
ENDROOT
BRANCH   6   7
ATOM      7  N   UNL     1       5.001   4.555  19.329  0.00  0.00    +0.000 N 
ATOM      8  C   UNL     1       3.736   4.955  19.721  0.00  0.00    +0.000 C 
ATOM      9  O   UNL     1       3.102   5.869  19.192  0.00  0.00    +0.000 OA
ATOM     10  H   UNL     1       5.341   3.676  19.691  0.00  0.00    +0.000 HD
BRANCH   8  11
ATOM     11  O   UNL     1       3.224   4.207  20.754  0.00  0.00    +0.000 OA
BRANCH  11  12
ATOM     12  C   UNL     1       2.058   3.354  20.475  0.00  0.00    +0.000 C 
ATOM     13  C   UNL     1       2.339   2.386  19.314  0.00  0.00    +0.000 C 
ATOM     14  C   UNL     1       1.784   2.496  21.728  0.00  0.00    +0.000 C 
ATOM     15  C   UNL     1       0.785   4.183  20.220  0.00  0.00    +0.000 C 
ENDBRANCH  11  12
ENDBRANCH   8  11
ENDBRANCH   6   7
BRANCH   1  17
ATOM     16  C   UNL     1       3.832   3.941  16.257  0.00  0.00    +0.000 C 
ATOM     17  O   UNL     1       5.170   3.627  16.672  0.00  0.00    +0.000 OA
ENDBRANCH   1  17
BRANCH   4  18
ATOM     18  C   UNL     1       8.050   8.240  18.036  0.00  0.00    +0.000 C 
ATOM     19  C   UNL     1       8.663   9.228  18.345  0.00  0.00    +0.000 C 
BRANCH  19  20
ATOM     20  C   UNL     1       9.395  10.369  18.756  0.00  0.00    +0.000 A 
ATOM     21  C   UNL     1      10.268  11.004  17.892  0.00  0.00    +0.000 A 
ATOM     22  C   UNL     1      10.989  12.113  18.320  0.00  0.00    +0.000 A 
ATOM     23  C   UNL     1      10.862  12.574  19.657  0.00  0.00    +0.000 A 
ATOM     24  C   UNL     1       9.970  11.915  20.534  0.00  0.00    +0.000 A 
ATOM     25  C   UNL     1       9.236  10.817  20.055  0.00  0.00    +0.000 A 
BRANCH  22  26
ATOM     26  O   UNL     1      11.883  12.772  17.500  0.00  0.00    +0.000 OA
ATOM     27  C   UNL     1      11.312  13.655  16.530  0.00  0.00    +0.000 C 
ENDBRANCH  22  26
BRANCH  23  28
ATOM     28  O   UNL     1      11.702  13.611  20.004  0.00  0.00    +0.000 OA
ATOM     29  C   UNL     1      11.144  14.917  20.123  0.00  0.00    +0.000 C 
ENDBRANCH  23  28
BRANCH  24  30
ATOM     30  O   UNL     1       9.871  12.336  21.836  0.00  0.00    +0.000 OA
ATOM     31  C   UNL     1       8.591  12.743  22.309  0.00  0.00    +0.000 C 
ENDBRANCH  24  30
ENDBRANCH  19  20
ENDBRANCH   4  18
TORSDOF 9
ENDMDL
MODEL 2
REMARK VINA RESULT:      -7.3      1.058      1.351
REMARK  Name = 
REMARK  16 active torsions:
REMARK  status: ('A' for Active; 'I' for Inactive)
REMARK    1  A    between atoms: C_1  and  O_2
REMARK    2  A    between atoms: O_2  and  C_3
REMARK    3  A    between atoms: C_6  and  C_7
REMARK    4  A    between atoms: C_8  and  C_9
REMARK    5  A    between atoms: C_11  and  O_12
REMARK    6  A    between atoms: O_12  and  C_13
REMARK    7  A    between atoms: C_14  and  O_15
REMARK    8  A    between atoms: O_15  and  C_16
REMARK    9  A    between atoms: C_17  and  O_18
REMARK   10  A    between atoms: O_18  and  C_19
REMARK   11  A    between atoms: C_22  and  N_23
REMARK   12  A    between atoms: C_24  and  O_26
REMARK   13  A    between atoms: O_26  and  C_27
REMARK   14  A    between atoms: C_27  and  C_28
REMARK   15  A    between atoms: C_27  and  C_29
REMARK   16  A    between atoms: C_27  and  C_30
REMARK                            x       y       z     vdW  Elec       q    Type
REMARK                         _______ _______ _______ _____ _____    ______ ____
ROOT
ATOM      1  C   UNL     1       5.967   4.989  16.542  0.00  0.00    +0.000 A 
ATOM      2  C   UNL     1       7.151   5.436  15.925  0.00  0.00    +0.000 A 
ATOM      3  C   UNL     1       7.799   6.583  16.358  0.00  0.00    +0.000 A 
ATOM      4  C   UNL     1       7.297   7.282  17.444  0.00  0.00    +0.000 A 
ATOM      5  C   UNL     1       6.153   6.829  18.100  0.00  0.00    +0.000 A 
ATOM      6  C   UNL     1       5.458   5.681  17.670  0.00  0.00    +0.000 A 
ENDROOT
BRANCH   6   7
ATOM      7  N   UNL     1       4.287   5.220  18.352  0.00  0.00    +0.000 N 
ATOM      8  C   UNL     1       4.230   4.101  19.163  0.00  0.00    +0.000 C 
ATOM      9  O   UNL     1       5.210   3.433  19.494  0.00  0.00    +0.000 OA
ATOM     10  H   UNL     1       3.465   5.803  18.309  0.00  0.00    +0.000 HD
BRANCH   8  11
ATOM     11  O   UNL     1       2.960   3.813  19.604  0.00  0.00    +0.000 OA
BRANCH  11  12
ATOM     12  C   UNL     1       2.000   3.265  18.633  0.00  0.00    +0.000 C 
ATOM     13  C   UNL     1       1.541   4.341  17.635  0.00  0.00    +0.000 C 
ATOM     14  C   UNL     1       2.718   2.166  17.821  0.00  0.00    +0.000 C 
ATOM     15  C   UNL     1       0.801   2.591  19.326  0.00  0.00    +0.000 C 
ENDBRANCH  11  12
ENDBRANCH   8  11
ENDBRANCH   6   7
BRANCH   1  17
ATOM     16  C   UNL     1       5.288   3.780  14.633  0.00  0.00    +0.000 C 
ATOM     17  O   UNL     1       5.272   3.898  16.064  0.00  0.00    +0.000 OA
ENDBRANCH   1  17
BRANCH   4  18
ATOM     18  C   UNL     1       8.001   8.460  17.845  0.00  0.00    +0.000 C 
ATOM     19  C   UNL     1       8.588   9.433  18.240  0.00  0.00    +0.000 C 
BRANCH  19  20
ATOM     20  C   UNL     1       9.281  10.557  18.756  0.00  0.00    +0.000 A 
ATOM     21  C   UNL     1      10.159  11.275  17.965  0.00  0.00    +0.000 A 
ATOM     22  C   UNL     1      10.841  12.366  18.494  0.00  0.00    +0.000 A 
ATOM     23  C   UNL     1      10.669  12.720  19.858  0.00  0.00    +0.000 A 
ATOM     24  C   UNL     1       9.773  11.976  20.659  0.00  0.00    +0.000 A 
ATOM     25  C   UNL     1       9.079  10.901  20.080  0.00  0.00    +0.000 A 
BRANCH  22  26
ATOM     26  O   UNL     1      11.737  13.105  17.749  0.00  0.00    +0.000 OA
ATOM     27  C   UNL     1      11.171  14.104  16.895  0.00  0.00    +0.000 C 
ENDBRANCH  22  26
BRANCH  23  28
ATOM     28  O   UNL     1      11.474  13.748  20.304  0.00  0.00    +0.000 OA
ATOM     29  C   UNL     1      10.871  15.014  20.555  0.00  0.00    +0.000 C 
ENDBRANCH  23  28
BRANCH  24  30
ATOM     30  O   UNL     1       9.632  12.295  21.986  0.00  0.00    +0.000 OA
ATOM     31  C   UNL     1       8.323  12.587  22.464  0.00  0.00    +0.000 C 
ENDBRANCH  24  30
ENDBRANCH  19  20
ENDBRANCH   4  18
TORSDOF 9
ENDMDL
MODEL 3
REMARK VINA RESULT:      -7.3      1.177      2.629
REMARK  Name = 
REMARK  16 active torsions:
REMARK  status: ('A' for Active; 'I' for Inactive)
REMARK    1  A    between atoms: C_1  and  O_2
REMARK    2  A    between atoms: O_2  and  C_3
REMARK    3  A    between atoms: C_6  and  C_7
REMARK    4  A    between atoms: C_8  and  C_9
REMARK    5  A    between atoms: C_11  and  O_12
REMARK    6  A    between atoms: O_12  and  C_13
REMARK    7  A    between atoms: C_14  and  O_15
REMARK    8  A    between atoms: O_15  and  C_16
REMARK    9  A    between atoms: C_17  and  O_18
REMARK   10  A    between atoms: O_18  and  C_19
REMARK   11  A    between atoms: C_22  and  N_23
REMARK   12  A    between atoms: C_24  and  O_26
REMARK   13  A    between atoms: O_26  and  C_27
REMARK   14  A    between atoms: C_27  and  C_28
REMARK   15  A    between atoms: C_27  and  C_29
REMARK   16  A    between atoms: C_27  and  C_30
REMARK                            x       y       z     vdW  Elec       q    Type
REMARK                         _______ _______ _______ _____ _____    ______ ____
ROOT
ATOM      1  C   UNL     1       6.091   4.641  16.084  0.00  0.00    +0.000 A 
ATOM      2  C   UNL     1       7.286   5.210  15.603  0.00  0.00    +0.000 A 
ATOM      3  C   UNL     1       7.805   6.370  16.158  0.00  0.00    +0.000 A 
ATOM      4  C   UNL     1       7.159   6.961  17.232  0.00  0.00    +0.000 A 
ATOM      5  C   UNL     1       6.001   6.387  17.754  0.00  0.00    +0.000 A 
ATOM      6  C   UNL     1       5.435   5.222  17.199  0.00  0.00    +0.000 A 
ENDROOT
BRANCH   6   7
ATOM      7  N   UNL     1       4.249   4.637  17.744  0.00  0.00    +0.000 N 
ATOM      8  C   UNL     1       4.222   3.687  18.748  0.00  0.00    +0.000 C 
ATOM      9  O   UNL     1       5.212   3.316  19.380  0.00  0.00    +0.000 OA
ATOM     10  H   UNL     1       3.363   5.009  17.435  0.00  0.00    +0.000 HD
BRANCH   8  11
ATOM     11  O   UNL     1       2.961   3.204  19.009  0.00  0.00    +0.000 OA
BRANCH  11  12
ATOM     12  C   UNL     1       2.238   3.753  20.167  0.00  0.00    +0.000 C 
ATOM     13  C   UNL     1       0.717   3.647  19.976  0.00  0.00    +0.000 C 
ATOM     14  C   UNL     1       2.604   2.904  21.402  0.00  0.00    +0.000 C 
ATOM     15  C   UNL     1       2.667   5.198  20.481  0.00  0.00    +0.000 C 
ENDBRANCH  11  12
ENDBRANCH   8  11
ENDBRANCH   6   7
BRANCH   1  17
ATOM     16  C   UNL     1       5.589   3.557  14.049  0.00  0.00    +0.000 C 
ATOM     17  O   UNL     1       5.525   3.536  15.483  0.00  0.00    +0.000 OA
ENDBRANCH   1  17
BRANCH   4  18
ATOM     18  C   UNL     1       7.733   8.159  17.761  0.00  0.00    +0.000 C 
ATOM     19  C   UNL     1       8.272   9.138  18.206  0.00  0.00    +0.000 C 
BRANCH  19  20
ATOM     20  C   UNL     1       8.954  10.268  18.723  0.00  0.00    +0.000 A 
ATOM     21  C   UNL     1       9.009  10.504  20.085  0.00  0.00    +0.000 A 
ATOM     22  C   UNL     1       9.670  11.627  20.571  0.00  0.00    +0.000 A 
ATOM     23  C   UNL     1      10.256  12.555  19.670  0.00  0.00    +0.000 A 
ATOM     24  C   UNL     1      10.189  12.307  18.280  0.00  0.00    +0.000 A 
ATOM     25  C   UNL     1       9.540  11.146  17.829  0.00  0.00    +0.000 A 
BRANCH  22  26
ATOM     26  O   UNL     1       9.741  11.913  21.919  0.00  0.00    +0.000 OA
ATOM     27  C   UNL     1       8.490  12.022  22.605  0.00  0.00    +0.000 C 
ENDBRANCH  22  26
BRANCH  23  28
ATOM     28  O   UNL     1      10.789  13.685  20.255  0.00  0.00    +0.000 OA
ATOM     29  C   UNL     1      10.003  14.872  20.264  0.00  0.00    +0.000 C 
ENDBRANCH  23  28
BRANCH  24  30
ATOM     30  O   UNL     1      10.724  13.220  17.406  0.00  0.00    +0.000 OA
ATOM     31  C   UNL     1      12.065  13.020  16.973  0.00  0.00    +0.000 C 
ENDBRANCH  24  30
ENDBRANCH  19  20
ENDBRANCH   4  18
TORSDOF 9
ENDMDL
MODEL 4
REMARK VINA RESULT:      -7.3      0.913      1.180
REMARK  Name = 
REMARK  16 active torsions:
REMARK  status: ('A' for Active; 'I' for Inactive)
REMARK    1  A    between atoms: C_1  and  O_2
REMARK    2  A    between atoms: O_2  and  C_3
REMARK    3  A    between atoms: C_6  and  C_7
REMARK    4  A    between atoms: C_8  and  C_9
REMARK    5  A    between atoms: C_11  and  O_12
REMARK    6  A    between atoms: O_12  and  C_13
REMARK    7  A    between atoms: C_14  and  O_15
REMARK    8  A    between atoms: O_15  and  C_16
REMARK    9  A    between atoms: C_17  and  O_18
REMARK   10  A    between atoms: O_18  and  C_19
REMARK   11  A    between atoms: C_22  and  N_23
REMARK   12  A    between atoms: C_24  and  O_26
REMARK   13  A    between atoms: O_26  and  C_27
REMARK   14  A    between atoms: C_27  and  C_28
REMARK   15  A    between atoms: C_27  and  C_29
REMARK   16  A    between atoms: C_27  and  C_30
REMARK                            x       y       z     vdW  Elec       q    Type
REMARK                         _______ _______ _______ _____ _____    ______ ____
ROOT
ATOM      1  C   UNL     1       6.261   4.701  16.526  0.00  0.00    +0.000 A 
ATOM      2  C   UNL     1       7.041   5.579  15.749  0.00  0.00    +0.000 A 
ATOM      3  C   UNL     1       7.638   6.699  16.311  0.00  0.00    +0.000 A 
ATOM      4  C   UNL     1       7.499   6.938  17.668  0.00  0.00    +0.000 A 
ATOM      5  C   UNL     1       6.770   6.054  18.463  0.00  0.00    +0.000 A 
ATOM      6  C   UNL     1       6.132   4.922  17.920  0.00  0.00    +0.000 A 
ENDROOT
BRANCH   6   7
ATOM      7  N   UNL     1       5.391   4.017  18.745  0.00  0.00    +0.000 N 
ATOM      8  C   UNL     1       4.013   3.902  18.757  0.00  0.00    +0.000 C 
ATOM      9  O   UNL     1       3.261   4.481  17.971  0.00  0.00    +0.000 OA
ATOM     10  H   UNL     1       5.915   3.352  19.293  0.00  0.00    +0.000 HD
BRANCH   8  11
ATOM     11  O   UNL     1       3.546   3.041  19.722  0.00  0.00    +0.000 OA
BRANCH  11  12
ATOM     12  C   UNL     1       2.356   3.443  20.487  0.00  0.00    +0.000 C 
ATOM     13  C   UNL     1       2.395   4.941  20.835  0.00  0.00    +0.000 C 
ATOM     14  C   UNL     1       1.117   3.213  19.598  0.00  0.00    +0.000 C 
ATOM     15  C   UNL     1       2.163   2.579  21.747  0.00  0.00    +0.000 C 
ENDBRANCH  11  12
ENDBRANCH   8  11
ENDBRANCH   6   7
BRANCH   1  17
ATOM     16  C   UNL     1       5.592   3.648  14.523  0.00  0.00    +0.000 C 
ATOM     17  O   UNL     1       5.597   3.634  15.959  0.00  0.00    +0.000 OA
ENDBRANCH   1  17
BRANCH   4  18
ATOM     18  C   UNL     1       8.129   8.109  18.192  0.00  0.00    +0.000 C 
ATOM     19  C   UNL     1       8.665   9.116  18.576  0.00  0.00    +0.000 C 
BRANCH  19  20
ATOM     20  C   UNL     1       9.294  10.321  18.977  0.00  0.00    +0.000 A 
ATOM     21  C   UNL     1      10.293  10.891  18.210  0.00  0.00    +0.000 A 
ATOM     22  C   UNL     1      10.909  12.066  18.629  0.00  0.00    +0.000 A 
ATOM     23  C   UNL     1      10.541  12.662  19.865  0.00  0.00    +0.000 A 
ATOM     24  C   UNL     1       9.522  12.067  20.643  0.00  0.00    +0.000 A 
ATOM     25  C   UNL     1       8.902  10.899  20.171  0.00  0.00    +0.000 A 
BRANCH  22  26
ATOM     26  O   UNL     1      11.920  12.666  17.906  0.00  0.00    +0.000 OA
ATOM     27  C   UNL     1      11.524  13.321  16.697  0.00  0.00    +0.000 C 
ENDBRANCH  22  26
BRANCH  23  28
ATOM     28  O   UNL     1      11.289  13.760  20.232  0.00  0.00    +0.000 OA
ATOM     29  C   UNL     1      10.745  15.055  19.994  0.00  0.00    +0.000 C 
ENDBRANCH  23  28
BRANCH  24  30
ATOM     30  O   UNL     1       9.190  12.622  21.854  0.00  0.00    +0.000 OA
ATOM     31  C   UNL     1       8.565  11.783  22.821  0.00  0.00    +0.000 C 
ENDBRANCH  24  30
ENDBRANCH  19  20
ENDBRANCH   4  18
TORSDOF 9
ENDMDL
MODEL 5
REMARK VINA RESULT:      -7.2      1.172      2.657
REMARK  Name = 
REMARK  16 active torsions:
REMARK  status: ('A' for Active; 'I' for Inactive)
REMARK    1  A    between atoms: C_1  and  O_2
REMARK    2  A    between atoms: O_2  and  C_3
REMARK    3  A    between atoms: C_6  and  C_7
REMARK    4  A    between atoms: C_8  and  C_9
REMARK    5  A    between atoms: C_11  and  O_12
REMARK    6  A    between atoms: O_12  and  C_13
REMARK    7  A    between atoms: C_14  and  O_15
REMARK    8  A    between atoms: O_15  and  C_16
REMARK    9  A    between atoms: C_17  and  O_18
REMARK   10  A    between atoms: O_18  and  C_19
REMARK   11  A    between atoms: C_22  and  N_23
REMARK   12  A    between atoms: C_24  and  O_26
REMARK   13  A    between atoms: O_26  and  C_27
REMARK   14  A    between atoms: C_27  and  C_28
REMARK   15  A    between atoms: C_27  and  C_29
REMARK   16  A    between atoms: C_27  and  C_30
REMARK                            x       y       z     vdW  Elec       q    Type
REMARK                         _______ _______ _______ _____ _____    ______ ____
ROOT
ATOM      1  C   UNL     1       6.003   5.055  16.340  0.00  0.00    +0.000 A 
ATOM      2  C   UNL     1       7.187   5.561  15.768  0.00  0.00    +0.000 A 
ATOM      3  C   UNL     1       7.833   6.663  16.309  0.00  0.00    +0.000 A 
ATOM      4  C   UNL     1       7.329   7.255  17.456  0.00  0.00    +0.000 A 
ATOM      5  C   UNL     1       6.185   6.739  18.064  0.00  0.00    +0.000 A 
ATOM      6  C   UNL     1       5.492   5.636  17.527  0.00  0.00    +0.000 A 
ENDROOT
BRANCH   6   7
ATOM      7  N   UNL     1       4.322   5.111  18.160  0.00  0.00    +0.000 N 
ATOM      8  C   UNL     1       4.308   4.052  19.051  0.00  0.00    +0.000 C 
ATOM      9  O   UNL     1       5.319   3.510  19.500  0.00  0.00    +0.000 OA
ATOM     10  H   UNL     1       3.454   5.604  18.016  0.00  0.00    +0.000 HD
BRANCH   8  11
ATOM     11  O   UNL     1       3.042   3.671  19.425  0.00  0.00    +0.000 OA
BRANCH  11  12
ATOM     12  C   UNL     1       2.335   2.700  18.576  0.00  0.00    +0.000 C 
ATOM     13  C   UNL     1       2.221   3.204  17.128  0.00  0.00    +0.000 C 
ATOM     14  C   UNL     1       3.166   1.400  18.543  0.00  0.00    +0.000 C 
ATOM     15  C   UNL     1       0.955   2.328  19.151  0.00  0.00    +0.000 C 
ENDBRANCH  11  12
ENDBRANCH   8  11
ENDBRANCH   6   7
BRANCH   1  17
ATOM     16  C   UNL     1       5.740   3.701  14.424  0.00  0.00    +0.000 C 
ATOM     17  O   UNL     1       5.311   4.013  15.759  0.00  0.00    +0.000 OA
ENDBRANCH   1  17
BRANCH   4  18
ATOM     18  C   UNL     1       8.030   8.391  17.967  0.00  0.00    +0.000 C 
ATOM     19  C   UNL     1       8.606   9.377  18.345  0.00  0.00    +0.000 C 
BRANCH  19  20
ATOM     20  C   UNL     1       9.265  10.566  18.747  0.00  0.00    +0.000 A 
ATOM     21  C   UNL     1       9.339  10.920  20.082  0.00  0.00    +0.000 A 
ATOM     22  C   UNL     1       9.977  12.099  20.455  0.00  0.00    +0.000 A 
ATOM     23  C   UNL     1      10.517  12.961  19.465  0.00  0.00    +0.000 A 
ATOM     24  C   UNL     1      10.430  12.591  18.103  0.00  0.00    +0.000 A 
ATOM     25  C   UNL     1       9.807  11.378  17.768  0.00  0.00    +0.000 A 
BRANCH  22  26
ATOM     26  O   UNL     1      10.065  12.502  21.772  0.00  0.00    +0.000 OA
ATOM     27  C   UNL     1       8.823  12.723  22.447  0.00  0.00    +0.000 C 
ENDBRANCH  22  26
BRANCH  23  28
ATOM     28  O   UNL     1      11.029  14.151  19.938  0.00  0.00    +0.000 OA
ATOM     29  C   UNL     1      10.208  15.313  19.863  0.00  0.00    +0.000 C 
ENDBRANCH  23  28
BRANCH  24  30
ATOM     30  O   UNL     1      10.921  13.440  17.142  0.00  0.00    +0.000 OA
ATOM     31  C   UNL     1      12.333  13.511  16.976  0.00  0.00    +0.000 C 
ENDBRANCH  24  30
ENDBRANCH  19  20
ENDBRANCH   4  18
TORSDOF 9
ENDMDL
MODEL 6
REMARK VINA RESULT:      -7.1      6.066     11.218
REMARK  Name = 
REMARK  16 active torsions:
REMARK  status: ('A' for Active; 'I' for Inactive)
REMARK    1  A    between atoms: C_1  and  O_2
REMARK    2  A    between atoms: O_2  and  C_3
REMARK    3  A    between atoms: C_6  and  C_7
REMARK    4  A    between atoms: C_8  and  C_9
REMARK    5  A    between atoms: C_11  and  O_12
REMARK    6  A    between atoms: O_12  and  C_13
REMARK    7  A    between atoms: C_14  and  O_15
REMARK    8  A    between atoms: O_15  and  C_16
REMARK    9  A    between atoms: C_17  and  O_18
REMARK   10  A    between atoms: O_18  and  C_19
REMARK   11  A    between atoms: C_22  and  N_23
REMARK   12  A    between atoms: C_24  and  O_26
REMARK   13  A    between atoms: O_26  and  C_27
REMARK   14  A    between atoms: C_27  and  C_28
REMARK   15  A    between atoms: C_27  and  C_29
REMARK   16  A    between atoms: C_27  and  C_30
REMARK                            x       y       z     vdW  Elec       q    Type
REMARK                         _______ _______ _______ _____ _____    ______ ____
ROOT
ATOM      1  C   UNL     1      -0.796  12.092  22.474  0.00  0.00    +0.000 A 
ATOM      2  C   UNL     1      -0.989  10.855  23.119  0.00  0.00    +0.000 A 
ATOM      3  C   UNL     1      -0.377   9.699  22.655  0.00  0.00    +0.000 A 
ATOM      4  C   UNL     1       0.471   9.767  21.561  0.00  0.00    +0.000 A 
ATOM      5  C   UNL     1       0.712  10.991  20.939  0.00  0.00    +0.000 A 
ATOM      6  C   UNL     1       0.089  12.179  21.370  0.00  0.00    +0.000 A 
ENDROOT
BRANCH   6   7
ATOM      7  N   UNL     1       0.346  13.431  20.729  0.00  0.00    +0.000 N 
ATOM      8  C   UNL     1       1.297  14.351  21.134  0.00  0.00    +0.000 C 
ATOM      9  O   UNL     1       2.121  14.149  22.027  0.00  0.00    +0.000 OA
ATOM     10  H   UNL     1      -0.139  13.619  19.864  0.00  0.00    +0.000 HD
BRANCH   8  11
ATOM     11  O   UNL     1       1.263  15.523  20.417  0.00  0.00    +0.000 OA
BRANCH  11  12
ATOM     12  C   UNL     1       2.349  15.776  19.457  0.00  0.00    +0.000 C 
ATOM     13  C   UNL     1       2.827  14.471  18.799  0.00  0.00    +0.000 C 
ATOM     14  C   UNL     1       1.793  16.676  18.334  0.00  0.00    +0.000 C 
ATOM     15  C   UNL     1       3.519  16.543  20.101  0.00  0.00    +0.000 C 
ENDBRANCH  11  12
ENDBRANCH   8  11
ENDBRANCH   6   7
BRANCH   1  17
ATOM     16  C   UNL     1      -2.883  13.046  23.024  0.00  0.00    +0.000 C 
ATOM     17  O   UNL     1      -1.466  13.227  22.879  0.00  0.00    +0.000 OA
ENDBRANCH   1  17
BRANCH   4  18
ATOM     18  C   UNL     1       1.069   8.546  21.122  0.00  0.00    +0.000 C 
ATOM     19  C   UNL     1       1.565   7.536  20.693  0.00  0.00    +0.000 C 
BRANCH  19  20
ATOM     20  C   UNL     1       2.148   6.370  20.139  0.00  0.00    +0.000 A 
ATOM     21  C   UNL     1       2.114   5.166  20.819  0.00  0.00    +0.000 A 
ATOM     22  C   UNL     1       2.705   4.036  20.265  0.00  0.00    +0.000 A 
ATOM     23  C   UNL     1       3.381   4.123  19.019  0.00  0.00    +0.000 A 
ATOM     24  C   UNL     1       3.414   5.359  18.335  0.00  0.00    +0.000 A 
ATOM     25  C   UNL     1       2.778   6.471  18.912  0.00  0.00    +0.000 A 
BRANCH  22  26
ATOM     26  O   UNL     1       2.710   2.816  20.911  0.00  0.00    +0.000 OA
ATOM     27  C   UNL     1       1.558   2.522  21.708  0.00  0.00    +0.000 C 
ENDBRANCH  22  26
BRANCH  23  28
ATOM     28  O   UNL     1       4.022   2.970  18.617  0.00  0.00    +0.000 OA
ATOM     29  C   UNL     1       3.303   2.051  17.799  0.00  0.00    +0.000 C 
ENDBRANCH  23  28
BRANCH  24  30
ATOM     30  O   UNL     1       4.095   5.454  17.148  0.00  0.00    +0.000 OA
ATOM     31  C   UNL     1       4.738   6.689  16.846  0.00  0.00    +0.000 C 
ENDBRANCH  24  30
ENDBRANCH  19  20
ENDBRANCH   4  18
TORSDOF 9
ENDMDL
MODEL 7
REMARK VINA RESULT:      -7.1      1.070      2.608
REMARK  Name = 
REMARK  16 active torsions:
REMARK  status: ('A' for Active; 'I' for Inactive)
REMARK    1  A    between atoms: C_1  and  O_2
REMARK    2  A    between atoms: O_2  and  C_3
REMARK    3  A    between atoms: C_6  and  C_7
REMARK    4  A    between atoms: C_8  and  C_9
REMARK    5  A    between atoms: C_11  and  O_12
REMARK    6  A    between atoms: O_12  and  C_13
REMARK    7  A    between atoms: C_14  and  O_15
REMARK    8  A    between atoms: O_15  and  C_16
REMARK    9  A    between atoms: C_17  and  O_18
REMARK   10  A    between atoms: O_18  and  C_19
REMARK   11  A    between atoms: C_22  and  N_23
REMARK   12  A    between atoms: C_24  and  O_26
REMARK   13  A    between atoms: O_26  and  C_27
REMARK   14  A    between atoms: C_27  and  C_28
REMARK   15  A    between atoms: C_27  and  C_29
REMARK   16  A    between atoms: C_27  and  C_30
REMARK                            x       y       z     vdW  Elec       q    Type
REMARK                         _______ _______ _______ _____ _____    ______ ____
ROOT
ATOM      1  C   UNL     1       6.461   4.676  16.406  0.00  0.00    +0.000 A 
ATOM      2  C   UNL     1       7.218   5.574  15.630  0.00  0.00    +0.000 A 
ATOM      3  C   UNL     1       7.719   6.749  16.171  0.00  0.00    +0.000 A 
ATOM      4  C   UNL     1       7.505   7.028  17.511  0.00  0.00    +0.000 A 
ATOM      5  C   UNL     1       6.798   6.129  18.309  0.00  0.00    +0.000 A 
ATOM      6  C   UNL     1       6.256   4.939  17.784  0.00  0.00    +0.000 A 
ENDROOT
BRANCH   6   7
ATOM      7  N   UNL     1       5.537   4.020  18.611  0.00  0.00    +0.000 N 
ATOM      8  C   UNL     1       4.169   3.816  18.569  0.00  0.00    +0.000 C 
ATOM      9  O   UNL     1       3.419   4.315  17.729  0.00  0.00    +0.000 OA
ATOM     10  H   UNL     1       6.076   3.410  19.208  0.00  0.00    +0.000 HD
BRANCH   8  11
ATOM     11  O   UNL     1       3.715   2.963  19.546  0.00  0.00    +0.000 OA
BRANCH  11  12
ATOM     12  C   UNL     1       2.500   3.344  20.284  0.00  0.00    +0.000 C 
ATOM     13  C   UNL     1       2.462   2.688  21.674  0.00  0.00    +0.000 C 
ATOM     14  C   UNL     1       2.533   4.872  20.501  0.00  0.00    +0.000 C 
ATOM     15  C   UNL     1       1.220   3.039  19.483  0.00  0.00    +0.000 C 
ENDBRANCH  11  12
ENDBRANCH   8  11
ENDBRANCH   6   7
BRANCH   1  17
ATOM     16  C   UNL     1       5.860   3.556  14.418  0.00  0.00    +0.000 C 
ATOM     17  O   UNL     1       5.889   3.549  15.853  0.00  0.00    +0.000 OA
ENDBRANCH   1  17
BRANCH   4  18
ATOM     18  C   UNL     1       8.037   8.255  18.016  0.00  0.00    +0.000 C 
ATOM     19  C   UNL     1       8.527   9.255  18.470  0.00  0.00    +0.000 C 
BRANCH  19  20
ATOM     20  C   UNL     1       9.147  10.403  19.024  0.00  0.00    +0.000 A 
ATOM     21  C   UNL     1       9.092  10.655  20.383  0.00  0.00    +0.000 A 
ATOM     22  C   UNL     1       9.693  11.796  20.905  0.00  0.00    +0.000 A 
ATOM     23  C   UNL     1      10.329  12.725  20.041  0.00  0.00    +0.000 A 
ATOM     24  C   UNL     1      10.375  12.461  18.653  0.00  0.00    +0.000 A 
ATOM     25  C   UNL     1       9.784  11.283  18.167  0.00  0.00    +0.000 A 
BRANCH  22  26
ATOM     26  O   UNL     1       9.654  12.097  22.251  0.00  0.00    +0.000 OA
ATOM     27  C   UNL     1       8.355  12.319  22.808  0.00  0.00    +0.000 C 
ENDBRANCH  22  26
BRANCH  23  28
ATOM     28  O   UNL     1      10.796  13.871  20.651  0.00  0.00    +0.000 OA
ATOM     29  C   UNL     1       9.989  15.043  20.586  0.00  0.00    +0.000 C 
ENDBRANCH  23  28
BRANCH  24  30
ATOM     30  O   UNL     1      10.959  13.375  17.812  0.00  0.00    +0.000 OA
ATOM     31  C   UNL     1      11.499  12.898  16.583  0.00  0.00    +0.000 C 
ENDBRANCH  24  30
ENDBRANCH  19  20
ENDBRANCH   4  18
TORSDOF 9
ENDMDL
MODEL 8
REMARK VINA RESULT:      -7.1      0.824      2.490
REMARK  Name = 
REMARK  16 active torsions:
REMARK  status: ('A' for Active; 'I' for Inactive)
REMARK    1  A    between atoms: C_1  and  O_2
REMARK    2  A    between atoms: O_2  and  C_3
REMARK    3  A    between atoms: C_6  and  C_7
REMARK    4  A    between atoms: C_8  and  C_9
REMARK    5  A    between atoms: C_11  and  O_12
REMARK    6  A    between atoms: O_12  and  C_13
REMARK    7  A    between atoms: C_14  and  O_15
REMARK    8  A    between atoms: O_15  and  C_16
REMARK    9  A    between atoms: C_17  and  O_18
REMARK   10  A    between atoms: O_18  and  C_19
REMARK   11  A    between atoms: C_22  and  N_23
REMARK   12  A    between atoms: C_24  and  O_26
REMARK   13  A    between atoms: O_26  and  C_27
REMARK   14  A    between atoms: C_27  and  C_28
REMARK   15  A    between atoms: C_27  and  C_29
REMARK   16  A    between atoms: C_27  and  C_30
REMARK                            x       y       z     vdW  Elec       q    Type
REMARK                         _______ _______ _______ _____ _____    ______ ____
ROOT
ATOM      1  C   UNL     1       5.941   5.014  16.649  0.00  0.00    +0.000 A 
ATOM      2  C   UNL     1       6.991   5.592  15.909  0.00  0.00    +0.000 A 
ATOM      3  C   UNL     1       7.645   6.730  16.357  0.00  0.00    +0.000 A 
ATOM      4  C   UNL     1       7.288   7.288  17.574  0.00  0.00    +0.000 A 
ATOM      5  C   UNL     1       6.284   6.703  18.345  0.00  0.00    +0.000 A 
ATOM      6  C   UNL     1       5.584   5.561  17.908  0.00  0.00    +0.000 A 
ENDROOT
BRANCH   6   7
ATOM      7  N   UNL     1       4.559   4.964  18.707  0.00  0.00    +0.000 N 
ATOM      8  C   UNL     1       3.251   5.407  18.780  0.00  0.00    +0.000 C 
ATOM      9  O   UNL     1       2.778   6.297  18.072  0.00  0.00    +0.000 OA
ATOM     10  H   UNL     1       4.783   4.104  19.184  0.00  0.00    +0.000 HD
BRANCH   8  11
ATOM     11  O   UNL     1       2.497   4.729  19.709  0.00  0.00    +0.000 OA
BRANCH  11  12
ATOM     12  C   UNL     1       2.063   3.362  19.380  0.00  0.00    +0.000 C 
ATOM     13  C   UNL     1       2.981   2.314  20.028  0.00  0.00    +0.000 C 
ATOM     14  C   UNL     1       0.650   3.157  19.967  0.00  0.00    +0.000 C 
ATOM     15  C   UNL     1       1.946   3.145  17.860  0.00  0.00    +0.000 C 
ENDBRANCH  11  12
ENDBRANCH   8  11
ENDBRANCH   6   7
BRANCH   1  17
ATOM     16  C   UNL     1       5.250   3.813  14.739  0.00  0.00    +0.000 C 
ATOM     17  O   UNL     1       5.232   3.933  16.170  0.00  0.00    +0.000 OA
ENDBRANCH   1  17
BRANCH   4  18
ATOM     18  C   UNL     1       7.990   8.464  17.984  0.00  0.00    +0.000 C 
ATOM     19  C   UNL     1       8.619   9.418  18.362  0.00  0.00    +0.000 C 
BRANCH  19  20
ATOM     20  C   UNL     1       9.396  10.507  18.828  0.00  0.00    +0.000 A 
ATOM     21  C   UNL     1       9.192  11.038  20.089  0.00  0.00    +0.000 A 
ATOM     22  C   UNL     1       9.955  12.118  20.522  0.00  0.00    +0.000 A 
ATOM     23  C   UNL     1      10.917  12.704  19.657  0.00  0.00    +0.000 A 
ATOM     24  C   UNL     1      11.113  12.156  18.369  0.00  0.00    +0.000 A 
ATOM     25  C   UNL     1      10.345  11.046  17.979  0.00  0.00    +0.000 A 
BRANCH  22  26
ATOM     26  O   UNL     1       9.780  12.691  21.765  0.00  0.00    +0.000 OA
ATOM     27  C   UNL     1       8.823  12.058  22.620  0.00  0.00    +0.000 C 
ENDBRANCH  22  26
BRANCH  23  28
ATOM     28  O   UNL     1      11.538  13.833  20.148  0.00  0.00    +0.000 OA
ATOM     29  C   UNL     1      11.006  15.104  19.786  0.00  0.00    +0.000 C 
ENDBRANCH  23  28
BRANCH  24  30
ATOM     30  O   UNL     1      12.017  12.742  17.519  0.00  0.00    +0.000 OA
ATOM     31  C   UNL     1      11.509  13.466  16.403  0.00  0.00    +0.000 C 
ENDBRANCH  24  30
ENDBRANCH  19  20
ENDBRANCH   4  18
TORSDOF 9
ENDMDL
MODEL 9
REMARK VINA RESULT:      -7.1      6.139     11.014
REMARK  Name = 
REMARK  16 active torsions:
REMARK  status: ('A' for Active; 'I' for Inactive)
REMARK    1  A    between atoms: C_1  and  O_2
REMARK    2  A    between atoms: O_2  and  C_3
REMARK    3  A    between atoms: C_6  and  C_7
REMARK    4  A    between atoms: C_8  and  C_9
REMARK    5  A    between atoms: C_11  and  O_12
REMARK    6  A    between atoms: O_12  and  C_13
REMARK    7  A    between atoms: C_14  and  O_15
REMARK    8  A    between atoms: O_15  and  C_16
REMARK    9  A    between atoms: C_17  and  O_18
REMARK   10  A    between atoms: O_18  and  C_19
REMARK   11  A    between atoms: C_22  and  N_23
REMARK   12  A    between atoms: C_24  and  O_26
REMARK   13  A    between atoms: O_26  and  C_27
REMARK   14  A    between atoms: C_27  and  C_28
REMARK   15  A    between atoms: C_27  and  C_29
REMARK   16  A    between atoms: C_27  and  C_30
REMARK                            x       y       z     vdW  Elec       q    Type
REMARK                         _______ _______ _______ _____ _____    ______ ____
ROOT
ATOM      1  C   UNL     1      -0.966  11.910  22.604  0.00  0.00    +0.000 A 
ATOM      2  C   UNL     1      -1.061  10.660  23.245  0.00  0.00    +0.000 A 
ATOM      3  C   UNL     1      -0.400   9.545  22.749  0.00  0.00    +0.000 A 
ATOM      4  C   UNL     1       0.400   9.671  21.625  0.00  0.00    +0.000 A 
ATOM      5  C   UNL     1       0.545  10.911  21.004  0.00  0.00    +0.000 A 
ATOM      6  C   UNL     1      -0.131  12.056  21.469  0.00  0.00    +0.000 A 
ENDROOT
BRANCH   6   7
ATOM      7  N   UNL     1       0.027  13.326  20.828  0.00  0.00    +0.000 N 
ATOM      8  C   UNL     1       0.963  14.281  21.180  0.00  0.00    +0.000 C 
ATOM      9  O   UNL     1       1.856  14.106  22.011  0.00  0.00    +0.000 OA
ATOM     10  H   UNL     1      -0.525  13.502  20.002  0.00  0.00    +0.000 HD
BRANCH   8  11
ATOM     11  O   UNL     1       0.829  15.458  20.483  0.00  0.00    +0.000 OA
BRANCH  11  12
ATOM     12  C   UNL     1       1.848  15.782  19.472  0.00  0.00    +0.000 C 
ATOM     13  C   UNL     1       3.159  16.244  20.130  0.00  0.00    +0.000 C 
ATOM     14  C   UNL     1       2.163  14.494  18.683  0.00  0.00    +0.000 C 
ATOM     15  C   UNL     1       1.338  16.814  18.450  0.00  0.00    +0.000 C 
ENDBRANCH  11  12
ENDBRANCH   8  11
ENDBRANCH   6   7
BRANCH   1  17
ATOM     16  C   UNL     1      -3.108  12.798  23.045  0.00  0.00    +0.000 C 
ATOM     17  O   UNL     1      -1.687  13.001  23.043  0.00  0.00    +0.000 OA
ENDBRANCH   1  17
BRANCH   4  18
ATOM     18  C   UNL     1       1.053   8.490  21.153  0.00  0.00    +0.000 C 
ATOM     19  C   UNL     1       1.590   7.514  20.697  0.00  0.00    +0.000 C 
BRANCH  19  20
ATOM     20  C   UNL     1       2.219   6.387  20.112  0.00  0.00    +0.000 A 
ATOM     21  C   UNL     1       2.795   6.466  18.857  0.00  0.00    +0.000 A 
ATOM     22  C   UNL     1       3.394   5.345  18.293  0.00  0.00    +0.000 A 
ATOM     23  C   UNL     1       3.381   4.106  18.986  0.00  0.00    +0.000 A 
ATOM     24  C   UNL     1       2.785   4.035  20.266  0.00  0.00    +0.000 A 
ATOM     25  C   UNL     1       2.218   5.197  20.815  0.00  0.00    +0.000 A 
BRANCH  22  26
ATOM     26  O   UNL     1       3.969   5.370  17.039  0.00  0.00    +0.000 OA
ATOM     27  C   UNL     1       5.149   6.169  16.904  0.00  0.00    +0.000 C 
ENDBRANCH  22  26
BRANCH  23  28
ATOM     28  O   UNL     1       3.906   3.037  18.290  0.00  0.00    +0.000 OA
ATOM     29  C   UNL     1       3.002   2.086  17.735  0.00  0.00    +0.000 C 
ENDBRANCH  23  28
BRANCH  24  30
ATOM     30  O   UNL     1       2.741   2.830  20.923  0.00  0.00    +0.000 OA
ATOM     31  C   UNL     1       1.550   2.502  21.631  0.00  0.00    +0.000 C 
ENDBRANCH  24  30
ENDBRANCH  19  20
ENDBRANCH   4  18
TORSDOF 9
ENDMDL
