MODEL 1
REMARK VINA RESULT:      -8.2      0.000      0.000
REMARK  Name = 
REMARK  7 active torsions:
REMARK  status: ('A' for Active; 'I' for Inactive)
REMARK    1  A    between atoms: C_1  and  C_2
REMARK    2  A    between atoms: C_6  and  C_7
REMARK    3  A    between atoms: C_7  and  N_8
REMARK    4  A    between atoms: C_11  and  C_12
REMARK    5  A    between atoms: N_14  and  C_15
REMARK    6  A    between atoms: C_15  and  C_16
REMARK    7  A    between atoms: N_23  and  C_24
REMARK                            x       y       z     vdW  Elec       q    Type
REMARK                         _______ _______ _______ _____ _____    ______ ____
ROOT
ATOM      1  N   UNL     1       0.111  12.477  20.051  0.00  0.00    +0.000 N 
ATOM      2  C   UNL     1       0.533  11.344  20.702  0.00  0.00    +0.000 A 
ATOM      3  O   UNL     1       1.378  11.332  21.588  0.00  0.00    +0.000 OA
ATOM      4  C   UNL     1      -0.066  10.049  20.219  0.00  0.00    +0.000 A 
ATOM      5  N   UNL     1      -0.933  10.013  19.245  0.00  0.00    +0.000 NA
ATOM      6  N   UNL     1      -1.304  11.206  18.637  0.00  0.00    +0.000 N 
ATOM      7  C   UNL     1      -0.705  12.447  18.934  0.00  0.00    +0.000 A 
ATOM      8  O   UNL     1      -0.838  13.464  18.252  0.00  0.00    +0.000 OA
ENDROOT
BRANCH   6   9
ATOM      9  C   UNL     1      -2.322  11.076  17.622  0.00  0.00    +0.000 A 
ATOM     10  C   UNL     1      -3.640  11.529  17.824  0.00  0.00    +0.000 A 
ATOM     11  C   UNL     1      -4.615  11.458  16.823  0.00  0.00    +0.000 A 
ATOM     12  C   UNL     1      -4.296  10.904  15.593  0.00  0.00    +0.000 A 
ATOM     13  C   UNL     1      -3.015  10.408  15.390  0.00  0.00    +0.000 A 
ATOM     14  F   UNL     1      -2.709   9.861  14.206  0.00  0.00    +0.000 F 
ATOM     15  C   UNL     1      -2.037  10.477  16.385  0.00  0.00    +0.000 A 
ENDBRANCH   6   9
BRANCH   4  16
ATOM     16  C   UNL     1       0.353   8.728  20.860  0.00  0.00    +0.000 C 
ATOM     17  O   UNL     1      -0.295   8.259  21.784  0.00  0.00    +0.000 OA
ATOM     18  N   UNL     1       1.488   8.144  20.344  0.00  0.00    +0.000 N 
ATOM     19  H   UNL     1       1.823   8.441  19.434  0.00  0.00    +0.000 HD
BRANCH  18  20
ATOM     20  C   UNL     1       2.024   6.926  20.922  0.00  0.00    +0.000 C 
BRANCH  20  21
ATOM     21  C   UNL     1       1.851   5.720  20.030  0.00  0.00    +0.000 A 
ATOM     22  C   UNL     1       1.217   4.573  20.507  0.00  0.00    +0.000 A 
ATOM     23  C   UNL     1       1.068   3.481  19.657  0.00  0.00    +0.000 A 
ATOM     24  C   UNL     1       1.554   3.560  18.360  0.00  0.00    +0.000 A 
ATOM     25  C   UNL     1       2.168   4.736  17.962  0.00  0.00    +0.000 A 
ATOM     26  N   UNL     1       2.322   5.816  18.760  0.00  0.00    +0.000 NA
ENDBRANCH  20  21
ENDBRANCH  18  20
ENDBRANCH   4  16
BRANCH   1  27
ATOM     27  C   UNL     1       0.601  13.767  20.512  0.00  0.00    +0.000 C 
BRANCH  27  33
ATOM     28  C   UNL     1       2.216  17.438  17.464  0.00  0.00    +0.000 C 
ATOM     29  C   UNL     1       2.418  16.080  18.069  0.00  0.00    +0.000 A 
ATOM     30  C   UNL     1       3.496  15.275  17.687  0.00  0.00    +0.000 A 
ATOM     31  C   UNL     1       3.652  14.002  18.233  0.00  0.00    +0.000 A 
ATOM     32  C   UNL     1       2.730  13.520  19.161  0.00  0.00    +0.000 A 
ATOM     33  C   UNL     1       1.645  14.313  19.562  0.00  0.00    +0.000 A 
ATOM     34  C   UNL     1       1.499  15.594  19.010  0.00  0.00    +0.000 A 
ENDBRANCH  27  33
ENDBRANCH   1  27
TORSDOF 6
ENDMDL
MODEL 2
REMARK VINA RESULT:      -8.1      2.485      3.715
REMARK  Name = 
REMARK  7 active torsions:
REMARK  status: ('A' for Active; 'I' for Inactive)
REMARK    1  A    between atoms: C_1  and  C_2
REMARK    2  A    between atoms: C_6  and  C_7
REMARK    3  A    between atoms: C_7  and  N_8
REMARK    4  A    between atoms: C_11  and  C_12
REMARK    5  A    between atoms: N_14  and  C_15
REMARK    6  A    between atoms: C_15  and  C_16
REMARK    7  A    between atoms: N_23  and  C_24
REMARK                            x       y       z     vdW  Elec       q    Type
REMARK                         _______ _______ _______ _____ _____    ______ ____
ROOT
ATOM      1  N   UNL     1      -0.494  12.070  20.861  0.00  0.00    +0.000 N 
ATOM      2  C   UNL     1       0.339  11.019  21.151  0.00  0.00    +0.000 A 
ATOM      3  O   UNL     1       1.157  11.018  22.062  0.00  0.00    +0.000 OA
ATOM      4  C   UNL     1       0.247   9.834  20.225  0.00  0.00    +0.000 A 
ATOM      5  N   UNL     1      -0.577   9.813  19.214  0.00  0.00    +0.000 NA
ATOM      6  N   UNL     1      -1.384  10.921  18.988  0.00  0.00    +0.000 N 
ATOM      7  C   UNL     1      -1.279  12.121  19.722  0.00  0.00    +0.000 A 
ATOM      8  O   UNL     1      -1.803  13.186  19.392  0.00  0.00    +0.000 OA
ENDROOT
BRANCH   6   9
ATOM      9  C   UNL     1      -2.314  10.779  17.894  0.00  0.00    +0.000 A 
ATOM     10  C   UNL     1      -3.654  11.204  17.993  0.00  0.00    +0.000 A 
ATOM     11  C   UNL     1      -4.544  11.121  16.917  0.00  0.00    +0.000 A 
ATOM     12  C   UNL     1      -4.117  10.582  15.713  0.00  0.00    +0.000 A 
ATOM     13  C   UNL     1      -2.814  10.114  15.610  0.00  0.00    +0.000 A 
ATOM     14  F   UNL     1      -2.403   9.582  14.451  0.00  0.00    +0.000 F 
ATOM     15  C   UNL     1      -1.920  10.195  16.681  0.00  0.00    +0.000 A 
ENDBRANCH   6   9
BRANCH   4  16
ATOM     16  C   UNL     1       1.148   8.621  20.446  0.00  0.00    +0.000 C 
ATOM     17  O   UNL     1       1.243   8.118  21.555  0.00  0.00    +0.000 OA
ATOM     18  N   UNL     1       1.833   8.173  19.338  0.00  0.00    +0.000 N 
ATOM     19  H   UNL     1       1.521   8.463  18.418  0.00  0.00    +0.000 HD
BRANCH  18  20
ATOM     20  C   UNL     1       2.774   7.074  19.444  0.00  0.00    +0.000 C 
BRANCH  20  21
ATOM     21  C   UNL     1       2.132   5.721  19.248  0.00  0.00    +0.000 A 
ATOM     22  C   UNL     1       1.621   5.017  20.338  0.00  0.00    +0.000 A 
ATOM     23  C   UNL     1       1.030   3.776  20.122  0.00  0.00    +0.000 A 
ATOM     24  C   UNL     1       0.965   3.271  18.831  0.00  0.00    +0.000 A 
ATOM     25  C   UNL     1       1.492   4.034  17.802  0.00  0.00    +0.000 A 
ATOM     26  N   UNL     1       2.066   5.245  17.978  0.00  0.00    +0.000 NA
ENDBRANCH  20  21
ENDBRANCH  18  20
ENDBRANCH   4  16
BRANCH   1  27
ATOM     27  C   UNL     1      -0.503  13.218  21.755  0.00  0.00    +0.000 C 
BRANCH  27  33
ATOM     28  C   UNL     1      -4.336  15.935  23.572  0.00  0.00    +0.000 C 
ATOM     29  C   UNL     1      -3.653  14.609  23.418  0.00  0.00    +0.000 A 
ATOM     30  C   UNL     1      -4.147  13.466  24.056  0.00  0.00    +0.000 A 
ATOM     31  C   UNL     1      -3.483  12.247  23.931  0.00  0.00    +0.000 A 
ATOM     32  C   UNL     1      -2.316  12.159  23.172  0.00  0.00    +0.000 A 
ATOM     33  C   UNL     1      -1.808  13.291  22.519  0.00  0.00    +0.000 A 
ATOM     34  C   UNL     1      -2.486  14.513  22.648  0.00  0.00    +0.000 A 
ENDBRANCH  27  33
ENDBRANCH   1  27
TORSDOF 6
ENDMDL
MODEL 3
REMARK VINA RESULT:      -8.0      3.003      5.460
REMARK  Name = 
REMARK  7 active torsions:
REMARK  status: ('A' for Active; 'I' for Inactive)
REMARK    1  A    between atoms: C_1  and  C_2
REMARK    2  A    between atoms: C_6  and  C_7
REMARK    3  A    between atoms: C_7  and  N_8
REMARK    4  A    between atoms: C_11  and  C_12
REMARK    5  A    between atoms: N_14  and  C_15
REMARK    6  A    between atoms: C_15  and  C_16
REMARK    7  A    between atoms: N_23  and  C_24
REMARK                            x       y       z     vdW  Elec       q    Type
REMARK                         _______ _______ _______ _____ _____    ______ ____
ROOT
ATOM      1  N   UNL     1       0.471  11.098  21.158  0.00  0.00    +0.000 N 
ATOM      2  C   UNL     1       0.734   9.960  20.436  0.00  0.00    +0.000 A 
ATOM      3  O   UNL     1       0.435   8.829  20.797  0.00  0.00    +0.000 OA
ATOM      4  C   UNL     1       1.493  10.161  19.151  0.00  0.00    +0.000 A 
ATOM      5  N   UNL     1       1.872  11.344  18.753  0.00  0.00    +0.000 NA
ATOM      6  N   UNL     1       1.569  12.443  19.546  0.00  0.00    +0.000 N 
ATOM      7  C   UNL     1       0.976  12.342  20.821  0.00  0.00    +0.000 A 
ATOM      8  O   UNL     1       0.918  13.262  21.637  0.00  0.00    +0.000 OA
ENDROOT
BRANCH   6   9
ATOM      9  C   UNL     1       1.963  13.717  18.991  0.00  0.00    +0.000 A 
ATOM     10  C   UNL     1       1.122  14.846  19.045  0.00  0.00    +0.000 A 
ATOM     11  C   UNL     1       1.521  16.097  18.559  0.00  0.00    +0.000 A 
ATOM     12  C   UNL     1       2.773  16.240  17.982  0.00  0.00    +0.000 A 
ATOM     13  C   UNL     1       3.598  15.128  17.876  0.00  0.00    +0.000 A 
ATOM     14  F   UNL     1       4.803  15.263  17.308  0.00  0.00    +0.000 F 
ATOM     15  C   UNL     1       3.205  13.878  18.360  0.00  0.00    +0.000 A 
ENDBRANCH   6   9
BRANCH   4  16
ATOM     16  C   UNL     1       1.857   8.959  18.283  0.00  0.00    +0.000 C 
ATOM     17  O   UNL     1       1.679   8.994  17.075  0.00  0.00    +0.000 OA
ATOM     18  N   UNL     1       2.363   7.867  18.952  0.00  0.00    +0.000 N 
ATOM     19  H   UNL     1       2.719   7.989  19.894  0.00  0.00    +0.000 HD
BRANCH  18  20
ATOM     20  C   UNL     1       2.675   6.641  18.242  0.00  0.00    +0.000 C 
BRANCH  20  21
ATOM     21  C   UNL     1       2.089   5.411  18.893  0.00  0.00    +0.000 A 
ATOM     22  C   UNL     1       1.927   5.353  20.278  0.00  0.00    +0.000 A 
ATOM     23  C   UNL     1       1.377   4.207  20.845  0.00  0.00    +0.000 A 
ATOM     24  C   UNL     1       1.005   3.155  20.022  0.00  0.00    +0.000 A 
ATOM     25  C   UNL     1       1.193   3.293  18.657  0.00  0.00    +0.000 A 
ATOM     26  N   UNL     1       1.718   4.393  18.074  0.00  0.00    +0.000 NA
ENDBRANCH  20  21
ENDBRANCH  18  20
ENDBRANCH   4  16
BRANCH   1  27
ATOM     27  C   UNL     1      -0.317  10.981  22.376  0.00  0.00    +0.000 C 
BRANCH  27  33
ATOM     28  C   UNL     1      -4.577  12.722  24.426  0.00  0.00    +0.000 C 
ATOM     29  C   UNL     1      -3.710  12.531  23.217  0.00  0.00    +0.000 A 
ATOM     30  C   UNL     1      -4.151  12.919  21.947  0.00  0.00    +0.000 A 
ATOM     31  C   UNL     1      -3.348  12.704  20.827  0.00  0.00    +0.000 A 
ATOM     32  C   UNL     1      -2.101  12.097  20.965  0.00  0.00    +0.000 A 
ATOM     33  C   UNL     1      -1.638  11.707  22.230  0.00  0.00    +0.000 A 
ATOM     34  C   UNL     1      -2.451  11.930  23.351  0.00  0.00    +0.000 A 
ENDBRANCH  27  33
ENDBRANCH   1  27
TORSDOF 6
ENDMDL
MODEL 4
REMARK VINA RESULT:      -8.0      0.962      1.444
REMARK  Name = 
REMARK  7 active torsions:
REMARK  status: ('A' for Active; 'I' for Inactive)
REMARK    1  A    between atoms: C_1  and  C_2
REMARK    2  A    between atoms: C_6  and  C_7
REMARK    3  A    between atoms: C_7  and  N_8
REMARK    4  A    between atoms: C_11  and  C_12
REMARK    5  A    between atoms: N_14  and  C_15
REMARK    6  A    between atoms: C_15  and  C_16
REMARK    7  A    between atoms: N_23  and  C_24
REMARK                            x       y       z     vdW  Elec       q    Type
REMARK                         _______ _______ _______ _____ _____    ______ ____
ROOT
ATOM      1  N   UNL     1       0.265  12.655  19.886  0.00  0.00    +0.000 N 
ATOM      2  C   UNL     1       0.788  11.581  20.562  0.00  0.00    +0.000 A 
ATOM      3  O   UNL     1       1.651  11.665  21.427  0.00  0.00    +0.000 OA
ATOM      4  C   UNL     1       0.281  10.228  20.137  0.00  0.00    +0.000 A 
ATOM      5  N   UNL     1      -0.602  10.091  19.187  0.00  0.00    +0.000 NA
ATOM      6  N   UNL     1      -1.078  11.230  18.550  0.00  0.00    +0.000 N 
ATOM      7  C   UNL     1      -0.572  12.524  18.791  0.00  0.00    +0.000 A 
ATOM      8  O   UNL     1      -0.799  13.504  18.080  0.00  0.00    +0.000 OA
ENDROOT
BRANCH   6   9
ATOM      9  C   UNL     1      -2.105  10.988  17.565  0.00  0.00    +0.000 A 
ATOM     10  C   UNL     1      -1.913  10.097  16.490  0.00  0.00    +0.000 A 
ATOM     11  C   UNL     1      -2.924   9.815  15.565  0.00  0.00    +0.000 A 
ATOM     12  C   UNL     1      -4.155  10.442  15.682  0.00  0.00    +0.000 A 
ATOM     13  C   UNL     1      -4.349  11.359  16.707  0.00  0.00    +0.000 A 
ATOM     14  F   UNL     1      -5.533  11.975  16.814  0.00  0.00    +0.000 F 
ATOM     15  C   UNL     1      -3.343  11.644  17.633  0.00  0.00    +0.000 A 
ENDBRANCH   6   9
BRANCH   4  16
ATOM     16  C   UNL     1       0.817   8.967  20.810  0.00  0.00    +0.000 C 
ATOM     17  O   UNL     1       0.559   8.737  21.982  0.00  0.00    +0.000 OA
ATOM     18  N   UNL     1       1.599   8.152  20.022  0.00  0.00    +0.000 N 
ATOM     19  H   UNL     1       1.563   8.261  19.015  0.00  0.00    +0.000 HD
BRANCH  18  20
ATOM     20  C   UNL     1       2.224   6.965  20.574  0.00  0.00    +0.000 C 
BRANCH  20  21
ATOM     21  C   UNL     1       1.934   5.716  19.776  0.00  0.00    +0.000 A 
ATOM     22  C   UNL     1       2.280   5.642  18.427  0.00  0.00    +0.000 A 
ATOM     23  C   UNL     1       2.005   4.474  17.723  0.00  0.00    +0.000 A 
ATOM     24  C   UNL     1       1.395   3.415  18.378  0.00  0.00    +0.000 A 
ATOM     25  C   UNL     1       1.088   3.565  19.720  0.00  0.00    +0.000 A 
ATOM     26  N   UNL     1       1.347   4.683  20.434  0.00  0.00    +0.000 NA
ENDBRANCH  20  21
ENDBRANCH  18  20
ENDBRANCH   4  16
BRANCH   1  27
ATOM     27  C   UNL     1       0.662  13.994  20.292  0.00  0.00    +0.000 C 
BRANCH  27  33
ATOM     28  C   UNL     1       2.301  17.526  17.096  0.00  0.00    +0.000 C 
ATOM     29  C   UNL     1       2.530  16.229  17.814  0.00  0.00    +0.000 A 
ATOM     30  C   UNL     1       3.675  15.464  17.570  0.00  0.00    +0.000 A 
ATOM     31  C   UNL     1       3.857  14.244  18.221  0.00  0.00    +0.000 A 
ATOM     32  C   UNL     1       2.896  13.776  19.116  0.00  0.00    +0.000 A 
ATOM     33  C   UNL     1       1.744  14.531  19.379  0.00  0.00    +0.000 A 
ATOM     34  C   UNL     1       1.571  15.759  18.722  0.00  0.00    +0.000 A 
ENDBRANCH  27  33
ENDBRANCH   1  27
TORSDOF 6
ENDMDL
MODEL 5
REMARK VINA RESULT:      -8.0      2.941      5.547
REMARK  Name = 
REMARK  7 active torsions:
REMARK  status: ('A' for Active; 'I' for Inactive)
REMARK    1  A    between atoms: C_1  and  C_2
REMARK    2  A    between atoms: C_6  and  C_7
REMARK    3  A    between atoms: C_7  and  N_8
REMARK    4  A    between atoms: C_11  and  C_12
REMARK    5  A    between atoms: N_14  and  C_15
REMARK    6  A    between atoms: C_15  and  C_16
REMARK    7  A    between atoms: N_23  and  C_24
REMARK                            x       y       z     vdW  Elec       q    Type
REMARK                         _______ _______ _______ _____ _____    ______ ____
ROOT
ATOM      1  N   UNL     1       0.443  11.358  21.137  0.00  0.00    +0.000 N 
ATOM      2  C   UNL     1       0.598  10.208  20.404  0.00  0.00    +0.000 A 
ATOM      3  O   UNL     1       0.211   9.103  20.763  0.00  0.00    +0.000 OA
ATOM      4  C   UNL     1       1.351  10.354  19.108  0.00  0.00    +0.000 A 
ATOM      5  N   UNL     1       1.823  11.503  18.711  0.00  0.00    +0.000 NA
ATOM      6  N   UNL     1       1.625  12.619  19.516  0.00  0.00    +0.000 N 
ATOM      7  C   UNL     1       1.046  12.557  20.800  0.00  0.00    +0.000 A 
ATOM      8  O   UNL     1       1.078  13.474  21.622  0.00  0.00    +0.000 OA
ENDROOT
BRANCH   6   9
ATOM      9  C   UNL     1       2.116  13.858  18.962  0.00  0.00    +0.000 A 
ATOM     10  C   UNL     1       3.417  13.977  18.437  0.00  0.00    +0.000 A 
ATOM     11  C   UNL     1       3.878  15.160  17.847  0.00  0.00    +0.000 A 
ATOM     12  C   UNL     1       3.047  16.268  17.792  0.00  0.00    +0.000 A 
ATOM     13  C   UNL     1       1.777  16.185  18.347  0.00  0.00    +0.000 A 
ATOM     14  F   UNL     1       0.977  17.259  18.305  0.00  0.00    +0.000 F 
ATOM     15  C   UNL     1       1.311  15.007  18.936  0.00  0.00    +0.000 A 
ENDBRANCH   6   9
BRANCH   4  16
ATOM     16  C   UNL     1       1.600   9.131  18.228  0.00  0.00    +0.000 C 
ATOM     17  O   UNL     1       1.025   9.018  17.155  0.00  0.00    +0.000 OA
ATOM     18  N   UNL     1       2.474   8.195  18.732  0.00  0.00    +0.000 N 
ATOM     19  H   UNL     1       3.098   8.462  19.485  0.00  0.00    +0.000 HD
BRANCH  18  20
ATOM     20  C   UNL     1       2.730   6.959  18.019  0.00  0.00    +0.000 C 
BRANCH  20  21
ATOM     21  C   UNL     1       2.172   5.742  18.718  0.00  0.00    +0.000 A 
ATOM     22  C   UNL     1       1.811   4.610  17.989  0.00  0.00    +0.000 A 
ATOM     23  C   UNL     1       1.307   3.504  18.665  0.00  0.00    +0.000 A 
ATOM     24  C   UNL     1       1.176   3.554  20.046  0.00  0.00    +0.000 A 
ATOM     25  C   UNL     1       1.562   4.714  20.697  0.00  0.00    +0.000 A 
ATOM     26  N   UNL     1       2.061   5.802  20.071  0.00  0.00    +0.000 NA
ENDBRANCH  20  21
ENDBRANCH  18  20
ENDBRANCH   4  16
BRANCH   1  27
ATOM     27  C   UNL     1      -0.332  11.299  22.367  0.00  0.00    +0.000 C 
BRANCH  27  33
ATOM     28  C   UNL     1      -4.764  12.766  24.261  0.00  0.00    +0.000 C 
ATOM     29  C   UNL     1      -3.852  12.615  23.080  0.00  0.00    +0.000 A 
ATOM     30  C   UNL     1      -4.283  12.944  21.790  0.00  0.00    +0.000 A 
ATOM     31  C   UNL     1      -3.434  12.766  20.698  0.00  0.00    +0.000 A 
ATOM     32  C   UNL     1      -2.151  12.254  20.884  0.00  0.00    +0.000 A 
ATOM     33  C   UNL     1      -1.698  11.924  22.169  0.00  0.00    +0.000 A 
ATOM     34  C   UNL     1      -2.557  12.110  23.262  0.00  0.00    +0.000 A 
ENDBRANCH  27  33
ENDBRANCH   1  27
TORSDOF 6
ENDMDL
MODEL 6
REMARK VINA RESULT:      -7.9      1.928      3.364
REMARK  Name = 
REMARK  7 active torsions:
REMARK  status: ('A' for Active; 'I' for Inactive)
REMARK    1  A    between atoms: C_1  and  C_2
REMARK    2  A    between atoms: C_6  and  C_7
REMARK    3  A    between atoms: C_7  and  N_8
REMARK    4  A    between atoms: C_11  and  C_12
REMARK    5  A    between atoms: N_14  and  C_15
REMARK    6  A    between atoms: C_15  and  C_16
REMARK    7  A    between atoms: N_23  and  C_24
REMARK                            x       y       z     vdW  Elec       q    Type
REMARK                         _______ _______ _______ _____ _____    ______ ____
ROOT
ATOM      1  N   UNL     1       0.226  12.201  20.397  0.00  0.00    +0.000 N 
ATOM      2  C   UNL     1       0.755  11.030  20.879  0.00  0.00    +0.000 A 
ATOM      3  O   UNL     1       1.632  10.970  21.731  0.00  0.00    +0.000 OA
ATOM      4  C   UNL     1       0.236   9.766  20.246  0.00  0.00    +0.000 A 
ATOM      5  N   UNL     1      -0.663   9.789  19.301  0.00  0.00    +0.000 NA
ATOM      6  N   UNL     1      -1.144  11.018  18.867  0.00  0.00    +0.000 N 
ATOM      7  C   UNL     1      -0.629  12.254  19.309  0.00  0.00    +0.000 A 
ATOM      8  O   UNL     1      -0.864  13.337  18.772  0.00  0.00    +0.000 OA
ENDROOT
BRANCH   6   9
ATOM      9  C   UNL     1      -2.188  10.941  17.873  0.00  0.00    +0.000 A 
ATOM     10  C   UNL     1      -3.479  11.456  18.105  0.00  0.00    +0.000 A 
ATOM     11  C   UNL     1      -4.477  11.437  17.124  0.00  0.00    +0.000 A 
ATOM     12  C   UNL     1      -4.210  10.873  15.885  0.00  0.00    +0.000 A 
ATOM     13  C   UNL     1      -2.959  10.318  15.653  0.00  0.00    +0.000 A 
ATOM     14  F   UNL     1      -2.704   9.763  14.461  0.00  0.00    +0.000 F 
ATOM     15  C   UNL     1      -1.958  10.336  16.628  0.00  0.00    +0.000 A 
ENDBRANCH   6   9
BRANCH   4  16
ATOM     16  C   UNL     1       0.777   8.410  20.693  0.00  0.00    +0.000 C 
ATOM     17  O   UNL     1       0.232   7.798  21.599  0.00  0.00    +0.000 OA
ATOM     18  N   UNL     1       1.898   7.963  20.030  0.00  0.00    +0.000 N 
ATOM     19  H   UNL     1       2.142   8.382  19.140  0.00  0.00    +0.000 HD
BRANCH  18  20
ATOM     20  C   UNL     1       2.544   6.724  20.419  0.00  0.00    +0.000 C 
BRANCH  20  21
ATOM     21  C   UNL     1       2.002   5.517  19.690  0.00  0.00    +0.000 A 
ATOM     22  C   UNL     1       2.191   5.377  18.315  0.00  0.00    +0.000 A 
ATOM     23  C   UNL     1       1.684   4.250  17.676  0.00  0.00    +0.000 A 
ATOM     24  C   UNL     1       1.006   3.296  18.420  0.00  0.00    +0.000 A 
ATOM     25  C   UNL     1       0.865   3.506  19.782  0.00  0.00    +0.000 A 
ATOM     26  N   UNL     1       1.351   4.586  20.434  0.00  0.00    +0.000 NA
ENDBRANCH  20  21
ENDBRANCH  18  20
ENDBRANCH   4  16
BRANCH   1  27
ATOM     27  C   UNL     1       0.635  13.455  21.011  0.00  0.00    +0.000 C 
BRANCH  27  33
ATOM     28  C   UNL     1      -3.463  12.472  23.771  0.00  0.00    +0.000 C 
ATOM     29  C   UNL     1      -2.310  13.376  23.449  0.00  0.00    +0.000 A 
ATOM     30  C   UNL     1      -2.164  14.611  24.089  0.00  0.00    +0.000 A 
ATOM     31  C   UNL     1      -1.105  15.455  23.755  0.00  0.00    +0.000 A 
ATOM     32  C   UNL     1      -0.188  15.076  22.776  0.00  0.00    +0.000 A 
ATOM     33  C   UNL     1      -0.314  13.839  22.127  0.00  0.00    +0.000 A 
ATOM     34  C   UNL     1      -1.380  12.995  22.472  0.00  0.00    +0.000 A 
ENDBRANCH  27  33
ENDBRANCH   1  27
TORSDOF 6
ENDMDL
MODEL 7
REMARK VINA RESULT:      -7.9      2.235      3.608
REMARK  Name = 
REMARK  7 active torsions:
REMARK  status: ('A' for Active; 'I' for Inactive)
REMARK    1  A    between atoms: C_1  and  C_2
REMARK    2  A    between atoms: C_6  and  C_7
REMARK    3  A    between atoms: C_7  and  N_8
REMARK    4  A    between atoms: C_11  and  C_12
REMARK    5  A    between atoms: N_14  and  C_15
REMARK    6  A    between atoms: C_15  and  C_16
REMARK    7  A    between atoms: N_23  and  C_24
REMARK                            x       y       z     vdW  Elec       q    Type
REMARK                         _______ _______ _______ _____ _____    ______ ____
ROOT
ATOM      1  N   UNL     1      -0.085  12.246  20.418  0.00  0.00    +0.000 N 
ATOM      2  C   UNL     1       0.644  11.158  20.832  0.00  0.00    +0.000 A 
ATOM      3  O   UNL     1       1.476  11.187  21.730  0.00  0.00    +0.000 OA
ATOM      4  C   UNL     1       0.414   9.884  20.062  0.00  0.00    +0.000 A 
ATOM      5  N   UNL     1      -0.427   9.823  19.068  0.00  0.00    +0.000 NA
ATOM      6  N   UNL     1      -1.123  10.971  18.711  0.00  0.00    +0.000 N 
ATOM      7  C   UNL     1      -0.883  12.235  19.287  0.00  0.00    +0.000 A 
ATOM      8  O   UNL     1      -1.303  13.299  18.830  0.00  0.00    +0.000 OA
ENDROOT
BRANCH   6   9
ATOM      9  C   UNL     1      -2.084  10.790  17.649  0.00  0.00    +0.000 A 
ATOM     10  C   UNL     1      -1.853   9.908  16.575  0.00  0.00    +0.000 A 
ATOM     11  C   UNL     1      -2.805   9.686  15.574  0.00  0.00    +0.000 A 
ATOM     12  C   UNL     1      -4.013  10.367  15.613  0.00  0.00    +0.000 A 
ATOM     13  C   UNL     1      -4.241  11.276  16.638  0.00  0.00    +0.000 A 
ATOM     14  F   UNL     1      -5.402  11.942  16.670  0.00  0.00    +0.000 F 
ATOM     15  C   UNL     1      -3.294  11.501  17.640  0.00  0.00    +0.000 A 
ENDBRANCH   6   9
BRANCH   4  16
ATOM     16  C   UNL     1       1.192   8.622  20.427  0.00  0.00    +0.000 C 
ATOM     17  O   UNL     1       1.112   8.152  21.552  0.00  0.00    +0.000 OA
ATOM     18  N   UNL     1       1.976   8.090  19.427  0.00  0.00    +0.000 N 
ATOM     19  H   UNL     1       1.804   8.368  18.468  0.00  0.00    +0.000 HD
BRANCH  18  20
ATOM     20  C   UNL     1       2.817   6.935  19.679  0.00  0.00    +0.000 C 
BRANCH  20  21
ATOM     21  C   UNL     1       2.137   5.625  19.363  0.00  0.00    +0.000 A 
ATOM     22  C   UNL     1       1.559   4.864  20.380  0.00  0.00    +0.000 A 
ATOM     23  C   UNL     1       0.934   3.665  20.053  0.00  0.00    +0.000 A 
ATOM     24  C   UNL     1       0.902   3.256  18.728  0.00  0.00    +0.000 A 
ATOM     25  C   UNL     1       1.494   4.070  17.777  0.00  0.00    +0.000 A 
ATOM     26  N   UNL     1       2.102   5.243  18.060  0.00  0.00    +0.000 NA
ENDBRANCH  20  21
ENDBRANCH  18  20
ENDBRANCH   4  16
BRANCH   1  27
ATOM     27  C   UNL     1       0.040  13.490  21.161  0.00  0.00    +0.000 C 
BRANCH  27  33
ATOM     28  C   UNL     1      -1.667  15.441  25.480  0.00  0.00    +0.000 C 
ATOM     29  C   UNL     1      -1.869  14.529  24.307  0.00  0.00    +0.000 A 
ATOM     30  C   UNL     1      -2.997  13.706  24.222  0.00  0.00    +0.000 A 
ATOM     31  C   UNL     1      -3.155  12.838  23.141  0.00  0.00    +0.000 A 
ATOM     32  C   UNL     1      -2.185  12.781  22.141  0.00  0.00    +0.000 A 
ATOM     33  C   UNL     1      -1.050  13.602  22.205  0.00  0.00    +0.000 A 
ATOM     34  C   UNL     1      -0.902  14.474  23.293  0.00  0.00    +0.000 A 
ENDBRANCH  27  33
ENDBRANCH   1  27
TORSDOF 6
ENDMDL
MODEL 8
REMARK VINA RESULT:      -7.9      1.181      1.529
REMARK  Name = 
REMARK  7 active torsions:
REMARK  status: ('A' for Active; 'I' for Inactive)
REMARK    1  A    between atoms: C_1  and  C_2
REMARK    2  A    between atoms: C_6  and  C_7
REMARK    3  A    between atoms: C_7  and  N_8
REMARK    4  A    between atoms: C_11  and  C_12
REMARK    5  A    between atoms: N_14  and  C_15
REMARK    6  A    between atoms: C_15  and  C_16
REMARK    7  A    between atoms: N_23  and  C_24
REMARK                            x       y       z     vdW  Elec       q    Type
REMARK                         _______ _______ _______ _____ _____    ______ ____
ROOT
ATOM      1  N   UNL     1       0.328  12.660  20.001  0.00  0.00    +0.000 N 
ATOM      2  C   UNL     1       0.852  11.529  20.576  0.00  0.00    +0.000 A 
ATOM      3  O   UNL     1       1.769  11.528  21.387  0.00  0.00    +0.000 OA
ATOM      4  C   UNL     1       0.268  10.224  20.102  0.00  0.00    +0.000 A 
ATOM      5  N   UNL     1      -0.677  10.178  19.204  0.00  0.00    +0.000 NA
ATOM      6  N   UNL     1      -1.148  11.370  18.670  0.00  0.00    +0.000 N 
ATOM      7  C   UNL     1      -0.579  12.628  18.957  0.00  0.00    +0.000 A 
ATOM      8  O   UNL     1      -0.813  13.658  18.323  0.00  0.00    +0.000 OA
ENDROOT
BRANCH   6   9
ATOM      9  C   UNL     1      -2.243  11.226  17.740  0.00  0.00    +0.000 A 
ATOM     10  C   UNL     1      -3.564  11.575  18.083  0.00  0.00    +0.000 A 
ATOM     11  C   UNL     1      -4.619  11.491  17.167  0.00  0.00    +0.000 A 
ATOM     12  C   UNL     1      -4.377  11.027  15.883  0.00  0.00    +0.000 A 
ATOM     13  C   UNL     1      -3.091  10.634  15.540  0.00  0.00    +0.000 A 
ATOM     14  F   UNL     1      -2.858  10.175  14.304  0.00  0.00    +0.000 F 
ATOM     15  C   UNL     1      -2.034  10.716  16.450  0.00  0.00    +0.000 A 
ENDBRANCH   6   9
BRANCH   4  16
ATOM     16  C   UNL     1       0.796   8.904  20.660  0.00  0.00    +0.000 C 
ATOM     17  O   UNL     1       0.541   8.575  21.809  0.00  0.00    +0.000 OA
ATOM     18  N   UNL     1       1.570   8.156  19.802  0.00  0.00    +0.000 N 
ATOM     19  H   UNL     1       1.531   8.352  18.808  0.00  0.00    +0.000 HD
BRANCH  18  20
ATOM     20  C   UNL     1       2.187   6.921  20.246  0.00  0.00    +0.000 C 
BRANCH  20  21
ATOM     21  C   UNL     1       3.203   6.379  19.268  0.00  0.00    +0.000 A 
ATOM     22  C   UNL     1       3.357   6.964  18.011  0.00  0.00    +0.000 A 
ATOM     23  C   UNL     1       4.306   6.444  17.137  0.00  0.00    +0.000 A 
ATOM     24  C   UNL     1       5.074   5.359  17.536  0.00  0.00    +0.000 A 
ATOM     25  C   UNL     1       4.863   4.839  18.802  0.00  0.00    +0.000 A 
ATOM     26  N   UNL     1       3.954   5.324  19.677  0.00  0.00    +0.000 NA
ENDBRANCH  20  21
ENDBRANCH  18  20
ENDBRANCH   4  16
BRANCH   1  27
ATOM     27  C   UNL     1       0.801  13.957  20.463  0.00  0.00    +0.000 C 
BRANCH  27  33
ATOM     28  C   UNL     1       2.109  17.588  17.225  0.00  0.00    +0.000 C 
ATOM     29  C   UNL     1       2.425  16.287  17.902  0.00  0.00    +0.000 A 
ATOM     30  C   UNL     1       3.570  15.559  17.564  0.00  0.00    +0.000 A 
ATOM     31  C   UNL     1       3.833  14.334  18.177  0.00  0.00    +0.000 A 
ATOM     32  C   UNL     1       2.951  13.824  19.128  0.00  0.00    +0.000 A 
ATOM     33  C   UNL     1       1.800  14.541  19.485  0.00  0.00    +0.000 A 
ATOM     34  C   UNL     1       1.546  15.774  18.866  0.00  0.00    +0.000 A 
ENDBRANCH  27  33
ENDBRANCH   1  27
TORSDOF 6
ENDMDL
MODEL 9
REMARK VINA RESULT:      -7.8      1.665      2.549
REMARK  Name = 
REMARK  7 active torsions:
REMARK  status: ('A' for Active; 'I' for Inactive)
REMARK    1  A    between atoms: C_1  and  C_2
REMARK    2  A    between atoms: C_6  and  C_7
REMARK    3  A    between atoms: C_7  and  N_8
REMARK    4  A    between atoms: C_11  and  C_12
REMARK    5  A    between atoms: N_14  and  C_15
REMARK    6  A    between atoms: C_15  and  C_16
REMARK    7  A    between atoms: N_23  and  C_24
REMARK                            x       y       z     vdW  Elec       q    Type
REMARK                         _______ _______ _______ _____ _____    ______ ____
ROOT
ATOM      1  N   UNL     1      -0.657  11.337  21.123  0.00  0.00    +0.000 N 
ATOM      2  C   UNL     1       0.396  10.482  20.918  0.00  0.00    +0.000 A 
ATOM      3  O   UNL     1       1.299  10.294  21.723  0.00  0.00    +0.000 OA
ATOM      4  C   UNL     1       0.433   9.797  19.577  0.00  0.00    +0.000 A 
ATOM      5  N   UNL     1      -0.482  10.007  18.672  0.00  0.00    +0.000 NA
ATOM      6  N   UNL     1      -1.514  10.892  18.959  0.00  0.00    +0.000 N 
ATOM      7  C   UNL     1      -1.564  11.672  20.132  0.00  0.00    +0.000 A 
ATOM      8  O   UNL     1      -2.324  12.627  20.301  0.00  0.00    +0.000 OA
ENDROOT
BRANCH   6   9
ATOM      9  C   UNL     1      -2.519  11.004  17.928  0.00  0.00    +0.000 A 
ATOM     10  C   UNL     1      -3.811  11.497  18.197  0.00  0.00    +0.000 A 
ATOM     11  C   UNL     1      -4.771  11.661  17.192  0.00  0.00    +0.000 A 
ATOM     12  C   UNL     1      -4.463  11.309  15.886  0.00  0.00    +0.000 A 
ATOM     13  C   UNL     1      -3.211  10.776  15.609  0.00  0.00    +0.000 A 
ATOM     14  F   UNL     1      -2.918  10.424  14.351  0.00  0.00    +0.000 F 
ATOM     15  C   UNL     1      -2.249  10.611  16.609  0.00  0.00    +0.000 A 
ENDBRANCH   6   9
BRANCH   4  16
ATOM     16  C   UNL     1       1.576   8.843  19.238  0.00  0.00    +0.000 C 
ATOM     17  O   UNL     1       2.298   9.064  18.276  0.00  0.00    +0.000 OA
ATOM     18  N   UNL     1       1.708   7.747  20.060  0.00  0.00    +0.000 N 
ATOM     19  H   UNL     1       1.255   7.757  20.967  0.00  0.00    +0.000 HD
BRANCH  18  20
ATOM     20  C   UNL     1       2.711   6.734  19.791  0.00  0.00    +0.000 C 
BRANCH  20  21
ATOM     21  C   UNL     1       2.121   5.368  19.537  0.00  0.00    +0.000 A 
ATOM     22  C   UNL     1       1.540   4.643  20.577  0.00  0.00    +0.000 A 
ATOM     23  C   UNL     1       1.000   3.390  20.308  0.00  0.00    +0.000 A 
ATOM     24  C   UNL     1       1.054   2.892  19.014  0.00  0.00    +0.000 A 
ATOM     25  C   UNL     1       1.644   3.675  18.035  0.00  0.00    +0.000 A 
ATOM     26  N   UNL     1       2.171   4.899  18.263  0.00  0.00    +0.000 NA
ENDBRANCH  20  21
ENDBRANCH  18  20
ENDBRANCH   4  16
BRANCH   1  27
ATOM     27  C   UNL     1      -0.789  11.980  22.422  0.00  0.00    +0.000 C 
BRANCH  27  33
ATOM     28  C   UNL     1       2.483  15.437  20.774  0.00  0.00    +0.000 C 
ATOM     29  C   UNL     1       1.263  15.094  21.575  0.00  0.00    +0.000 A 
ATOM     30  C   UNL     1       0.608  16.064  22.340  0.00  0.00    +0.000 A 
ATOM     31  C   UNL     1      -0.506  15.723  23.106  0.00  0.00    +0.000 A 
ATOM     32  C   UNL     1      -0.972  14.409  23.119  0.00  0.00    +0.000 A 
ATOM     33  C   UNL     1      -0.333  13.422  22.354  0.00  0.00    +0.000 A 
ATOM     34  C   UNL     1       0.784  13.776  21.583  0.00  0.00    +0.000 A 
ENDBRANCH  27  33
ENDBRANCH   1  27
TORSDOF 6
ENDMDL
