MODEL 1
REMARK VINA RESULT:      -9.0      0.000      0.000
REMARK  Name = 
REMARK  6 active torsions:
REMARK  status: ('A' for Active; 'I' for Inactive)
REMARK    1  A    between atoms: C_1  and  C_2
REMARK    2  A    between atoms: C_5  and  C_6
REMARK    3  A    between atoms: N_8  and  C_9
REMARK    4  A    between atoms: C_9  and  C_10
REMARK    5  A    between atoms: C_16  and  C_17
REMARK    6  A    between atoms: C_29  and  C_30
REMARK                            x       y       z     vdW  Elec       q    Type
REMARK                         _______ _______ _______ _____ _____    ______ ____
ROOT
ATOM      1  C   UNL     1       0.944  10.168  19.834  0.00  0.00    +0.000 C 
ATOM      2  O   UNL     1       1.405  10.941  18.992  0.00  0.00    +0.000 OA
ATOM      3  N   UNL     1       1.197   8.817  19.813  0.00  0.00    +0.000 N 
ATOM      4  H   UNL     1       1.087   8.309  20.682  0.00  0.00    +0.000 HD
ENDROOT
BRANCH   1   9
ATOM      5  C   UNL     1      -0.991  15.483  19.985  0.00  0.00    +0.000 C 
ATOM      6  C   UNL     1      -0.939  14.192  20.723  0.00  0.00    +0.000 A 
ATOM      7  N   UNL     1      -0.208  13.125  20.261  0.00  0.00    +0.000 N 
ATOM      8  C   UNL     1      -0.386  12.012  21.054  0.00  0.00    +0.000 A 
ATOM      9  C   UNL     1       0.102  10.685  20.953  0.00  0.00    +0.000 A 
ATOM     10  C   UNL     1      -0.186   9.818  22.023  0.00  0.00    +0.000 A 
ATOM     11  C   UNL     1      -0.930  10.236  23.125  0.00  0.00    +0.000 A 
ATOM     12  C   UNL     1      -1.429  11.537  23.189  0.00  0.00    +0.000 A 
ATOM     13  C   UNL     1      -1.160  12.445  22.144  0.00  0.00    +0.000 A 
ATOM     14  C   UNL     1      -1.518  13.816  21.922  0.00  0.00    +0.000 A 
ATOM     15  C   UNL     1      -2.348  14.681  22.805  0.00  0.00    +0.000 C 
ATOM     16  H   UNL     1       0.385  13.154  19.441  0.00  0.00    +0.000 HD
ENDBRANCH   1   9
BRANCH   3  17
ATOM     17  C   UNL     1       2.017   8.164  18.786  0.00  0.00    +0.000 C 
BRANCH  17  18
ATOM     18  C   UNL     1       2.862   7.049  19.412  0.00  0.00    +0.000 C 
ATOM     19  C   UNL     1       1.985   5.990  20.085  0.00  0.00    +0.000 C 
ATOM     20  C   UNL     1       2.155   4.864  19.143  0.00  0.00    +0.000 A 
ATOM     21  C   UNL     1       1.447   3.683  19.080  0.00  0.00    +0.000 A 
ATOM     22  C   UNL     1       1.844   2.727  18.146  0.00  0.00    +0.000 A 
ATOM     23  C   UNL     1       2.972   2.954  17.343  0.00  0.00    +0.000 A 
ATOM     24  C   UNL     1       3.709   4.150  17.414  0.00  0.00    +0.000 A 
ATOM     25  C   UNL     1       3.222   5.115  18.299  0.00  0.00    +0.000 A 
ATOM     26  O   UNL     1       3.713   6.394  18.434  0.00  0.00    +0.000 OA
BRANCH  24  27
ATOM     27  C   UNL     1       4.936   4.350  16.633  0.00  0.00    +0.000 A 
ATOM     28  C   UNL     1       4.927   4.401  15.233  0.00  0.00    +0.000 A 
ATOM     29  C   UNL     1       6.110   4.599  14.532  0.00  0.00    +0.000 A 
ATOM     30  C   UNL     1       7.289   4.737  15.250  0.00  0.00    +0.000 A 
ATOM     31  N   UNL     1       7.357   4.672  16.593  0.00  0.00    +0.000 NA
ATOM     32  C   UNL     1       6.186   4.479  17.243  0.00  0.00    +0.000 A 
ENDBRANCH  24  27
ENDBRANCH  17  18
ENDBRANCH   3  17
TORSDOF 4
ENDMDL
MODEL 2
REMARK VINA RESULT:      -9.0      3.584     10.233
REMARK  Name = 
REMARK  6 active torsions:
REMARK  status: ('A' for Active; 'I' for Inactive)
REMARK    1  A    between atoms: C_1  and  C_2
REMARK    2  A    between atoms: C_5  and  C_6
REMARK    3  A    between atoms: N_8  and  C_9
REMARK    4  A    between atoms: C_9  and  C_10
REMARK    5  A    between atoms: C_16  and  C_17
REMARK    6  A    between atoms: C_29  and  C_30
REMARK                            x       y       z     vdW  Elec       q    Type
REMARK                         _______ _______ _______ _____ _____    ______ ____
ROOT
ATOM      1  C   UNL     1       1.101   8.698  20.611  0.00  0.00    +0.000 C 
ATOM      2  O   UNL     1       1.227   8.560  21.830  0.00  0.00    +0.000 OA
ATOM      3  N   UNL     1       0.274   9.647  20.058  0.00  0.00    +0.000 N 
ATOM      4  H   UNL     1       0.465   9.933  19.106  0.00  0.00    +0.000 HD
ENDROOT
BRANCH   1   9
ATOM      5  C   UNL     1       2.247   3.259  21.673  0.00  0.00    +0.000 C 
ATOM      6  C   UNL     1       2.454   4.375  20.710  0.00  0.00    +0.000 A 
ATOM      7  N   UNL     1       1.998   5.645  20.967  0.00  0.00    +0.000 N 
ATOM      8  C   UNL     1       2.220   6.484  19.897  0.00  0.00    +0.000 A 
ATOM      9  C   UNL     1       1.881   7.842  19.669  0.00  0.00    +0.000 A 
ATOM     10  C   UNL     1       2.376   8.432  18.491  0.00  0.00    +0.000 A 
ATOM     11  C   UNL     1       3.149   7.714  17.581  0.00  0.00    +0.000 A 
ATOM     12  C   UNL     1       3.442   6.369  17.808  0.00  0.00    +0.000 A 
ATOM     13  C   UNL     1       2.975   5.736  18.979  0.00  0.00    +0.000 A 
ATOM     14  C   UNL     1       3.107   4.402  19.490  0.00  0.00    +0.000 A 
ATOM     15  C   UNL     1       3.811   3.260  18.846  0.00  0.00    +0.000 C 
ATOM     16  H   UNL     1       1.555   5.926  21.833  0.00  0.00    +0.000 HD
ENDBRANCH   1   9
BRANCH   3  17
ATOM     17  C   UNL     1      -0.545  10.568  20.853  0.00  0.00    +0.000 C 
BRANCH  17  18
ATOM     18  C   UNL     1      -1.000  11.752  19.991  0.00  0.00    +0.000 C 
ATOM     19  C   UNL     1      -0.661  11.534  18.515  0.00  0.00    +0.000 C 
ATOM     20  C   UNL     1      -2.010  11.297  17.962  0.00  0.00    +0.000 A 
ATOM     21  C   UNL     1      -2.356  10.828  16.713  0.00  0.00    +0.000 A 
ATOM     22  C   UNL     1      -3.710  10.761  16.387  0.00  0.00    +0.000 A 
ATOM     23  C   UNL     1      -4.676  11.219  17.296  0.00  0.00    +0.000 A 
ATOM     24  C   UNL     1      -4.329  11.714  18.566  0.00  0.00    +0.000 A 
ATOM     25  C   UNL     1      -2.969  11.678  18.884  0.00  0.00    +0.000 A 
ATOM     26  O   UNL     1      -2.428  11.996  20.109  0.00  0.00    +0.000 OA
BRANCH  24  27
ATOM     27  C   UNL     1      -5.334  12.268  19.482  0.00  0.00    +0.000 A 
ATOM     28  C   UNL     1      -6.386  11.494  19.990  0.00  0.00    +0.000 A 
ATOM     29  C   UNL     1      -7.312  12.056  20.859  0.00  0.00    +0.000 A 
ATOM     30  C   UNL     1      -7.171  13.393  21.201  0.00  0.00    +0.000 A 
ATOM     31  N   UNL     1      -6.194  14.187  20.724  0.00  0.00    +0.000 NA
ATOM     32  C   UNL     1      -5.310  13.607  19.880  0.00  0.00    +0.000 A 
ENDBRANCH  24  27
ENDBRANCH  17  18
ENDBRANCH   3  17
TORSDOF 4
ENDMDL
MODEL 3
REMARK VINA RESULT:      -8.9      2.064      2.234
REMARK  Name = 
REMARK  6 active torsions:
REMARK  status: ('A' for Active; 'I' for Inactive)
REMARK    1  A    between atoms: C_1  and  C_2
REMARK    2  A    between atoms: C_5  and  C_6
REMARK    3  A    between atoms: N_8  and  C_9
REMARK    4  A    between atoms: C_9  and  C_10
REMARK    5  A    between atoms: C_16  and  C_17
REMARK    6  A    between atoms: C_29  and  C_30
REMARK                            x       y       z     vdW  Elec       q    Type
REMARK                         _______ _______ _______ _____ _____    ______ ____
ROOT
ATOM      1  C   UNL     1      -0.079  10.038  18.369  0.00  0.00    +0.000 C 
ATOM      2  O   UNL     1      -0.737   9.694  17.385  0.00  0.00    +0.000 OA
ATOM      3  N   UNL     1       1.210   9.608  18.582  0.00  0.00    +0.000 N 
ATOM      4  H   UNL     1       1.793  10.168  19.190  0.00  0.00    +0.000 HD
ENDROOT
BRANCH   1   9
ATOM      5  C   UNL     1      -5.408  11.917  18.070  0.00  0.00    +0.000 C 
ATOM      6  C   UNL     1      -4.133  12.005  18.834  0.00  0.00    +0.000 A 
ATOM      7  N   UNL     1      -2.997  11.355  18.420  0.00  0.00    +0.000 N 
ATOM      8  C   UNL     1      -1.973  11.503  19.331  0.00  0.00    +0.000 A 
ATOM      9  C   UNL     1      -0.656  10.980  19.373  0.00  0.00    +0.000 A 
ATOM     10  C   UNL     1       0.178  11.441  20.409  0.00  0.00    +0.000 A 
ATOM     11  C   UNL     1      -0.271  12.354  21.360  0.00  0.00    +0.000 A 
ATOM     12  C   UNL     1      -1.582  12.830  21.320  0.00  0.00    +0.000 A 
ATOM     13  C   UNL     1      -2.453  12.404  20.296  0.00  0.00    +0.000 A 
ATOM     14  C   UNL     1      -3.821  12.706  19.986  0.00  0.00    +0.000 A 
ATOM     15  C   UNL     1      -4.737  13.600  20.745  0.00  0.00    +0.000 C 
ATOM     16  H   UNL     1      -2.922  10.834  17.555  0.00  0.00    +0.000 HD
ENDBRANCH   1   9
BRANCH   3  17
ATOM     17  C   UNL     1       1.915   8.691  17.680  0.00  0.00    +0.000 C 
BRANCH  17  18
ATOM     18  C   UNL     1       2.918   7.839  18.467  0.00  0.00    +0.000 C 
ATOM     19  C   UNL     1       2.208   6.895  19.441  0.00  0.00    +0.000 C 
ATOM     20  C   UNL     1       2.438   5.598  18.772  0.00  0.00    +0.000 A 
ATOM     21  C   UNL     1       1.862   4.377  19.046  0.00  0.00    +0.000 A 
ATOM     22  C   UNL     1       2.299   3.266  18.326  0.00  0.00    +0.000 A 
ATOM     23  C   UNL     1       3.340   3.397  17.394  0.00  0.00    +0.000 A 
ATOM     24  C   UNL     1       3.944   4.638  17.121  0.00  0.00    +0.000 A 
ATOM     25  C   UNL     1       3.413   5.737  17.800  0.00  0.00    +0.000 A 
ATOM     26  O   UNL     1       3.769   7.051  17.593  0.00  0.00    +0.000 OA
BRANCH  24  27
ATOM     27  C   UNL     1       5.087   4.758  16.207  0.00  0.00    +0.000 A 
ATOM     28  C   UNL     1       5.075   4.199  14.922  0.00  0.00    +0.000 A 
ATOM     29  C   UNL     1       6.176   4.341  14.087  0.00  0.00    +0.000 A 
ATOM     30  C   UNL     1       7.278   5.039  14.558  0.00  0.00    +0.000 A 
ATOM     31  N   UNL     1       7.351   5.575  15.792  0.00  0.00    +0.000 NA
ATOM     32  C   UNL     1       6.262   5.417  16.578  0.00  0.00    +0.000 A 
ENDBRANCH  24  27
ENDBRANCH  17  18
ENDBRANCH   3  17
TORSDOF 4
ENDMDL
MODEL 4
REMARK VINA RESULT:      -8.8      0.993      1.063
REMARK  Name = 
REMARK  6 active torsions:
REMARK  status: ('A' for Active; 'I' for Inactive)
REMARK    1  A    between atoms: C_1  and  C_2
REMARK    2  A    between atoms: C_5  and  C_6
REMARK    3  A    between atoms: N_8  and  C_9
REMARK    4  A    between atoms: C_9  and  C_10
REMARK    5  A    between atoms: C_16  and  C_17
REMARK    6  A    between atoms: C_29  and  C_30
REMARK                            x       y       z     vdW  Elec       q    Type
REMARK                         _______ _______ _______ _____ _____    ______ ____
ROOT
ATOM      1  C   UNL     1       1.177   9.597  19.459  0.00  0.00    +0.000 C 
ATOM      2  O   UNL     1       1.356  10.400  18.540  0.00  0.00    +0.000 OA
ATOM      3  N   UNL     1       1.658   8.310  19.418  0.00  0.00    +0.000 N 
ATOM      4  H   UNL     1       1.777   7.829  20.301  0.00  0.00    +0.000 HD
ENDROOT
BRANCH   1   9
ATOM      5  C   UNL     1      -0.002  15.006  20.631  0.00  0.00    +0.000 C 
ATOM      6  C   UNL     1      -0.110  13.607  21.128  0.00  0.00    +0.000 A 
ATOM      7  N   UNL     1       0.455  12.554  20.451  0.00  0.00    +0.000 N 
ATOM      8  C   UNL     1       0.145  11.350  21.046  0.00  0.00    +0.000 A 
ATOM      9  C   UNL     1       0.442  10.010  20.690  0.00  0.00    +0.000 A 
ATOM     10  C   UNL     1       0.065   9.011  21.606  0.00  0.00    +0.000 A 
ATOM     11  C   UNL     1      -0.586   9.317  22.799  0.00  0.00    +0.000 A 
ATOM     12  C   UNL     1      -0.899  10.640  23.114  0.00  0.00    +0.000 A 
ATOM     13  C   UNL     1      -0.534  11.678  22.231  0.00  0.00    +0.000 A 
ATOM     14  C   UNL     1      -0.705  13.102  22.271  0.00  0.00    +0.000 A 
ATOM     15  C   UNL     1      -1.385  13.895  23.331  0.00  0.00    +0.000 C 
ATOM     16  H   UNL     1       1.025  12.652  19.621  0.00  0.00    +0.000 HD
ENDBRANCH   1   9
BRANCH   3  17
ATOM     17  C   UNL     1       2.409   7.763  18.283  0.00  0.00    +0.000 C 
BRANCH  17  18
ATOM     18  C   UNL     1       3.522   6.833  18.781  0.00  0.00    +0.000 C 
ATOM     19  C   UNL     1       2.963   5.707  19.655  0.00  0.00    +0.000 C 
ATOM     20  C   UNL     1       3.134   4.554  18.747  0.00  0.00    +0.000 A 
ATOM     21  C   UNL     1       2.624   3.280  18.872  0.00  0.00    +0.000 A 
ATOM     22  C   UNL     1       2.989   2.329  17.921  0.00  0.00    +0.000 A 
ATOM     23  C   UNL     1       3.900   2.662  16.907  0.00  0.00    +0.000 A 
ATOM     24  C   UNL     1       4.437   3.956  16.783  0.00  0.00    +0.000 A 
ATOM     25  C   UNL     1       3.974   4.899  17.703  0.00  0.00    +0.000 A 
ATOM     26  O   UNL     1       4.272   6.243  17.686  0.00  0.00    +0.000 OA
BRANCH  24  27
ATOM     27  C   UNL     1       5.452   4.278  15.772  0.00  0.00    +0.000 A 
ATOM     28  C   UNL     1       5.320   3.887  14.433  0.00  0.00    +0.000 A 
ATOM     29  C   UNL     1       6.301   4.219  13.507  0.00  0.00    +0.000 A 
ATOM     30  C   UNL     1       7.405   4.936  13.942  0.00  0.00    +0.000 A 
ATOM     31  N   UNL     1       7.593   5.317  15.220  0.00  0.00    +0.000 NA
ATOM     32  C   UNL     1       6.618   4.976  16.094  0.00  0.00    +0.000 A 
ENDBRANCH  24  27
ENDBRANCH  17  18
ENDBRANCH   3  17
TORSDOF 4
ENDMDL
MODEL 5
REMARK VINA RESULT:      -8.8      2.386      9.240
REMARK  Name = 
REMARK  6 active torsions:
REMARK  status: ('A' for Active; 'I' for Inactive)
REMARK    1  A    between atoms: C_1  and  C_2
REMARK    2  A    between atoms: C_5  and  C_6
REMARK    3  A    between atoms: N_8  and  C_9
REMARK    4  A    between atoms: C_9  and  C_10
REMARK    5  A    between atoms: C_16  and  C_17
REMARK    6  A    between atoms: C_29  and  C_30
REMARK                            x       y       z     vdW  Elec       q    Type
REMARK                         _______ _______ _______ _____ _____    ______ ____
ROOT
ATOM      1  C   UNL     1       2.261   7.529  19.299  0.00  0.00    +0.000 C 
ATOM      2  O   UNL     1       2.294   8.592  18.676  0.00  0.00    +0.000 OA
ATOM      3  N   UNL     1       1.955   7.469  20.639  0.00  0.00    +0.000 N 
ATOM      4  H   UNL     1       1.617   6.586  21.000  0.00  0.00    +0.000 HD
ENDROOT
BRANCH   1   9
ATOM      5  C   UNL     1       7.139   6.449  16.644  0.00  0.00    +0.000 C 
ATOM      6  C   UNL     1       5.789   5.909  16.965  0.00  0.00    +0.000 A 
ATOM      7  N   UNL     1       4.852   6.659  17.633  0.00  0.00    +0.000 N 
ATOM      8  C   UNL     1       3.718   5.923  17.901  0.00  0.00    +0.000 A 
ATOM      9  C   UNL     1       2.527   6.236  18.604  0.00  0.00    +0.000 A 
ATOM     10  C   UNL     1       1.505   5.269  18.584  0.00  0.00    +0.000 A 
ATOM     11  C   UNL     1       1.658   4.054  17.920  0.00  0.00    +0.000 A 
ATOM     12  C   UNL     1       2.851   3.753  17.263  0.00  0.00    +0.000 A 
ATOM     13  C   UNL     1       3.903   4.693  17.249  0.00  0.00    +0.000 A 
ATOM     14  C   UNL     1       5.216   4.684  16.672  0.00  0.00    +0.000 A 
ATOM     15  C   UNL     1       5.851   3.580  15.903  0.00  0.00    +0.000 C 
ATOM     16  H   UNL     1       4.980   7.629  17.894  0.00  0.00    +0.000 HD
ENDBRANCH   1   9
BRANCH   3  17
ATOM     17  C   UNL     1       1.658   8.652  21.454  0.00  0.00    +0.000 C 
BRANCH  17  18
ATOM     18  C   UNL     1       0.146   8.771  21.684  0.00  0.00    +0.000 C 
ATOM     19  C   UNL     1      -0.169   9.641  22.904  0.00  0.00    +0.000 C 
ATOM     20  C   UNL     1      -0.710  10.845  22.240  0.00  0.00    +0.000 A 
ATOM     21  C   UNL     1      -0.979  12.081  22.789  0.00  0.00    +0.000 A 
ATOM     22  C   UNL     1      -1.567  13.048  21.976  0.00  0.00    +0.000 A 
ATOM     23  C   UNL     1      -1.924  12.735  20.655  0.00  0.00    +0.000 A 
ATOM     24  C   UNL     1      -1.668  11.471  20.094  0.00  0.00    +0.000 A 
ATOM     25  C   UNL     1      -0.996  10.563  20.916  0.00  0.00    +0.000 A 
ATOM     26  O   UNL     1      -0.540   9.323  20.529  0.00  0.00    +0.000 OA
BRANCH  24  27
ATOM     27  C   UNL     1      -2.117  11.120  18.740  0.00  0.00    +0.000 A 
ATOM     28  C   UNL     1      -1.382  10.264  17.911  0.00  0.00    +0.000 A 
ATOM     29  C   UNL     1      -1.847   9.953  16.639  0.00  0.00    +0.000 A 
ATOM     30  C   UNL     1      -3.043  10.514  16.216  0.00  0.00    +0.000 A 
ATOM     31  N   UNL     1      -3.776  11.361  16.963  0.00  0.00    +0.000 NA
ATOM     32  C   UNL     1      -3.294  11.641  18.196  0.00  0.00    +0.000 A 
ENDBRANCH  24  27
ENDBRANCH  17  18
ENDBRANCH   3  17
TORSDOF 4
ENDMDL
MODEL 6
REMARK VINA RESULT:      -8.7      1.308      2.221
REMARK  Name = 
REMARK  6 active torsions:
REMARK  status: ('A' for Active; 'I' for Inactive)
REMARK    1  A    between atoms: C_1  and  C_2
REMARK    2  A    between atoms: C_5  and  C_6
REMARK    3  A    between atoms: N_8  and  C_9
REMARK    4  A    between atoms: C_9  and  C_10
REMARK    5  A    between atoms: C_16  and  C_17
REMARK    6  A    between atoms: C_29  and  C_30
REMARK                            x       y       z     vdW  Elec       q    Type
REMARK                         _______ _______ _______ _____ _____    ______ ____
ROOT
ATOM      1  C   UNL     1       0.740  10.441  18.567  0.00  0.00    +0.000 C 
ATOM      2  O   UNL     1      -0.342  10.031  18.144  0.00  0.00    +0.000 OA
ATOM      3  N   UNL     1       1.907   9.726  18.426  0.00  0.00    +0.000 N 
ATOM      4  H   UNL     1       2.777  10.240  18.478  0.00  0.00    +0.000 HD
ENDROOT
BRANCH   1   9
ATOM      5  C   UNL     1      -2.137  11.696  23.275  0.00  0.00    +0.000 C 
ATOM      6  C   UNL     1      -1.201  12.231  22.248  0.00  0.00    +0.000 A 
ATOM      7  N   UNL     1      -0.825  11.487  21.157  0.00  0.00    +0.000 N 
ATOM      8  C   UNL     1       0.117  12.149  20.399  0.00  0.00    +0.000 A 
ATOM      9  C   UNL     1       0.835  11.773  19.236  0.00  0.00    +0.000 A 
ATOM     10  C   UNL     1       1.647  12.757  18.643  0.00  0.00    +0.000 A 
ATOM     11  C   UNL     1       1.756  14.038  19.181  0.00  0.00    +0.000 A 
ATOM     12  C   UNL     1       1.067  14.377  20.345  0.00  0.00    +0.000 A 
ATOM     13  C   UNL     1       0.234  13.426  20.971  0.00  0.00    +0.000 A 
ATOM     14  C   UNL     1      -0.588  13.467  22.146  0.00  0.00    +0.000 A 
ATOM     15  C   UNL     1      -0.761  14.613  23.081  0.00  0.00    +0.000 C 
ATOM     16  H   UNL     1      -1.193  10.570  20.939  0.00  0.00    +0.000 HD
ENDBRANCH   1   9
BRANCH   3  17
ATOM     17  C   UNL     1       1.975   8.410  17.781  0.00  0.00    +0.000 C 
BRANCH  17  18
ATOM     18  C   UNL     1       2.888   7.475  18.582  0.00  0.00    +0.000 C 
ATOM     19  C   UNL     1       2.079   6.505  19.447  0.00  0.00    +0.000 C 
ATOM     20  C   UNL     1       2.308   5.241  18.718  0.00  0.00    +0.000 A 
ATOM     21  C   UNL     1       1.671   4.029  18.878  0.00  0.00    +0.000 A 
ATOM     22  C   UNL     1       2.117   2.946  18.123  0.00  0.00    +0.000 A 
ATOM     23  C   UNL     1       3.225   3.089  17.274  0.00  0.00    +0.000 A 
ATOM     24  C   UNL     1       3.891   4.318  17.118  0.00  0.00    +0.000 A 
ATOM     25  C   UNL     1       3.354   5.397  17.825  0.00  0.00    +0.000 A 
ATOM     26  O   UNL     1       3.770   6.704  17.722  0.00  0.00    +0.000 OA
BRANCH  24  27
ATOM     27  C   UNL     1       5.099   4.444  16.293  0.00  0.00    +0.000 A 
ATOM     28  C   UNL     1       5.054   4.386  14.894  0.00  0.00    +0.000 A 
ATOM     29  C   UNL     1       6.221   4.517  14.150  0.00  0.00    +0.000 A 
ATOM     30  C   UNL     1       7.418   4.699  14.826  0.00  0.00    +0.000 A 
ATOM     31  N   UNL     1       7.521   4.738  16.168  0.00  0.00    +0.000 NA
ATOM     32  C   UNL     1       6.365   4.607  16.860  0.00  0.00    +0.000 A 
ENDBRANCH  24  27
ENDBRANCH  17  18
ENDBRANCH   3  17
TORSDOF 4
ENDMDL
MODEL 7
REMARK VINA RESULT:      -8.7      2.430      9.362
REMARK  Name = 
REMARK  6 active torsions:
REMARK  status: ('A' for Active; 'I' for Inactive)
REMARK    1  A    between atoms: C_1  and  C_2
REMARK    2  A    between atoms: C_5  and  C_6
REMARK    3  A    between atoms: N_8  and  C_9
REMARK    4  A    between atoms: C_9  and  C_10
REMARK    5  A    between atoms: C_16  and  C_17
REMARK    6  A    between atoms: C_29  and  C_30
REMARK                            x       y       z     vdW  Elec       q    Type
REMARK                         _______ _______ _______ _____ _____    ______ ____
ROOT
ATOM      1  C   UNL     1       1.865   7.869  20.099  0.00  0.00    +0.000 C 
ATOM      2  O   UNL     1       1.793   8.696  19.188  0.00  0.00    +0.000 OA
ATOM      3  N   UNL     1       1.592   8.187  21.408  0.00  0.00    +0.000 N 
ATOM      4  H   UNL     1       1.340   7.428  22.029  0.00  0.00    +0.000 HD
ENDROOT
BRANCH   1   9
ATOM      5  C   UNL     1       5.248   6.424  15.799  0.00  0.00    +0.000 C 
ATOM      6  C   UNL     1       4.418   5.897  16.917  0.00  0.00    +0.000 A 
ATOM      7  N   UNL     1       3.654   6.726  17.701  0.00  0.00    +0.000 N 
ATOM      8  C   UNL     1       3.050   6.032  18.727  0.00  0.00    +0.000 A 
ATOM      9  C   UNL     1       2.230   6.451  19.805  0.00  0.00    +0.000 A 
ATOM     10  C   UNL     1       1.677   5.441  20.614  0.00  0.00    +0.000 A 
ATOM     11  C   UNL     1       1.933   4.092  20.379  0.00  0.00    +0.000 A 
ATOM     12  C   UNL     1       2.769   3.702  19.333  0.00  0.00    +0.000 A 
ATOM     13  C   UNL     1       3.342   4.678  18.490  0.00  0.00    +0.000 A 
ATOM     14  C   UNL     1       4.217   4.601  17.356  0.00  0.00    +0.000 A 
ATOM     15  C   UNL     1       4.800   3.370  16.755  0.00  0.00    +0.000 C 
ATOM     16  H   UNL     1       3.549   7.721  17.545  0.00  0.00    +0.000 HD
ENDBRANCH   1   9
BRANCH   3  17
ATOM     17  C   UNL     1       1.208   9.532  21.850  0.00  0.00    +0.000 C 
BRANCH  17  18
ATOM     18  C   UNL     1      -0.310   9.613  22.047  0.00  0.00    +0.000 C 
ATOM     19  C   UNL     1      -0.674  10.484  23.252  0.00  0.00    +0.000 C 
ATOM     20  C   UNL     1      -1.233  11.668  22.567  0.00  0.00    +0.000 A 
ATOM     21  C   UNL     1      -1.546  12.900  23.099  0.00  0.00    +0.000 A 
ATOM     22  C   UNL     1      -2.143  13.844  22.265  0.00  0.00    +0.000 A 
ATOM     23  C   UNL     1      -2.463  13.511  20.940  0.00  0.00    +0.000 A 
ATOM     24  C   UNL     1      -2.162  12.249  20.395  0.00  0.00    +0.000 A 
ATOM     25  C   UNL     1      -1.483  11.367  21.239  0.00  0.00    +0.000 A 
ATOM     26  O   UNL     1      -0.987  10.137  20.873  0.00  0.00    +0.000 OA
BRANCH  24  27
ATOM     27  C   UNL     1      -2.572  11.876  19.036  0.00  0.00    +0.000 A 
ATOM     28  C   UNL     1      -3.918  11.704  18.685  0.00  0.00    +0.000 A 
ATOM     29  C   UNL     1      -4.263  11.357  17.384  0.00  0.00    +0.000 A 
ATOM     30  C   UNL     1      -3.248  11.181  16.456  0.00  0.00    +0.000 A 
ATOM     31  N   UNL     1      -1.939  11.310  16.745  0.00  0.00    +0.000 NA
ATOM     32  C   UNL     1      -1.640  11.649  18.021  0.00  0.00    +0.000 A 
ENDBRANCH  24  27
ENDBRANCH  17  18
ENDBRANCH   3  17
TORSDOF 4
ENDMDL
MODEL 8
REMARK VINA RESULT:      -8.7      2.556      9.664
REMARK  Name = 
REMARK  6 active torsions:
REMARK  status: ('A' for Active; 'I' for Inactive)
REMARK    1  A    between atoms: C_1  and  C_2
REMARK    2  A    between atoms: C_5  and  C_6
REMARK    3  A    between atoms: N_8  and  C_9
REMARK    4  A    between atoms: C_9  and  C_10
REMARK    5  A    between atoms: C_16  and  C_17
REMARK    6  A    between atoms: C_29  and  C_30
REMARK                            x       y       z     vdW  Elec       q    Type
REMARK                         _______ _______ _______ _____ _____    ______ ____
ROOT
ATOM      1  C   UNL     1       2.077   6.969  19.910  0.00  0.00    +0.000 C 
ATOM      2  O   UNL     1       2.549   7.592  18.957  0.00  0.00    +0.000 OA
ATOM      3  N   UNL     1       1.441   7.594  20.958  0.00  0.00    +0.000 N 
ATOM      4  H   UNL     1       0.800   7.039  21.511  0.00  0.00    +0.000 HD
ENDROOT
BRANCH   1   9
ATOM      5  C   UNL     1       5.096   3.968  16.184  0.00  0.00    +0.000 C 
ATOM      6  C   UNL     1       4.179   3.878  17.352  0.00  0.00    +0.000 A 
ATOM      7  N   UNL     1       3.597   4.994  17.902  0.00  0.00    +0.000 N 
ATOM      8  C   UNL     1       2.868   4.677  19.027  0.00  0.00    +0.000 A 
ATOM      9  C   UNL     1       2.150   5.479  19.951  0.00  0.00    +0.000 A 
ATOM     10  C   UNL     1       1.407   4.803  20.936  0.00  0.00    +0.000 A 
ATOM     11  C   UNL     1       1.387   3.412  21.015  0.00  0.00    +0.000 A 
ATOM     12  C   UNL     1       2.128   2.643  20.117  0.00  0.00    +0.000 A 
ATOM     13  C   UNL     1       2.883   3.275  19.106  0.00  0.00    +0.000 A 
ATOM     14  C   UNL     1       3.723   2.777  18.056  0.00  0.00    +0.000 A 
ATOM     15  C   UNL     1       4.048   1.353  17.765  0.00  0.00    +0.000 C 
ATOM     16  H   UNL     1       3.694   5.929  17.527  0.00  0.00    +0.000 HD
ENDBRANCH   1   9
BRANCH   3  17
ATOM     17  C   UNL     1       1.279   9.049  21.053  0.00  0.00    +0.000 C 
BRANCH  17  18
ATOM     18  C   UNL     1      -0.151   9.396  21.483  0.00  0.00    +0.000 C 
ATOM     19  C   UNL     1      -0.162  10.407  22.632  0.00  0.00    +0.000 C 
ATOM     20  C   UNL     1      -0.648  11.611  21.925  0.00  0.00    +0.000 A 
ATOM     21  C   UNL     1      -0.673  12.915  22.368  0.00  0.00    +0.000 A 
ATOM     22  C   UNL     1      -1.257  13.878  21.547  0.00  0.00    +0.000 A 
ATOM     23  C   UNL     1      -1.852  13.500  20.333  0.00  0.00    +0.000 A 
ATOM     24  C   UNL     1      -1.844  12.168  19.883  0.00  0.00    +0.000 A 
ATOM     25  C   UNL     1      -1.169  11.253  20.694  0.00  0.00    +0.000 A 
ATOM     26  O   UNL     1      -0.936   9.933  20.384  0.00  0.00    +0.000 OA
BRANCH  24  27
ATOM     27  C   UNL     1      -2.539  11.763  18.653  0.00  0.00    +0.000 A 
ATOM     28  C   UNL     1      -1.846  11.436  17.480  0.00  0.00    +0.000 A 
ATOM     29  C   UNL     1      -2.542  11.052  16.341  0.00  0.00    +0.000 A 
ATOM     30  C   UNL     1      -3.927  11.007  16.396  0.00  0.00    +0.000 A 
ATOM     31  N   UNL     1      -4.643  11.334  17.489  0.00  0.00    +0.000 NA
ATOM     32  C   UNL     1      -3.933  11.704  18.580  0.00  0.00    +0.000 A 
ENDBRANCH  24  27
ENDBRANCH  17  18
ENDBRANCH   3  17
TORSDOF 4
ENDMDL
MODEL 9
REMARK VINA RESULT:      -8.6      1.985      9.856
REMARK  Name = 
REMARK  6 active torsions:
REMARK  status: ('A' for Active; 'I' for Inactive)
REMARK    1  A    between atoms: C_1  and  C_2
REMARK    2  A    between atoms: C_5  and  C_6
REMARK    3  A    between atoms: N_8  and  C_9
REMARK    4  A    between atoms: C_9  and  C_10
REMARK    5  A    between atoms: C_16  and  C_17
REMARK    6  A    between atoms: C_29  and  C_30
REMARK                            x       y       z     vdW  Elec       q    Type
REMARK                         _______ _______ _______ _____ _____    ______ ____
ROOT
ATOM      1  C   UNL     1       2.205   6.267  19.690  0.00  0.00    +0.000 C 
ATOM      2  O   UNL     1       1.888   5.870  20.813  0.00  0.00    +0.000 OA
ATOM      3  N   UNL     1       2.053   7.577  19.300  0.00  0.00    +0.000 N 
ATOM      4  H   UNL     1       2.623   7.902  18.530  0.00  0.00    +0.000 HD
ENDROOT
BRANCH   1   9
ATOM      5  C   UNL     1       7.329   7.095  17.437  0.00  0.00    +0.000 C 
ATOM      6  C   UNL     1       6.132   6.209  17.432  0.00  0.00    +0.000 A 
ATOM      7  N   UNL     1       5.010   6.508  18.167  0.00  0.00    +0.000 N 
ATOM      8  C   UNL     1       4.073   5.501  18.082  0.00  0.00    +0.000 A 
ATOM      9  C   UNL     1       2.807   5.328  18.698  0.00  0.00    +0.000 A 
ATOM     10  C   UNL     1       2.047   4.217  18.287  0.00  0.00    +0.000 A 
ATOM     11  C   UNL     1       2.520   3.317  17.334  0.00  0.00    +0.000 A 
ATOM     12  C   UNL     1       3.782   3.488  16.766  0.00  0.00    +0.000 A 
ATOM     13  C   UNL     1       4.578   4.591  17.139  0.00  0.00    +0.000 A 
ATOM     14  C   UNL     1       5.884   5.035  16.744  0.00  0.00    +0.000 A 
ATOM     15  C   UNL     1       6.803   4.373  15.778  0.00  0.00    +0.000 C 
ATOM     16  H   UNL     1       4.890   7.359  18.701  0.00  0.00    +0.000 HD
ENDBRANCH   1   9
BRANCH   3  17
ATOM     17  C   UNL     1       1.489   8.617  20.166  0.00  0.00    +0.000 C 
BRANCH  17  18
ATOM     18  C   UNL     1       1.316   9.924  19.383  0.00  0.00    +0.000 C 
ATOM     19  C   UNL     1       0.727   9.671  17.993  0.00  0.00    +0.000 C 
ATOM     20  C   UNL     1      -0.632  10.220  18.175  0.00  0.00    +0.000 A 
ATOM     21  C   UNL     1      -1.726  10.098  17.345  0.00  0.00    +0.000 A 
ATOM     22  C   UNL     1      -2.893  10.777  17.690  0.00  0.00    +0.000 A 
ATOM     23  C   UNL     1      -2.916  11.605  18.823  0.00  0.00    +0.000 A 
ATOM     24  C   UNL     1      -1.799  11.747  19.665  0.00  0.00    +0.000 A 
ATOM     25  C   UNL     1      -0.681  10.979  19.331  0.00  0.00    +0.000 A 
ATOM     26  O   UNL     1       0.467  10.873  20.082  0.00  0.00    +0.000 OA
BRANCH  24  27
ATOM     27  C   UNL     1      -1.800  12.678  20.802  0.00  0.00    +0.000 A 
ATOM     28  C   UNL     1      -2.147  12.270  22.097  0.00  0.00    +0.000 A 
ATOM     29  C   UNL     1      -2.128  13.182  23.145  0.00  0.00    +0.000 A 
ATOM     30  C   UNL     1      -1.767  14.493  22.875  0.00  0.00    +0.000 A 
ATOM     31  N   UNL     1      -1.448  14.943  21.646  0.00  0.00    +0.000 NA
ATOM     32  C   UNL     1      -1.477  14.028  20.649  0.00  0.00    +0.000 A 
ENDBRANCH  24  27
ENDBRANCH  17  18
ENDBRANCH   3  17
TORSDOF 4
ENDMDL
