MODEL 1
REMARK VINA RESULT:      -7.1      0.000      0.000
REMARK  Name = 
REMARK  8 active torsions:
REMARK  status: ('A' for Active; 'I' for Inactive)
REMARK    1  A    between atoms: O_1  and  C_2
REMARK    2  A    between atoms: C_5  and  C_6
REMARK    3  A    between atoms: C_6  and  C_7
REMARK    4  A    between atoms: C_7  and  N_8
REMARK    5  A    between atoms: N_8  and  C_9
REMARK    6  A    between atoms: C_9  and  C_10
REMARK    7  A    between atoms: C_13  and  O_14
REMARK    8  A    between atoms: C_15  and  O_16
REMARK                            x       y       z     vdW  Elec       q    Type
REMARK                         _______ _______ _______ _____ _____    ______ ____
ROOT
ATOM      1  N   UNL     1       2.692   6.759  19.633  0.00  0.00    +0.000 NA
ATOM      2  H   UNL     1       2.345   7.594  20.104  0.00  0.00    +0.000 HD
ENDROOT
BRANCH   1   3
ATOM      3  C   UNL     1       2.481   6.885  18.183  0.00  0.00    +0.000 C 
BRANCH   3   4
ATOM      4  C   UNL     1       3.660   7.544  17.450  0.00  0.00    +0.000 C 
BRANCH   4   8
ATOM      5  C   UNL     1       7.045   4.929  17.120  0.00  0.00    +0.000 A 
ATOM      6  C   UNL     1       7.227   6.230  17.575  0.00  0.00    +0.000 A 
ATOM      7  C   UNL     1       6.128   7.082  17.663  0.00  0.00    +0.000 A 
ATOM      8  C   UNL     1       4.847   6.632  17.306  0.00  0.00    +0.000 A 
ATOM      9  C   UNL     1       4.683   5.322  16.840  0.00  0.00    +0.000 A 
ATOM     10  C   UNL     1       5.784   4.472  16.750  0.00  0.00    +0.000 A 
BRANCH   5  11
ATOM     11  O   UNL     1       8.085   4.056  17.027  0.00  0.00    +0.000 OA
ATOM     12  H   UNL     1       8.584   4.259  16.219  0.00  0.00    +0.000 HD
ENDBRANCH   5  11
ENDBRANCH   4   8
ENDBRANCH   3   4
ENDBRANCH   1   3
BRANCH   1  13
ATOM     13  C   UNL     1       2.003   5.589  20.176  0.00  0.00    +0.000 C 
BRANCH  13  14
ATOM     14  C   UNL     1       2.541   4.300  19.616  0.00  0.00    +0.000 A 
ATOM     15  C   UNL     1       1.911   3.666  18.536  0.00  0.00    +0.000 A 
ATOM     16  C   UNL     1       2.395   2.449  18.046  0.00  0.00    +0.000 A 
ATOM     17  C   UNL     1       3.508   1.871  18.645  0.00  0.00    +0.000 A 
ATOM     18  C   UNL     1       4.137   2.498  19.717  0.00  0.00    +0.000 A 
ATOM     19  C   UNL     1       3.666   3.703  20.207  0.00  0.00    +0.000 A 
BRANCH  17  20
ATOM     20  O   UNL     1       4.022   0.679  18.217  0.00  0.00    +0.000 OA
ATOM     21  H   UNL     1       4.882   0.860  17.799  0.00  0.00    +0.000 HD
ENDBRANCH  17  20
BRANCH  18  22
ATOM     22  O   UNL     1       5.226   1.922  20.306  0.00  0.00    +0.000 OA
ATOM     23  H   UNL     1       5.944   2.571  20.175  0.00  0.00    +0.000 HD
ENDBRANCH  18  22
ENDBRANCH  13  14
ENDBRANCH   1  13
TORSDOF 8
ENDMDL
MODEL 2
REMARK VINA RESULT:      -6.9      0.879      1.216
REMARK  Name = 
REMARK  8 active torsions:
REMARK  status: ('A' for Active; 'I' for Inactive)
REMARK    1  A    between atoms: O_1  and  C_2
REMARK    2  A    between atoms: C_5  and  C_6
REMARK    3  A    between atoms: C_6  and  C_7
REMARK    4  A    between atoms: C_7  and  N_8
REMARK    5  A    between atoms: N_8  and  C_9
REMARK    6  A    between atoms: C_9  and  C_10
REMARK    7  A    between atoms: C_13  and  O_14
REMARK    8  A    between atoms: C_15  and  O_16
REMARK                            x       y       z     vdW  Elec       q    Type
REMARK                         _______ _______ _______ _____ _____    ______ ____
ROOT
ATOM      1  N   UNL     1       1.451   6.054  19.760  0.00  0.00    +0.000 NA
ATOM      2  H   UNL     1       1.024   5.798  18.870  0.00  0.00    +0.000 HD
ENDROOT
BRANCH   1   3
ATOM      3  C   UNL     1       2.734   6.729  19.518  0.00  0.00    +0.000 C 
BRANCH   3   4
ATOM      4  C   UNL     1       3.162   6.713  18.042  0.00  0.00    +0.000 C 
BRANCH   4   8
ATOM      5  C   UNL     1       6.889   4.700  17.359  0.00  0.00    +0.000 A 
ATOM      6  C   UNL     1       6.028   4.929  16.291  0.00  0.00    +0.000 A 
ATOM      7  C   UNL     1       4.811   5.566  16.520  0.00  0.00    +0.000 A 
ATOM      8  C   UNL     1       4.457   5.984  17.813  0.00  0.00    +0.000 A 
ATOM      9  C   UNL     1       5.330   5.736  18.879  0.00  0.00    +0.000 A 
ATOM     10  C   UNL     1       6.546   5.096  18.649  0.00  0.00    +0.000 A 
BRANCH   5  11
ATOM     11  O   UNL     1       8.093   4.091  17.184  0.00  0.00    +0.000 OA
ATOM     12  H   UNL     1       8.750   4.769  16.961  0.00  0.00    +0.000 HD
ENDBRANCH   5  11
ENDBRANCH   4   8
ENDBRANCH   3   4
ENDBRANCH   1   3
BRANCH   1  13
ATOM     13  C   UNL     1       1.624   4.845  20.566  0.00  0.00    +0.000 C 
BRANCH  13  14
ATOM     14  C   UNL     1       2.309   3.745  19.802  0.00  0.00    +0.000 A 
ATOM     15  C   UNL     1       1.789   3.281  18.586  0.00  0.00    +0.000 A 
ATOM     16  C   UNL     1       2.410   2.232  17.900  0.00  0.00    +0.000 A 
ATOM     17  C   UNL     1       3.550   1.650  18.442  0.00  0.00    +0.000 A 
ATOM     18  C   UNL     1       4.070   2.108  19.649  0.00  0.00    +0.000 A 
ATOM     19  C   UNL     1       3.463   3.146  20.332  0.00  0.00    +0.000 A 
BRANCH  17  20
ATOM     20  O   UNL     1       4.196   0.616  17.824  0.00  0.00    +0.000 OA
ATOM     21  H   UNL     1       4.585   0.054  18.517  0.00  0.00    +0.000 HD
ENDBRANCH  17  20
BRANCH  18  22
ATOM     22  O   UNL     1       5.187   1.528  20.179  0.00  0.00    +0.000 OA
ATOM     23  H   UNL     1       5.298   0.703  19.668  0.00  0.00    +0.000 HD
ENDBRANCH  18  22
ENDBRANCH  13  14
ENDBRANCH   1  13
TORSDOF 8
ENDMDL
MODEL 3
REMARK VINA RESULT:      -6.8      1.221      4.613
REMARK  Name = 
REMARK  8 active torsions:
REMARK  status: ('A' for Active; 'I' for Inactive)
REMARK    1  A    between atoms: O_1  and  C_2
REMARK    2  A    between atoms: C_5  and  C_6
REMARK    3  A    between atoms: C_6  and  C_7
REMARK    4  A    between atoms: C_7  and  N_8
REMARK    5  A    between atoms: N_8  and  C_9
REMARK    6  A    between atoms: C_9  and  C_10
REMARK    7  A    between atoms: C_13  and  O_14
REMARK    8  A    between atoms: C_15  and  O_16
REMARK                            x       y       z     vdW  Elec       q    Type
REMARK                         _______ _______ _______ _____ _____    ______ ____
ROOT
ATOM      1  N   UNL     1       2.982   6.209  20.055  0.00  0.00    +0.000 NA
ATOM      2  H   UNL     1       3.465   5.326  20.218  0.00  0.00    +0.000 HD
ENDROOT
BRANCH   1   3
ATOM      3  C   UNL     1       1.552   6.054  20.361  0.00  0.00    +0.000 C 
BRANCH   3   4
ATOM      4  C   UNL     1       1.137   4.597  20.613  0.00  0.00    +0.000 C 
BRANCH   4   8
ATOM      5  C   UNL     1       3.547   1.708  18.551  0.00  0.00    +0.000 A 
ATOM      6  C   UNL     1       3.861   2.052  19.862  0.00  0.00    +0.000 A 
ATOM      7  C   UNL     1       3.087   3.004  20.521  0.00  0.00    +0.000 A 
ATOM      8  C   UNL     1       1.995   3.605  19.876  0.00  0.00    +0.000 A 
ATOM      9  C   UNL     1       1.699   3.256  18.553  0.00  0.00    +0.000 A 
ATOM     10  C   UNL     1       2.476   2.305  17.894  0.00  0.00    +0.000 A 
BRANCH   5  11
ATOM     11  O   UNL     1       4.267   0.776  17.869  0.00  0.00    +0.000 OA
ATOM     12  H   UNL     1       3.856  -0.091  18.008  0.00  0.00    +0.000 HD
ENDBRANCH   5  11
ENDBRANCH   4   8
ENDBRANCH   3   4
ENDBRANCH   1   3
BRANCH   1  13
ATOM     13  C   UNL     1       3.192   6.613  18.665  0.00  0.00    +0.000 C 
BRANCH  13  14
ATOM     14  C   UNL     1       4.435   6.002  18.076  0.00  0.00    +0.000 A 
ATOM     15  C   UNL     1       5.357   5.324  18.886  0.00  0.00    +0.000 A 
ATOM     16  C   UNL     1       6.528   4.792  18.339  0.00  0.00    +0.000 A 
ATOM     17  C   UNL     1       6.772   4.947  16.979  0.00  0.00    +0.000 A 
ATOM     18  C   UNL     1       5.858   5.619  16.171  0.00  0.00    +0.000 A 
ATOM     19  C   UNL     1       4.696   6.146  16.705  0.00  0.00    +0.000 A 
BRANCH  17  20
ATOM     20  O   UNL     1       7.902   4.458  16.386  0.00  0.00    +0.000 OA
ATOM     21  H   UNL     1       8.489   4.131  17.091  0.00  0.00    +0.000 HD
ENDBRANCH  17  20
BRANCH  18  22
ATOM     22  O   UNL     1       6.106   5.773  14.837  0.00  0.00    +0.000 OA
ATOM     23  H   UNL     1       5.621   5.039  14.413  0.00  0.00    +0.000 HD
ENDBRANCH  18  22
ENDBRANCH  13  14
ENDBRANCH   1  13
TORSDOF 8
ENDMDL
MODEL 4
REMARK VINA RESULT:      -6.8      1.016      4.717
REMARK  Name = 
REMARK  8 active torsions:
REMARK  status: ('A' for Active; 'I' for Inactive)
REMARK    1  A    between atoms: O_1  and  C_2
REMARK    2  A    between atoms: C_5  and  C_6
REMARK    3  A    between atoms: C_6  and  C_7
REMARK    4  A    between atoms: C_7  and  N_8
REMARK    5  A    between atoms: N_8  and  C_9
REMARK    6  A    between atoms: C_9  and  C_10
REMARK    7  A    between atoms: C_13  and  O_14
REMARK    8  A    between atoms: C_15  and  O_16
REMARK                            x       y       z     vdW  Elec       q    Type
REMARK                         _______ _______ _______ _____ _____    ______ ____
ROOT
ATOM      1  N   UNL     1       3.133   6.316  19.707  0.00  0.00    +0.000 NA
ATOM      2  H   UNL     1       3.641   5.440  19.829  0.00  0.00    +0.000 HD
ENDROOT
BRANCH   1   3
ATOM      3  C   UNL     1       1.749   6.155  20.178  0.00  0.00    +0.000 C 
BRANCH   3   4
ATOM      4  C   UNL     1       1.466   4.769  20.778  0.00  0.00    +0.000 C 
BRANCH   4   8
ATOM      5  C   UNL     1       3.440   1.645  18.599  0.00  0.00    +0.000 A 
ATOM      6  C   UNL     1       2.214   2.125  18.150  0.00  0.00    +0.000 A 
ATOM      7  C   UNL     1       1.568   3.126  18.871  0.00  0.00    +0.000 A 
ATOM      8  C   UNL     1       2.150   3.655  20.034  0.00  0.00    +0.000 A 
ATOM      9  C   UNL     1       3.379   3.155  20.478  0.00  0.00    +0.000 A 
ATOM     10  C   UNL     1       4.023   2.150  19.757  0.00  0.00    +0.000 A 
BRANCH   5  11
ATOM     11  O   UNL     1       4.115   0.676  17.923  0.00  0.00    +0.000 OA
ATOM     12  H   UNL     1       4.669   0.190  18.555  0.00  0.00    +0.000 HD
ENDBRANCH   5  11
ENDBRANCH   4   8
ENDBRANCH   3   4
ENDBRANCH   1   3
BRANCH   1  13
ATOM     13  C   UNL     1       3.179   6.697  18.296  0.00  0.00    +0.000 C 
BRANCH  13  14
ATOM     14  C   UNL     1       4.375   6.119  17.589  0.00  0.00    +0.000 A 
ATOM     15  C   UNL     1       4.359   4.802  17.107  0.00  0.00    +0.000 A 
ATOM     16  C   UNL     1       5.486   4.258  16.484  0.00  0.00    +0.000 A 
ATOM     17  C   UNL     1       6.629   5.039  16.352  0.00  0.00    +0.000 A 
ATOM     18  C   UNL     1       6.649   6.347  16.828  0.00  0.00    +0.000 A 
ATOM     19  C   UNL     1       5.537   6.892  17.443  0.00  0.00    +0.000 A 
BRANCH  17  20
ATOM     20  O   UNL     1       7.766   4.562  15.761  0.00  0.00    +0.000 OA
ATOM     21  H   UNL     1       8.431   4.432  16.459  0.00  0.00    +0.000 HD
ENDBRANCH  17  20
BRANCH  18  22
ATOM     22  O   UNL     1       7.777   7.107  16.700  0.00  0.00    +0.000 OA
ATOM     23  H   UNL     1       8.368   6.572  16.136  0.00  0.00    +0.000 HD
ENDBRANCH  18  22
ENDBRANCH  13  14
ENDBRANCH   1  13
TORSDOF 8
ENDMDL
MODEL 5
REMARK VINA RESULT:      -6.7      2.586      5.437
REMARK  Name = 
REMARK  8 active torsions:
REMARK  status: ('A' for Active; 'I' for Inactive)
REMARK    1  A    between atoms: O_1  and  C_2
REMARK    2  A    between atoms: C_5  and  C_6
REMARK    3  A    between atoms: C_6  and  C_7
REMARK    4  A    between atoms: C_7  and  N_8
REMARK    5  A    between atoms: N_8  and  C_9
REMARK    6  A    between atoms: C_9  and  C_10
REMARK    7  A    between atoms: C_13  and  O_14
REMARK    8  A    between atoms: C_15  and  O_16
REMARK                            x       y       z     vdW  Elec       q    Type
REMARK                         _______ _______ _______ _____ _____    ______ ____
ROOT
ATOM      1  N   UNL     1       4.848   2.923  17.163  0.00  0.00    +0.000 NA
ATOM      2  H   UNL     1       4.765   2.169  16.480  0.00  0.00    +0.000 HD
ENDROOT
BRANCH   1   3
ATOM      3  C   UNL     1       3.666   2.930  18.036  0.00  0.00    +0.000 C 
BRANCH   3   4
ATOM      4  C   UNL     1       2.584   3.927  17.590  0.00  0.00    +0.000 C 
BRANCH   4   8
ATOM      5  C   UNL     1       1.915   7.137  20.356  0.00  0.00    +0.000 A 
ATOM      6  C   UNL     1       2.386   7.421  19.078  0.00  0.00    +0.000 A 
ATOM      7  C   UNL     1       2.620   6.374  18.190  0.00  0.00    +0.000 A 
ATOM      8  C   UNL     1       2.374   5.046  18.572  0.00  0.00    +0.000 A 
ATOM      9  C   UNL     1       1.910   4.776  19.865  0.00  0.00    +0.000 A 
ATOM     10  C   UNL     1       1.679   5.825  20.755  0.00  0.00    +0.000 A 
BRANCH   5  11
ATOM     11  O   UNL     1       1.661   8.126  21.256  0.00  0.00    +0.000 OA
ATOM     12  H   UNL     1       0.878   8.616  20.960  0.00  0.00    +0.000 HD
ENDBRANCH   5  11
ENDBRANCH   4   8
ENDBRANCH   3   4
ENDBRANCH   1   3
BRANCH   1  13
ATOM     13  C   UNL     1       4.998   4.191  16.451  0.00  0.00    +0.000 C 
BRANCH  13  14
ATOM     14  C   UNL     1       5.955   5.123  17.143  0.00  0.00    +0.000 A 
ATOM     15  C   UNL     1       6.446   6.264  16.492  0.00  0.00    +0.000 A 
ATOM     16  C   UNL     1       7.364   7.106  17.127  0.00  0.00    +0.000 A 
ATOM     17  C   UNL     1       7.791   6.795  18.414  0.00  0.00    +0.000 A 
ATOM     18  C   UNL     1       7.305   5.663  19.063  0.00  0.00    +0.000 A 
ATOM     19  C   UNL     1       6.395   4.828  18.442  0.00  0.00    +0.000 A 
BRANCH  17  20
ATOM     20  O   UNL     1       8.693   7.573  19.084  0.00  0.00    +0.000 OA
ATOM     21  H   UNL     1       9.151   8.128  18.428  0.00  0.00    +0.000 HD
ENDBRANCH  17  20
BRANCH  18  22
ATOM     22  O   UNL     1       7.732   5.360  20.325  0.00  0.00    +0.000 OA
ATOM     23  H   UNL     1       6.939   5.006  20.771  0.00  0.00    +0.000 HD
ENDBRANCH  18  22
ENDBRANCH  13  14
ENDBRANCH   1  13
TORSDOF 8
ENDMDL
MODEL 6
REMARK VINA RESULT:      -6.7      1.070      4.451
REMARK  Name = 
REMARK  8 active torsions:
REMARK  status: ('A' for Active; 'I' for Inactive)
REMARK    1  A    between atoms: O_1  and  C_2
REMARK    2  A    between atoms: C_5  and  C_6
REMARK    3  A    between atoms: C_6  and  C_7
REMARK    4  A    between atoms: C_7  and  N_8
REMARK    5  A    between atoms: N_8  and  C_9
REMARK    6  A    between atoms: C_9  and  C_10
REMARK    7  A    between atoms: C_13  and  O_14
REMARK    8  A    between atoms: C_15  and  O_16
REMARK                            x       y       z     vdW  Elec       q    Type
REMARK                         _______ _______ _______ _____ _____    ______ ____
ROOT
ATOM      1  N   UNL     1       3.441   7.746  17.787  0.00  0.00    +0.000 NA
ATOM      2  H   UNL     1       4.107   7.796  18.558  0.00  0.00    +0.000 HD
ENDROOT
BRANCH   1   3
ATOM      3  C   UNL     1       2.360   6.809  18.127  0.00  0.00    +0.000 C 
BRANCH   3   4
ATOM      4  C   UNL     1       2.648   5.977  19.386  0.00  0.00    +0.000 C 
BRANCH   4   8
ATOM      5  C   UNL     1       3.625   1.906  18.447  0.00  0.00    +0.000 A 
ATOM      6  C   UNL     1       2.614   2.548  17.740  0.00  0.00    +0.000 A 
ATOM      7  C   UNL     1       2.288   3.864  18.061  0.00  0.00    +0.000 A 
ATOM      8  C   UNL     1       2.976   4.541  19.080  0.00  0.00    +0.000 A 
ATOM      9  C   UNL     1       3.983   3.877  19.789  0.00  0.00    +0.000 A 
ATOM     10  C   UNL     1       4.307   2.559  19.469  0.00  0.00    +0.000 A 
BRANCH   5  11
ATOM     11  O   UNL     1       3.987   0.625  18.164  0.00  0.00    +0.000 OA
ATOM     12  H   UNL     1       3.840   0.083  18.954  0.00  0.00    +0.000 HD
ENDBRANCH   5  11
ENDBRANCH   4   8
ENDBRANCH   3   4
ENDBRANCH   1   3
BRANCH   1  13
ATOM     13  C   UNL     1       4.150   7.331  16.577  0.00  0.00    +0.000 C 
BRANCH  13  14
ATOM     14  C   UNL     1       5.314   6.427  16.880  0.00  0.00    +0.000 A 
ATOM     15  C   UNL     1       5.421   5.165  16.279  0.00  0.00    +0.000 A 
ATOM     16  C   UNL     1       6.484   4.314  16.594  0.00  0.00    +0.000 A 
ATOM     17  C   UNL     1       7.436   4.733  17.517  0.00  0.00    +0.000 A 
ATOM     18  C   UNL     1       7.333   5.985  18.117  0.00  0.00    +0.000 A 
ATOM     19  C   UNL     1       6.285   6.833  17.808  0.00  0.00    +0.000 A 
BRANCH  17  20
ATOM     20  O   UNL     1       8.493   3.944  17.874  0.00  0.00    +0.000 OA
ATOM     21  H   UNL     1       8.242   3.018  17.706  0.00  0.00    +0.000 HD
ENDBRANCH  17  20
BRANCH  18  22
ATOM     22  O   UNL     1       8.268   6.388  19.028  0.00  0.00    +0.000 OA
ATOM     23  H   UNL     1       8.580   5.559  19.438  0.00  0.00    +0.000 HD
ENDBRANCH  18  22
ENDBRANCH  13  14
ENDBRANCH   1  13
TORSDOF 8
ENDMDL
MODEL 7
REMARK VINA RESULT:      -6.6      0.797      1.512
REMARK  Name = 
REMARK  8 active torsions:
REMARK  status: ('A' for Active; 'I' for Inactive)
REMARK    1  A    between atoms: O_1  and  C_2
REMARK    2  A    between atoms: C_5  and  C_6
REMARK    3  A    between atoms: C_6  and  C_7
REMARK    4  A    between atoms: C_7  and  N_8
REMARK    5  A    between atoms: N_8  and  C_9
REMARK    6  A    between atoms: C_9  and  C_10
REMARK    7  A    between atoms: C_13  and  O_14
REMARK    8  A    between atoms: C_15  and  O_16
REMARK                            x       y       z     vdW  Elec       q    Type
REMARK                         _______ _______ _______ _____ _____    ______ ____
ROOT
ATOM      1  N   UNL     1       2.816   6.938  19.716  0.00  0.00    +0.000 NA
ATOM      2  H   UNL     1       2.565   7.821  20.159  0.00  0.00    +0.000 HD
ENDROOT
BRANCH   1   3
ATOM      3  C   UNL     1       2.474   6.987  18.287  0.00  0.00    +0.000 C 
BRANCH   3   4
ATOM      4  C   UNL     1       3.581   7.602  17.416  0.00  0.00    +0.000 C 
BRANCH   4   8
ATOM      5  C   UNL     1       6.956   4.989  16.989  0.00  0.00    +0.000 A 
ATOM      6  C   UNL     1       7.146   6.280  17.470  0.00  0.00    +0.000 A 
ATOM      7  C   UNL     1       6.050   7.131  17.590  0.00  0.00    +0.000 A 
ATOM      8  C   UNL     1       4.764   6.691  17.238  0.00  0.00    +0.000 A 
ATOM      9  C   UNL     1       4.592   5.392  16.746  0.00  0.00    +0.000 A 
ATOM     10  C   UNL     1       5.690   4.542  16.624  0.00  0.00    +0.000 A 
BRANCH   5  11
ATOM     11  O   UNL     1       7.994   4.117  16.864  0.00  0.00    +0.000 OA
ATOM     12  H   UNL     1       8.658   4.333  17.537  0.00  0.00    +0.000 HD
ENDBRANCH   5  11
ENDBRANCH   4   8
ENDBRANCH   3   4
ENDBRANCH   1   3
BRANCH   1  13
ATOM     13  C   UNL     1       2.115   5.851  20.398  0.00  0.00    +0.000 C 
BRANCH  13  14
ATOM     14  C   UNL     1       2.573   4.496  19.930  0.00  0.00    +0.000 A 
ATOM     15  C   UNL     1       3.927   4.136  19.981  0.00  0.00    +0.000 A 
ATOM     16  C   UNL     1       4.350   2.890  19.510  0.00  0.00    +0.000 A 
ATOM     17  C   UNL     1       3.411   2.010  18.984  0.00  0.00    +0.000 A 
ATOM     18  C   UNL     1       2.066   2.363  18.932  0.00  0.00    +0.000 A 
ATOM     19  C   UNL     1       1.639   3.593  19.399  0.00  0.00    +0.000 A 
BRANCH  17  20
ATOM     20  O   UNL     1       3.764   0.782  18.499  0.00  0.00    +0.000 OA
ATOM     21  H   UNL     1       4.616   0.878  18.039  0.00  0.00    +0.000 HD
ENDBRANCH  17  20
BRANCH  18  22
ATOM     22  O   UNL     1       1.149   1.496  18.409  0.00  0.00    +0.000 OA
ATOM     23  H   UNL     1       1.501   1.274  17.526  0.00  0.00    +0.000 HD
ENDBRANCH  18  22
ENDBRANCH  13  14
ENDBRANCH   1  13
TORSDOF 8
ENDMDL
MODEL 8
REMARK VINA RESULT:      -6.6      0.588      1.247
REMARK  Name = 
REMARK  8 active torsions:
REMARK  status: ('A' for Active; 'I' for Inactive)
REMARK    1  A    between atoms: O_1  and  C_2
REMARK    2  A    between atoms: C_5  and  C_6
REMARK    3  A    between atoms: C_6  and  C_7
REMARK    4  A    between atoms: C_7  and  N_8
REMARK    5  A    between atoms: N_8  and  C_9
REMARK    6  A    between atoms: C_9  and  C_10
REMARK    7  A    between atoms: C_13  and  O_14
REMARK    8  A    between atoms: C_15  and  O_16
REMARK                            x       y       z     vdW  Elec       q    Type
REMARK                         _______ _______ _______ _____ _____    ______ ____
ROOT
ATOM      1  N   UNL     1       3.152   7.064  18.924  0.00  0.00    +0.000 NA
ATOM      2  H   UNL     1       2.974   7.945  19.407  0.00  0.00    +0.000 HD
ENDROOT
BRANCH   1   3
ATOM      3  C   UNL     1       2.859   7.218  17.491  0.00  0.00    +0.000 C 
BRANCH   3   4
ATOM      4  C   UNL     1       4.112   7.466  16.636  0.00  0.00    +0.000 C 
BRANCH   4   8
ATOM      5  C   UNL     1       7.338   4.756  17.444  0.00  0.00    +0.000 A 
ATOM      6  C   UNL     1       6.239   4.314  16.714  0.00  0.00    +0.000 A 
ATOM      7  C   UNL     1       5.185   5.192  16.470  0.00  0.00    +0.000 A 
ATOM      8  C   UNL     1       5.233   6.512  16.945  0.00  0.00    +0.000 A 
ATOM      9  C   UNL     1       6.342   6.937  17.687  0.00  0.00    +0.000 A 
ATOM     10  C   UNL     1       7.394   6.057  17.933  0.00  0.00    +0.000 A 
BRANCH   5  11
ATOM     11  O   UNL     1       8.396   3.939  17.699  0.00  0.00    +0.000 OA
ATOM     12  H   UNL     1       9.059   4.069  17.003  0.00  0.00    +0.000 HD
ENDBRANCH   5  11
ENDBRANCH   4   8
ENDBRANCH   3   4
ENDBRANCH   1   3
BRANCH   1  13
ATOM     13  C   UNL     1       2.330   6.018  19.530  0.00  0.00    +0.000 C 
BRANCH  13  14
ATOM     14  C   UNL     1       2.770   4.639  19.122  0.00  0.00    +0.000 A 
ATOM     15  C   UNL     1       2.106   3.943  18.101  0.00  0.00    +0.000 A 
ATOM     16  C   UNL     1       2.497   2.647  17.752  0.00  0.00    +0.000 A 
ATOM     17  C   UNL     1       3.552   2.051  18.434  0.00  0.00    +0.000 A 
ATOM     18  C   UNL     1       4.214   2.738  19.448  0.00  0.00    +0.000 A 
ATOM     19  C   UNL     1       3.835   4.022  19.796  0.00  0.00    +0.000 A 
BRANCH  17  20
ATOM     20  O   UNL     1       3.975   0.784  18.146  0.00  0.00    +0.000 OA
ATOM     21  H   UNL     1       4.565   0.497  18.864  0.00  0.00    +0.000 HD
ENDBRANCH  17  20
BRANCH  18  22
ATOM     22  O   UNL     1       5.246   2.145  20.117  0.00  0.00    +0.000 OA
ATOM     23  H   UNL     1       5.904   1.946  19.424  0.00  0.00    +0.000 HD
ENDBRANCH  18  22
ENDBRANCH  13  14
ENDBRANCH   1  13
TORSDOF 8
ENDMDL
MODEL 9
REMARK VINA RESULT:      -6.6      0.758      1.399
REMARK  Name = 
REMARK  8 active torsions:
REMARK  status: ('A' for Active; 'I' for Inactive)
REMARK    1  A    between atoms: O_1  and  C_2
REMARK    2  A    between atoms: C_5  and  C_6
REMARK    3  A    between atoms: C_6  and  C_7
REMARK    4  A    between atoms: C_7  and  N_8
REMARK    5  A    between atoms: N_8  and  C_9
REMARK    6  A    between atoms: C_9  and  C_10
REMARK    7  A    between atoms: C_13  and  O_14
REMARK    8  A    between atoms: C_15  and  O_16
REMARK                            x       y       z     vdW  Elec       q    Type
REMARK                         _______ _______ _______ _____ _____    ______ ____
ROOT
ATOM      1  N   UNL     1       2.550   6.341  20.419  0.00  0.00    +0.000 NA
ATOM      2  H   UNL     1       2.365   6.864  21.274  0.00  0.00    +0.000 HD
ENDROOT
BRANCH   1   3
ATOM      3  C   UNL     1       2.450   7.238  19.258  0.00  0.00    +0.000 C 
BRANCH   3   4
ATOM      4  C   UNL     1       2.465   6.497  17.912  0.00  0.00    +0.000 C 
BRANCH   4   8
ATOM      5  C   UNL     1       6.400   5.502  16.521  0.00  0.00    +0.000 A 
ATOM      6  C   UNL     1       5.379   4.564  16.416  0.00  0.00    +0.000 A 
ATOM      7  C   UNL     1       4.107   4.884  16.886  0.00  0.00    +0.000 A 
ATOM      8  C   UNL     1       3.853   6.144  17.451  0.00  0.00    +0.000 A 
ATOM      9  C   UNL     1       4.894   7.073  17.559  0.00  0.00    +0.000 A 
ATOM     10  C   UNL     1       6.167   6.750  17.091  0.00  0.00    +0.000 A 
BRANCH   5  11
ATOM     11  O   UNL     1       7.656   5.240  16.067  0.00  0.00    +0.000 OA
ATOM     12  H   UNL     1       8.235   5.096  16.832  0.00  0.00    +0.000 HD
ENDBRANCH   5  11
ENDBRANCH   4   8
ENDBRANCH   3   4
ENDBRANCH   1   3
BRANCH   1  13
ATOM     13  C   UNL     1       1.598   5.235  20.327  0.00  0.00    +0.000 C 
BRANCH  13  14
ATOM     14  C   UNL     1       2.220   3.994  19.747  0.00  0.00    +0.000 A 
ATOM     15  C   UNL     1       1.555   3.245  18.766  0.00  0.00    +0.000 A 
ATOM     16  C   UNL     1       2.122   2.072  18.259  0.00  0.00    +0.000 A 
ATOM     17  C   UNL     1       3.356   1.652  18.744  0.00  0.00    +0.000 A 
ATOM     18  C   UNL     1       4.020   2.393  19.717  0.00  0.00    +0.000 A 
ATOM     19  C   UNL     1       3.466   3.555  20.222  0.00  0.00    +0.000 A 
BRANCH  17  20
ATOM     20  O   UNL     1       3.957   0.510  18.295  0.00  0.00    +0.000 OA
ATOM     21  H   UNL     1       4.833   0.451  18.716  0.00  0.00    +0.000 HD
ENDBRANCH  17  20
BRANCH  18  22
ATOM     22  O   UNL     1       5.229   1.972  20.193  0.00  0.00    +0.000 OA
ATOM     23  H   UNL     1       5.185   2.143  21.154  0.00  0.00    +0.000 HD
ENDBRANCH  18  22
ENDBRANCH  13  14
ENDBRANCH   1  13
TORSDOF 8
ENDMDL
