MODEL 1
REMARK VINA RESULT:      -6.9      0.000      0.000
REMARK  Name = 
REMARK  12 active torsions:
REMARK  status: ('A' for Active; 'I' for Inactive)
REMARK    1  A    between atoms: C_1  and  O_2
REMARK    2  A    between atoms: O_2  and  C_3
REMARK    3  A    between atoms: C_6  and  C_7
REMARK    4  A    between atoms: N_12  and  C_13
REMARK    5  A    between atoms: C_13  and  C_14
REMARK    6  A    between atoms: C_14  and  C_15
REMARK    7  A    between atoms: C_15  and  C_16
REMARK    8  A    between atoms: C_16  and  C_17
REMARK    9  A    between atoms: C_17  and  C_18
REMARK   10  A    between atoms: C_18  and  N_19
REMARK   11  A    between atoms: C_22  and  O_23
REMARK   12  A    between atoms: O_23  and  C_24
REMARK                            x       y       z     vdW  Elec       q    Type
REMARK                         _______ _______ _______ _____ _____    ______ ____
ROOT
ATOM      1  C   UNL     1       3.481   6.616  17.947  0.00  0.00    +0.000 A 
ATOM      2  C   UNL     1       4.298   6.928  16.750  0.00  0.00    +0.000 A 
ATOM      3  C   UNL     1       5.207   6.032  16.394  0.00  0.00    +0.000 A 
ATOM      4  C   UNL     1       5.352   4.755  17.125  0.00  0.00    +0.000 A 
ATOM      5  O   UNL     1       6.224   3.969  16.769  0.00  0.00    +0.000 OA
ATOM      6  N   UNL     1       4.438   4.538  18.148  0.00  0.00    +0.000 N 
ATOM      7  N   UNL     1       3.542   5.488  18.594  0.00  0.00    +0.000 NA
ENDROOT
BRANCH   1  11
ATOM      8  C   UNL     1       0.839   9.679  19.418  0.00  0.00    +0.000 A 
ATOM      9  C   UNL     1       1.406   9.784  18.136  0.00  0.00    +0.000 A 
ATOM     10  C   UNL     1       2.224   8.783  17.626  0.00  0.00    +0.000 A 
ATOM     11  C   UNL     1       2.574   7.695  18.426  0.00  0.00    +0.000 A 
ATOM     12  C   UNL     1       2.085   7.632  19.732  0.00  0.00    +0.000 A 
ATOM     13  C   UNL     1       1.228   8.617  20.249  0.00  0.00    +0.000 A 
BRANCH   8  15
ATOM     14  C   UNL     1       0.392  11.950  19.863  0.00  0.00    +0.000 C 
ATOM     15  O   UNL     1      -0.090  10.599  19.828  0.00  0.00    +0.000 OA
ENDBRANCH   8  15
BRANCH  13  16
ATOM     16  O   UNL     1       0.880   8.335  21.540  0.00  0.00    +0.000 OA
ATOM     17  C   UNL     1       1.300   9.185  22.589  0.00  0.00    +0.000 C 
ENDBRANCH  13  16
ENDBRANCH   1  11
BRANCH   6  18
ATOM     18  C   UNL     1       4.425   3.247  18.829  0.00  0.00    +0.000 C 
BRANCH  18  19
ATOM     19  C   UNL     1       3.492   2.234  18.165  0.00  0.00    +0.000 C 
BRANCH  19  20
ATOM     20  C   UNL     1       2.076   2.794  17.999  0.00  0.00    +0.000 C 
BRANCH  20  21
ATOM     21  C   UNL     1       1.216   2.439  19.212  0.00  0.00    +0.000 C 
BRANCH  21  22
ATOM     22  C   UNL     1       0.891   3.667  20.063  0.00  0.00    +0.000 C 
BRANCH  22  23
ATOM     23  C   UNL     1       1.812   3.734  21.281  0.00  0.00    +0.000 C 
BRANCH  23  24
ATOM     24  N   UNL     1       1.800   2.464  21.999  0.00  0.00    +0.000 NA
ATOM     25  H   UNL     1       0.982   1.924  21.722  0.00  0.00    +0.000 HD
ATOM     26  H   UNL     1       1.701   2.643  22.997  0.00  0.00    +0.000 HD
ENDBRANCH  23  24
ENDBRANCH  22  23
ENDBRANCH  21  22
ENDBRANCH  20  21
ENDBRANCH  19  20
ENDBRANCH  18  19
ENDBRANCH   6  18
TORSDOF 10
ENDMDL
MODEL 2
REMARK VINA RESULT:      -6.7      1.813      2.788
REMARK  Name = 
REMARK  12 active torsions:
REMARK  status: ('A' for Active; 'I' for Inactive)
REMARK    1  A    between atoms: C_1  and  O_2
REMARK    2  A    between atoms: O_2  and  C_3
REMARK    3  A    between atoms: C_6  and  C_7
REMARK    4  A    between atoms: N_12  and  C_13
REMARK    5  A    between atoms: C_13  and  C_14
REMARK    6  A    between atoms: C_14  and  C_15
REMARK    7  A    between atoms: C_15  and  C_16
REMARK    8  A    between atoms: C_16  and  C_17
REMARK    9  A    between atoms: C_17  and  C_18
REMARK   10  A    between atoms: C_18  and  N_19
REMARK   11  A    between atoms: C_22  and  O_23
REMARK   12  A    between atoms: O_23  and  C_24
REMARK                            x       y       z     vdW  Elec       q    Type
REMARK                         _______ _______ _______ _____ _____    ______ ____
ROOT
ATOM      1  C   UNL     1       1.837   8.224  19.192  0.00  0.00    +0.000 A 
ATOM      2  C   UNL     1       2.644   8.268  17.949  0.00  0.00    +0.000 A 
ATOM      3  C   UNL     1       3.464   7.251  17.730  0.00  0.00    +0.000 A 
ATOM      4  C   UNL     1       3.522   6.100  18.656  0.00  0.00    +0.000 A 
ATOM      5  O   UNL     1       4.315   5.194  18.420  0.00  0.00    +0.000 OA
ATOM      6  N   UNL     1       2.622   6.130  19.713  0.00  0.00    +0.000 N 
ATOM      7  N   UNL     1       1.822   7.213  20.013  0.00  0.00    +0.000 NA
ENDROOT
BRANCH   1  11
ATOM      8  C   UNL     1      -0.505  11.698  20.180  0.00  0.00    +0.000 A 
ATOM      9  C   UNL     1       0.131  11.601  18.930  0.00  0.00    +0.000 A 
ATOM     10  C   UNL     1       0.854  10.467  18.576  0.00  0.00    +0.000 A 
ATOM     11  C   UNL     1       1.037   9.441  19.502  0.00  0.00    +0.000 A 
ATOM     12  C   UNL     1       0.482   9.573  20.776  0.00  0.00    +0.000 A 
ATOM     13  C   UNL     1      -0.281  10.696  21.137  0.00  0.00    +0.000 A 
BRANCH   8  15
ATOM     14  C   UNL     1      -2.718  12.505  20.116  0.00  0.00    +0.000 C 
ATOM     15  O   UNL     1      -1.342  12.752  20.437  0.00  0.00    +0.000 OA
ENDBRANCH   8  15
BRANCH  13  16
ATOM     16  O   UNL     1      -0.721  10.594  22.427  0.00  0.00    +0.000 OA
ATOM     17  C   UNL     1      -0.190   9.600  23.280  0.00  0.00    +0.000 C 
ENDBRANCH  13  16
ENDBRANCH   1  11
BRANCH   6  18
ATOM     18  C   UNL     1       2.520   4.970  20.595  0.00  0.00    +0.000 C 
BRANCH  18  19
ATOM     19  C   UNL     1       1.176   4.251  20.477  0.00  0.00    +0.000 C 
BRANCH  19  20
ATOM     20  C   UNL     1       1.352   2.793  20.042  0.00  0.00    +0.000 C 
BRANCH  20  21
ATOM     21  C   UNL     1       1.315   2.681  18.519  0.00  0.00    +0.000 C 
BRANCH  21  22
ATOM     22  C   UNL     1       2.679   2.303  17.939  0.00  0.00    +0.000 C 
BRANCH  22  23
ATOM     23  C   UNL     1       3.577   1.708  19.023  0.00  0.00    +0.000 C 
BRANCH  23  24
ATOM     24  N   UNL     1       4.809   2.478  19.142  0.00  0.00    +0.000 NA
ATOM     25  H   UNL     1       5.609   1.846  19.137  0.00  0.00    +0.000 HD
ATOM     26  H   UNL     1       4.824   2.951  20.044  0.00  0.00    +0.000 HD
ENDBRANCH  23  24
ENDBRANCH  22  23
ENDBRANCH  21  22
ENDBRANCH  20  21
ENDBRANCH  19  20
ENDBRANCH  18  19
ENDBRANCH   6  18
TORSDOF 10
ENDMDL
MODEL 3
REMARK VINA RESULT:      -6.7      2.030      4.298
REMARK  Name = 
REMARK  12 active torsions:
REMARK  status: ('A' for Active; 'I' for Inactive)
REMARK    1  A    between atoms: C_1  and  O_2
REMARK    2  A    between atoms: O_2  and  C_3
REMARK    3  A    between atoms: C_6  and  C_7
REMARK    4  A    between atoms: N_12  and  C_13
REMARK    5  A    between atoms: C_13  and  C_14
REMARK    6  A    between atoms: C_14  and  C_15
REMARK    7  A    between atoms: C_15  and  C_16
REMARK    8  A    between atoms: C_16  and  C_17
REMARK    9  A    between atoms: C_17  and  C_18
REMARK   10  A    between atoms: C_18  and  N_19
REMARK   11  A    between atoms: C_22  and  O_23
REMARK   12  A    between atoms: O_23  and  C_24
REMARK                            x       y       z     vdW  Elec       q    Type
REMARK                         _______ _______ _______ _____ _____    ______ ____
ROOT
ATOM      1  C   UNL     1       2.593   6.265  19.665  0.00  0.00    +0.000 A 
ATOM      2  C   UNL     1       1.732   5.358  20.461  0.00  0.00    +0.000 A 
ATOM      3  C   UNL     1       2.139   4.104  20.590  0.00  0.00    +0.000 A 
ATOM      4  C   UNL     1       3.425   3.653  20.017  0.00  0.00    +0.000 A 
ATOM      5  O   UNL     1       3.746   2.476  20.146  0.00  0.00    +0.000 OA
ATOM      6  N   UNL     1       4.191   4.637  19.405  0.00  0.00    +0.000 N 
ATOM      7  N   UNL     1       3.752   5.926  19.180  0.00  0.00    +0.000 NA
ENDROOT
BRANCH   1  11
ATOM      8  C   UNL     1       0.973  10.195  18.990  0.00  0.00    +0.000 A 
ATOM      9  C   UNL     1       1.673   9.529  17.968  0.00  0.00    +0.000 A 
ATOM     10  C   UNL     1       2.163   8.242  18.153  0.00  0.00    +0.000 A 
ATOM     11  C   UNL     1       2.049   7.625  19.399  0.00  0.00    +0.000 A 
ATOM     12  C   UNL     1       1.433   8.318  20.442  0.00  0.00    +0.000 A 
ATOM     13  C   UNL     1       0.900   9.605  20.261  0.00  0.00    +0.000 A 
BRANCH   8  15
ATOM     14  C   UNL     1       1.247  12.522  18.737  0.00  0.00    +0.000 C 
ATOM     15  O   UNL     1       0.362  11.393  18.726  0.00  0.00    +0.000 OA
ENDBRANCH   8  15
BRANCH  13  16
ATOM     16  O   UNL     1       0.345  10.072  21.420  0.00  0.00    +0.000 OA
ATOM     17  C   UNL     1       0.046   9.177  22.473  0.00  0.00    +0.000 C 
ENDBRANCH  13  16
ENDBRANCH   1  11
BRANCH   6  18
ATOM     18  C   UNL     1       5.533   4.305  18.934  0.00  0.00    +0.000 C 
BRANCH  18  19
ATOM     19  C   UNL     1       6.541   5.430  19.169  0.00  0.00    +0.000 C 
BRANCH  19  20
ATOM     20  C   UNL     1       7.261   5.822  17.876  0.00  0.00    +0.000 C 
BRANCH  20  21
ATOM     21  C   UNL     1       7.086   4.736  16.815  0.00  0.00    +0.000 C 
BRANCH  21  22
ATOM     22  C   UNL     1       6.142   5.174  15.696  0.00  0.00    +0.000 C 
BRANCH  22  23
ATOM     23  C   UNL     1       6.677   4.726  14.336  0.00  0.00    +0.000 C 
BRANCH  23  24
ATOM     24  N   UNL     1       7.876   5.480  13.988  0.00  0.00    +0.000 NA
ATOM     25  H   UNL     1       8.323   5.821  14.838  0.00  0.00    +0.000 HD
ATOM     26  H   UNL     1       7.611   6.305  13.452  0.00  0.00    +0.000 HD
ENDBRANCH  23  24
ENDBRANCH  22  23
ENDBRANCH  21  22
ENDBRANCH  20  21
ENDBRANCH  19  20
ENDBRANCH  18  19
ENDBRANCH   6  18
TORSDOF 10
ENDMDL
MODEL 4
REMARK VINA RESULT:      -6.6      1.234      1.537
REMARK  Name = 
REMARK  12 active torsions:
REMARK  status: ('A' for Active; 'I' for Inactive)
REMARK    1  A    between atoms: C_1  and  O_2
REMARK    2  A    between atoms: O_2  and  C_3
REMARK    3  A    between atoms: C_6  and  C_7
REMARK    4  A    between atoms: N_12  and  C_13
REMARK    5  A    between atoms: C_13  and  C_14
REMARK    6  A    between atoms: C_14  and  C_15
REMARK    7  A    between atoms: C_15  and  C_16
REMARK    8  A    between atoms: C_16  and  C_17
REMARK    9  A    between atoms: C_17  and  C_18
REMARK   10  A    between atoms: C_18  and  N_19
REMARK   11  A    between atoms: C_22  and  O_23
REMARK   12  A    between atoms: O_23  and  C_24
REMARK                            x       y       z     vdW  Elec       q    Type
REMARK                         _______ _______ _______ _____ _____    ______ ____
ROOT
ATOM      1  C   UNL     1       3.025   6.719  17.919  0.00  0.00    +0.000 A 
ATOM      2  C   UNL     1       4.397   6.984  17.423  0.00  0.00    +0.000 A 
ATOM      3  C   UNL     1       5.109   5.935  17.039  0.00  0.00    +0.000 A 
ATOM      4  C   UNL     1       4.534   4.573  17.048  0.00  0.00    +0.000 A 
ATOM      5  O   UNL     1       5.243   3.633  16.704  0.00  0.00    +0.000 OA
ATOM      6  N   UNL     1       3.198   4.485  17.417  0.00  0.00    +0.000 N 
ATOM      7  N   UNL     1       2.462   5.545  17.904  0.00  0.00    +0.000 NA
ENDROOT
BRANCH   1  11
ATOM      8  C   UNL     1       0.885  10.025  19.655  0.00  0.00    +0.000 A 
ATOM      9  C   UNL     1       1.458  10.142  18.376  0.00  0.00    +0.000 A 
ATOM     10  C   UNL     1       2.114   9.070  17.781  0.00  0.00    +0.000 A 
ATOM     11  C   UNL     1       2.295   7.883  18.490  0.00  0.00    +0.000 A 
ATOM     12  C   UNL     1       1.804   7.794  19.794  0.00  0.00    +0.000 A 
ATOM     13  C   UNL     1       1.108   8.855  20.397  0.00  0.00    +0.000 A 
BRANCH   8  15
ATOM     14  C   UNL     1      -1.181  11.152  19.526  0.00  0.00    +0.000 C 
ATOM     15  O   UNL     1       0.107  11.041  20.147  0.00  0.00    +0.000 OA
ENDBRANCH   8  15
BRANCH  13  16
ATOM     16  O   UNL     1       0.724   8.529  21.667  0.00  0.00    +0.000 OA
ATOM     17  C   UNL     1       1.129   9.333  22.757  0.00  0.00    +0.000 C 
ENDBRANCH  13  16
ENDBRANCH   1  11
BRANCH   6  18
ATOM     18  C   UNL     1       2.517   3.197  17.321  0.00  0.00    +0.000 C 
BRANCH  18  19
ATOM     19  C   UNL     1       1.230   3.143  18.144  0.00  0.00    +0.000 C 
BRANCH  19  20
ATOM     20  C   UNL     1       1.387   2.254  19.381  0.00  0.00    +0.000 C 
BRANCH  20  21
ATOM     21  C   UNL     1       1.567   3.109  20.635  0.00  0.00    +0.000 C 
BRANCH  21  22
ATOM     22  C   UNL     1       3.039   3.408  20.919  0.00  0.00    +0.000 C 
BRANCH  22  23
ATOM     23  C   UNL     1       3.913   2.214  20.534  0.00  0.00    +0.000 C 
BRANCH  23  24
ATOM     24  N   UNL     1       5.096   2.663  19.809  0.00  0.00    +0.000 NA
ATOM     25  H   UNL     1       5.702   1.866  19.618  0.00  0.00    +0.000 HD
ATOM     26  H   UNL     1       5.633   3.296  20.400  0.00  0.00    +0.000 HD
ENDBRANCH  23  24
ENDBRANCH  22  23
ENDBRANCH  21  22
ENDBRANCH  20  21
ENDBRANCH  19  20
ENDBRANCH  18  19
ENDBRANCH   6  18
TORSDOF 10
ENDMDL
MODEL 5
REMARK VINA RESULT:      -6.6      2.276      4.357
REMARK  Name = 
REMARK  12 active torsions:
REMARK  status: ('A' for Active; 'I' for Inactive)
REMARK    1  A    between atoms: C_1  and  O_2
REMARK    2  A    between atoms: O_2  and  C_3
REMARK    3  A    between atoms: C_6  and  C_7
REMARK    4  A    between atoms: N_12  and  C_13
REMARK    5  A    between atoms: C_13  and  C_14
REMARK    6  A    between atoms: C_14  and  C_15
REMARK    7  A    between atoms: C_15  and  C_16
REMARK    8  A    between atoms: C_16  and  C_17
REMARK    9  A    between atoms: C_17  and  C_18
REMARK   10  A    between atoms: C_18  and  N_19
REMARK   11  A    between atoms: C_22  and  O_23
REMARK   12  A    between atoms: O_23  and  C_24
REMARK                            x       y       z     vdW  Elec       q    Type
REMARK                         _______ _______ _______ _____ _____    ______ ____
ROOT
ATOM      1  C   UNL     1       2.559   6.172  19.716  0.00  0.00    +0.000 A 
ATOM      2  C   UNL     1       1.624   5.296  20.461  0.00  0.00    +0.000 A 
ATOM      3  C   UNL     1       1.981   4.029  20.614  0.00  0.00    +0.000 A 
ATOM      4  C   UNL     1       3.282   3.535  20.115  0.00  0.00    +0.000 A 
ATOM      5  O   UNL     1       3.556   2.348  20.262  0.00  0.00    +0.000 OA
ATOM      6  N   UNL     1       4.114   4.491  19.547  0.00  0.00    +0.000 N 
ATOM      7  N   UNL     1       3.732   5.793  19.298  0.00  0.00    +0.000 NA
ENDROOT
BRANCH   1  11
ATOM      8  C   UNL     1       1.119  10.156  18.951  0.00  0.00    +0.000 A 
ATOM      9  C   UNL     1       1.769   9.428  17.939  0.00  0.00    +0.000 A 
ATOM     10  C   UNL     1       2.201   8.124  18.154  0.00  0.00    +0.000 A 
ATOM     11  C   UNL     1       2.077   7.549  19.418  0.00  0.00    +0.000 A 
ATOM     12  C   UNL     1       1.512   8.300  20.450  0.00  0.00    +0.000 A 
ATOM     13  C   UNL     1       1.039   9.606  20.240  0.00  0.00    +0.000 A 
BRANCH   8  15
ATOM     14  C   UNL     1       1.455  12.485  18.830  0.00  0.00    +0.000 C 
ATOM     15  O   UNL     1       0.562  11.374  18.663  0.00  0.00    +0.000 OA
ENDBRANCH   8  15
BRANCH  13  16
ATOM     16  O   UNL     1       0.526  10.132  21.393  0.00  0.00    +0.000 OA
ATOM     17  C   UNL     1       0.362   9.313  22.534  0.00  0.00    +0.000 C 
ENDBRANCH  13  16
ENDBRANCH   1  11
BRANCH   6  18
ATOM     18  C   UNL     1       5.468   4.113  19.154  0.00  0.00    +0.000 C 
BRANCH  18  19
ATOM     19  C   UNL     1       5.900   4.742  17.829  0.00  0.00    +0.000 C 
BRANCH  19  20
ATOM     20  C   UNL     1       7.406   5.020  17.800  0.00  0.00    +0.000 C 
BRANCH  20  21
ATOM     21  C   UNL     1       7.707   6.400  18.383  0.00  0.00    +0.000 C 
BRANCH  21  22
ATOM     22  C   UNL     1       7.302   7.525  17.431  0.00  0.00    +0.000 C 
BRANCH  22  23
ATOM     23  C   UNL     1       8.011   8.827  17.807  0.00  0.00    +0.000 C 
BRANCH  23  24
ATOM     24  N   UNL     1       8.833   8.633  18.996  0.00  0.00    +0.000 NA
ATOM     25  H   UNL     1       8.258   8.744  19.831  0.00  0.00    +0.000 HD
ATOM     26  H   UNL     1       9.541   9.363  19.038  0.00  0.00    +0.000 HD
ENDBRANCH  23  24
ENDBRANCH  22  23
ENDBRANCH  21  22
ENDBRANCH  20  21
ENDBRANCH  19  20
ENDBRANCH  18  19
ENDBRANCH   6  18
TORSDOF 10
ENDMDL
MODEL 6
REMARK VINA RESULT:      -6.6      1.086      2.061
REMARK  Name = 
REMARK  12 active torsions:
REMARK  status: ('A' for Active; 'I' for Inactive)
REMARK    1  A    between atoms: C_1  and  O_2
REMARK    2  A    between atoms: O_2  and  C_3
REMARK    3  A    between atoms: C_6  and  C_7
REMARK    4  A    between atoms: N_12  and  C_13
REMARK    5  A    between atoms: C_13  and  C_14
REMARK    6  A    between atoms: C_14  and  C_15
REMARK    7  A    between atoms: C_15  and  C_16
REMARK    8  A    between atoms: C_16  and  C_17
REMARK    9  A    between atoms: C_17  and  C_18
REMARK   10  A    between atoms: C_18  and  N_19
REMARK   11  A    between atoms: C_22  and  O_23
REMARK   12  A    between atoms: O_23  and  C_24
REMARK                            x       y       z     vdW  Elec       q    Type
REMARK                         _______ _______ _______ _____ _____    ______ ____
ROOT
ATOM      1  C   UNL     1       2.998   6.770  18.151  0.00  0.00    +0.000 A 
ATOM      2  C   UNL     1       4.100   7.421  17.403  0.00  0.00    +0.000 A 
ATOM      3  C   UNL     1       4.891   6.631  16.691  0.00  0.00    +0.000 A 
ATOM      4  C   UNL     1       4.642   5.177  16.603  0.00  0.00    +0.000 A 
ATOM      5  O   UNL     1       5.417   4.486  15.949  0.00  0.00    +0.000 OA
ATOM      6  N   UNL     1       3.503   4.718  17.252  0.00  0.00    +0.000 N 
ATOM      7  N   UNL     1       2.714   5.502  18.069  0.00  0.00    +0.000 NA
ENDROOT
BRANCH   1  11
ATOM      8  C   UNL     1       0.736   9.377  20.722  0.00  0.00    +0.000 A 
ATOM      9  C   UNL     1       1.196   8.136  21.195  0.00  0.00    +0.000 A 
ATOM     10  C   UNL     1       1.967   7.301  20.395  0.00  0.00    +0.000 A 
ATOM     11  C   UNL     1       2.215   7.645  19.066  0.00  0.00    +0.000 A 
ATOM     12  C   UNL     1       1.684   8.835  18.566  0.00  0.00    +0.000 A 
ATOM     13  C   UNL     1       0.935   9.707  19.372  0.00  0.00    +0.000 A 
BRANCH   8  15
ATOM     14  C   UNL     1      -0.243   9.671  22.846  0.00  0.00    +0.000 C 
ATOM     15  O   UNL     1       0.119  10.248  21.583  0.00  0.00    +0.000 OA
ENDBRANCH   8  15
BRANCH  13  16
ATOM     16  O   UNL     1       0.530  10.804  18.664  0.00  0.00    +0.000 OA
ATOM     17  C   UNL     1      -0.836  10.973  18.340  0.00  0.00    +0.000 C 
ENDBRANCH  13  16
ENDBRANCH   1  11
BRANCH   6  18
ATOM     18  C   UNL     1       3.111   3.320  17.100  0.00  0.00    +0.000 C 
BRANCH  18  19
ATOM     19  C   UNL     1       3.650   2.427  18.217  0.00  0.00    +0.000 C 
BRANCH  19  20
ATOM     20  C   UNL     1       2.518   1.760  19.005  0.00  0.00    +0.000 C 
BRANCH  20  21
ATOM     21  C   UNL     1       1.201   2.502  18.779  0.00  0.00    +0.000 C 
BRANCH  21  22
ATOM     22  C   UNL     1       0.728   3.227  20.038  0.00  0.00    +0.000 C 
BRANCH  22  23
ATOM     23  C   UNL     1       1.884   3.402  21.023  0.00  0.00    +0.000 C 
BRANCH  23  24
ATOM     24  N   UNL     1       1.648   2.616  22.228  0.00  0.00    +0.000 NA
ATOM     25  H   UNL     1       0.806   2.054  22.110  0.00  0.00    +0.000 HD
ATOM     26  H   UNL     1       1.466   3.244  23.009  0.00  0.00    +0.000 HD
ENDBRANCH  23  24
ENDBRANCH  22  23
ENDBRANCH  21  22
ENDBRANCH  20  21
ENDBRANCH  19  20
ENDBRANCH  18  19
ENDBRANCH   6  18
TORSDOF 10
ENDMDL
MODEL 7
REMARK VINA RESULT:      -6.6      2.586      6.824
REMARK  Name = 
REMARK  12 active torsions:
REMARK  status: ('A' for Active; 'I' for Inactive)
REMARK    1  A    between atoms: C_1  and  O_2
REMARK    2  A    between atoms: O_2  and  C_3
REMARK    3  A    between atoms: C_6  and  C_7
REMARK    4  A    between atoms: N_12  and  C_13
REMARK    5  A    between atoms: C_13  and  C_14
REMARK    6  A    between atoms: C_14  and  C_15
REMARK    7  A    between atoms: C_15  and  C_16
REMARK    8  A    between atoms: C_16  and  C_17
REMARK    9  A    between atoms: C_17  and  C_18
REMARK   10  A    between atoms: C_18  and  N_19
REMARK   11  A    between atoms: C_22  and  O_23
REMARK   12  A    between atoms: O_23  and  C_24
REMARK                            x       y       z     vdW  Elec       q    Type
REMARK                         _______ _______ _______ _____ _____    ______ ____
ROOT
ATOM      1  C   UNL     1       3.657   4.023  17.833  0.00  0.00    +0.000 A 
ATOM      2  C   UNL     1       3.082   2.661  17.716  0.00  0.00    +0.000 A 
ATOM      3  C   UNL     1       2.184   2.309  18.624  0.00  0.00    +0.000 A 
ATOM      4  C   UNL     1       1.735   3.257  19.665  0.00  0.00    +0.000 A 
ATOM      5  O   UNL     1       0.917   2.875  20.496  0.00  0.00    +0.000 OA
ATOM      6  N   UNL     1       2.262   4.540  19.582  0.00  0.00    +0.000 N 
ATOM      7  N   UNL     1       3.261   4.906  18.704  0.00  0.00    +0.000 NA
ENDROOT
BRANCH   1  11
ATOM      8  C   UNL     1       6.922   5.036  15.218  0.00  0.00    +0.000 A 
ATOM      9  C   UNL     1       5.912   4.158  14.787  0.00  0.00    +0.000 A 
ATOM     10  C   UNL     1       4.827   3.855  15.601  0.00  0.00    +0.000 A 
ATOM     11  C   UNL     1       4.773   4.349  16.904  0.00  0.00    +0.000 A 
ATOM     12  C   UNL     1       5.819   5.150  17.366  0.00  0.00    +0.000 A 
ATOM     13  C   UNL     1       6.905   5.495  16.544  0.00  0.00    +0.000 A 
BRANCH   8  15
ATOM     14  C   UNL     1       7.687   4.997  12.989  0.00  0.00    +0.000 C 
ATOM     15  O   UNL     1       7.891   5.442  14.338  0.00  0.00    +0.000 OA
ENDBRANCH   8  15
BRANCH  13  16
ATOM     16  O   UNL     1       7.794   6.288  17.214  0.00  0.00    +0.000 OA
ATOM     17  C   UNL     1       7.791   6.317  18.628  0.00  0.00    +0.000 C 
ENDBRANCH  13  16
ENDBRANCH   1  11
BRANCH   6  18
ATOM     18  C   UNL     1       1.768   5.573  20.488  0.00  0.00    +0.000 C 
BRANCH  18  19
ATOM     19  C   UNL     1       2.169   6.983  20.057  0.00  0.00    +0.000 C 
BRANCH  19  20
ATOM     20  C   UNL     1       1.411   8.054  20.847  0.00  0.00    +0.000 C 
BRANCH  20  21
ATOM     21  C   UNL     1       0.985   9.197  19.927  0.00  0.00    +0.000 C 
BRANCH  21  22
ATOM     22  C   UNL     1      -0.350   9.809  20.353  0.00  0.00    +0.000 C 
BRANCH  22  23
ATOM     23  C   UNL     1      -1.047  10.461  19.159  0.00  0.00    +0.000 C 
BRANCH  23  24
ATOM     24  N   UNL     1      -0.090  10.715  18.088  0.00  0.00    +0.000 NA
ATOM     25  H   UNL     1       0.150   9.838  17.629  0.00  0.00    +0.000 HD
ATOM     26  H   UNL     1       0.775  11.075  18.488  0.00  0.00    +0.000 HD
ENDBRANCH  23  24
ENDBRANCH  22  23
ENDBRANCH  21  22
ENDBRANCH  20  21
ENDBRANCH  19  20
ENDBRANCH  18  19
ENDBRANCH   6  18
TORSDOF 10
ENDMDL
MODEL 8
REMARK VINA RESULT:      -6.6      2.734      6.672
REMARK  Name = 
REMARK  12 active torsions:
REMARK  status: ('A' for Active; 'I' for Inactive)
REMARK    1  A    between atoms: C_1  and  O_2
REMARK    2  A    between atoms: O_2  and  C_3
REMARK    3  A    between atoms: C_6  and  C_7
REMARK    4  A    between atoms: N_12  and  C_13
REMARK    5  A    between atoms: C_13  and  C_14
REMARK    6  A    between atoms: C_14  and  C_15
REMARK    7  A    between atoms: C_15  and  C_16
REMARK    8  A    between atoms: C_16  and  C_17
REMARK    9  A    between atoms: C_17  and  C_18
REMARK   10  A    between atoms: C_18  and  N_19
REMARK   11  A    between atoms: C_22  and  O_23
REMARK   12  A    between atoms: O_23  and  C_24
REMARK                            x       y       z     vdW  Elec       q    Type
REMARK                         _______ _______ _______ _____ _____    ______ ____
ROOT
ATOM      1  C   UNL     1       3.794   3.855  17.988  0.00  0.00    +0.000 A 
ATOM      2  C   UNL     1       3.393   2.427  17.979  0.00  0.00    +0.000 A 
ATOM      3  C   UNL     1       2.536   2.038  18.911  0.00  0.00    +0.000 A 
ATOM      4  C   UNL     1       1.963   3.001  19.875  0.00  0.00    +0.000 A 
ATOM      5  O   UNL     1       1.192   2.586  20.734  0.00  0.00    +0.000 OA
ATOM      6  N   UNL     1       2.329   4.329  19.692  0.00  0.00    +0.000 N 
ATOM      7  N   UNL     1       3.284   4.746  18.787  0.00  0.00    +0.000 NA
ENDROOT
BRANCH   1  11
ATOM      8  C   UNL     1       6.942   5.049  15.307  0.00  0.00    +0.000 A 
ATOM      9  C   UNL     1       5.961   4.132  14.889  0.00  0.00    +0.000 A 
ATOM     10  C   UNL     1       4.912   3.769  15.725  0.00  0.00    +0.000 A 
ATOM     11  C   UNL     1       4.870   4.243  17.036  0.00  0.00    +0.000 A 
ATOM     12  C   UNL     1       5.891   5.084  17.483  0.00  0.00    +0.000 A 
ATOM     13  C   UNL     1       6.938   5.489  16.640  0.00  0.00    +0.000 A 
BRANCH   8  15
ATOM     14  C   UNL     1       7.672   5.044  13.066  0.00  0.00    +0.000 C 
ATOM     15  O   UNL     1       7.869   5.510  14.409  0.00  0.00    +0.000 OA
ENDBRANCH   8  15
BRANCH  13  16
ATOM     16  O   UNL     1       7.808   6.312  17.299  0.00  0.00    +0.000 OA
ATOM     17  C   UNL     1       7.820   6.342  18.713  0.00  0.00    +0.000 C 
ENDBRANCH  13  16
ENDBRANCH   1  11
BRANCH   6  18
ATOM     18  C   UNL     1       1.702   5.360  20.514  0.00  0.00    +0.000 C 
BRANCH  18  19
ATOM     19  C   UNL     1       2.433   6.700  20.446  0.00  0.00    +0.000 C 
BRANCH  19  20
ATOM     20  C   UNL     1       1.469   7.858  20.170  0.00  0.00    +0.000 C 
BRANCH  20  21
ATOM     21  C   UNL     1       1.154   8.611  21.462  0.00  0.00    +0.000 C 
BRANCH  21  22
ATOM     22  C   UNL     1       0.138   9.732  21.239  0.00  0.00    +0.000 C 
BRANCH  22  23
ATOM     23  C   UNL     1      -0.310  10.323  22.576  0.00  0.00    +0.000 C 
BRANCH  23  24
ATOM     24  N   UNL     1       0.344   9.633  23.682  0.00  0.00    +0.000 NA
ATOM     25  H   UNL     1      -0.317   8.998  24.127  0.00  0.00    +0.000 HD
ATOM     26  H   UNL     1       0.609  10.313  24.393  0.00  0.00    +0.000 HD
ENDBRANCH  23  24
ENDBRANCH  22  23
ENDBRANCH  21  22
ENDBRANCH  20  21
ENDBRANCH  19  20
ENDBRANCH  18  19
ENDBRANCH   6  18
TORSDOF 10
ENDMDL
MODEL 9
REMARK VINA RESULT:      -6.6      2.693      6.904
REMARK  Name = 
REMARK  12 active torsions:
REMARK  status: ('A' for Active; 'I' for Inactive)
REMARK    1  A    between atoms: C_1  and  O_2
REMARK    2  A    between atoms: O_2  and  C_3
REMARK    3  A    between atoms: C_6  and  C_7
REMARK    4  A    between atoms: N_12  and  C_13
REMARK    5  A    between atoms: C_13  and  C_14
REMARK    6  A    between atoms: C_14  and  C_15
REMARK    7  A    between atoms: C_15  and  C_16
REMARK    8  A    between atoms: C_16  and  C_17
REMARK    9  A    between atoms: C_17  and  C_18
REMARK   10  A    between atoms: C_18  and  N_19
REMARK   11  A    between atoms: C_22  and  O_23
REMARK   12  A    between atoms: O_23  and  C_24
REMARK                            x       y       z     vdW  Elec       q    Type
REMARK                         _______ _______ _______ _____ _____    ______ ____
ROOT
ATOM      1  C   UNL     1       3.587   4.431  17.594  0.00  0.00    +0.000 A 
ATOM      2  C   UNL     1       2.683   3.303  17.263  0.00  0.00    +0.000 A 
ATOM      3  C   UNL     1       1.728   3.024  18.138  0.00  0.00    +0.000 A 
ATOM      4  C   UNL     1       1.540   3.842  19.354  0.00  0.00    +0.000 A 
ATOM      5  O   UNL     1       0.655   3.528  20.144  0.00  0.00    +0.000 OA
ATOM      6  N   UNL     1       2.377   4.944  19.477  0.00  0.00    +0.000 N 
ATOM      7  N   UNL     1       3.434   5.205  18.629  0.00  0.00    +0.000 NA
ENDROOT
BRANCH   1  11
ATOM      8  C   UNL     1       6.969   5.104  15.017  0.00  0.00    +0.000 A 
ATOM      9  C   UNL     1       6.024   4.110  14.706  0.00  0.00    +0.000 A 
ATOM     10  C   UNL     1       4.902   3.909  15.501  0.00  0.00    +0.000 A 
ATOM     11  C   UNL     1       4.747   4.635  16.682  0.00  0.00    +0.000 A 
ATOM     12  C   UNL     1       5.728   5.560  17.041  0.00  0.00    +0.000 A 
ATOM     13  C   UNL     1       6.849   5.801  16.230  0.00  0.00    +0.000 A 
BRANCH   8  15
ATOM     14  C   UNL     1       7.662   5.080  12.764  0.00  0.00    +0.000 C 
ATOM     15  O   UNL     1       7.974   5.388  14.130  0.00  0.00    +0.000 OA
ENDBRANCH   8  15
BRANCH  13  16
ATOM     16  O   UNL     1       7.661   6.749  16.785  0.00  0.00    +0.000 OA
ATOM     17  C   UNL     1       7.669   6.942  18.186  0.00  0.00    +0.000 C 
ENDBRANCH  13  16
ENDBRANCH   1  11
BRANCH   6  18
ATOM     18  C   UNL     1       2.167   5.879  20.578  0.00  0.00    +0.000 C 
BRANCH  18  19
ATOM     19  C   UNL     1       1.965   7.319  20.105  0.00  0.00    +0.000 C 
BRANCH  19  20
ATOM     20  C   UNL     1       1.156   8.137  21.115  0.00  0.00    +0.000 C 
BRANCH  20  21
ATOM     21  C   UNL     1       0.866   9.532  20.562  0.00  0.00    +0.000 C 
BRANCH  21  22
ATOM     22  C   UNL     1      -0.335  10.183  21.249  0.00  0.00    +0.000 C 
BRANCH  22  23
ATOM     23  C   UNL     1      -0.034  11.644  21.585  0.00  0.00    +0.000 C 
BRANCH  23  24
ATOM     24  N   UNL     1       1.278  12.023  21.076  0.00  0.00    +0.000 NA
ATOM     25  H   UNL     1       1.271  11.996  20.057  0.00  0.00    +0.000 HD
ATOM     26  H   UNL     1       1.967  11.335  21.375  0.00  0.00    +0.000 HD
ENDBRANCH  23  24
ENDBRANCH  22  23
ENDBRANCH  21  22
ENDBRANCH  20  21
ENDBRANCH  19  20
ENDBRANCH  18  19
ENDBRANCH   6  18
TORSDOF 10
ENDMDL
