MODEL 1
REMARK VINA RESULT:      -7.6      0.000      0.000
REMARK  Name = 
REMARK  7 active torsions:
REMARK  status: ('A' for Active; 'I' for Inactive)
REMARK    1  A    between atoms: C_2  and  C_3
REMARK    2  A    between atoms: C_3  and  C_4
REMARK    3  A    between atoms: C_4  and  C_5
REMARK    4  A    between atoms: N_11  and  C_12
REMARK    5  A    between atoms: N_11  and  C_18
REMARK    6  A    between atoms: N_21  and  C_22
REMARK    7  A    between atoms: C_22  and  C_23
REMARK                            x       y       z     vdW  Elec       q    Type
REMARK                         _______ _______ _______ _____ _____    ______ ____
ROOT
ATOM      1  O   UNL     1       2.031   5.719  18.348  0.00  0.00    +0.000 OA
ATOM      2  C   UNL     1       3.161   6.151  18.096  0.00  0.00    +0.000 C 
ATOM      3  N   UNL     1       4.275   5.310  17.905  0.00  0.00    +0.000 N 
ENDROOT
BRANCH   3   4
ATOM      4  C   UNL     1       4.046   3.927  18.221  0.00  0.00    +0.000 A 
ATOM      5  C   UNL     1       4.586   3.405  19.406  0.00  0.00    +0.000 A 
ATOM      6  C   UNL     1       4.291   2.102  19.806  0.00  0.00    +0.000 A 
ATOM      7  C   UNL     1       3.503   1.287  18.995  0.00  0.00    +0.000 A 
ATOM      8  C   UNL     1       3.004   1.779  17.791  0.00  0.00    +0.000 A 
ATOM      9  C   UNL     1       3.266   3.101  17.405  0.00  0.00    +0.000 A 
ENDBRANCH   3   4
BRANCH   3  10
ATOM     10  C   UNL     1       5.694   5.727  17.571  0.00  0.00    +0.000 C 
ATOM     11  C   UNL     1       5.817   6.756  16.426  0.00  0.00    +0.000 C 
ATOM     12  C   UNL     1       5.219   6.189  15.145  0.00  0.00    +0.000 C 
ATOM     13  N   UNL     1       5.926   4.987  14.676  0.00  0.00    +0.000 NA
ATOM     14  C   UNL     1       6.178   4.000  15.741  0.00  0.00    +0.000 C 
ATOM     15  C   UNL     1       6.634   4.594  17.083  0.00  0.00    +0.000 C 
BRANCH  13  16
ATOM     16  C   UNL     1       5.120   4.393  13.582  0.00  0.00    +0.000 C 
BRANCH  16  17
ATOM     17  C   UNL     1       5.879   3.520  12.613  0.00  0.00    +0.000 A 
ATOM     18  C   UNL     1       7.205   3.831  12.270  0.00  0.00    +0.000 A 
ATOM     19  C   UNL     1       7.927   3.003  11.411  0.00  0.00    +0.000 A 
ATOM     20  C   UNL     1       7.330   1.861  10.882  0.00  0.00    +0.000 A 
ATOM     21  C   UNL     1       6.010   1.548  11.206  0.00  0.00    +0.000 A 
ATOM     22  C   UNL     1       5.287   2.372  12.068  0.00  0.00    +0.000 A 
ENDBRANCH  16  17
ENDBRANCH  13  16
ENDBRANCH   3  10
BRANCH   2  23
ATOM     23  C   UNL     1       3.351   7.650  17.953  0.00  0.00    +0.000 C 
BRANCH  23  24
ATOM     24  C   UNL     1       2.042   8.396  17.683  0.00  0.00    +0.000 C 
BRANCH  24  25
ATOM     25  C   UNL     1       1.558   9.117  18.922  0.00  0.00    +0.000 A 
ATOM     26  C   UNL     1       1.535   8.470  20.166  0.00  0.00    +0.000 A 
ATOM     27  C   UNL     1       1.071   9.135  21.303  0.00  0.00    +0.000 A 
ATOM     28  C   UNL     1       0.622  10.451  21.211  0.00  0.00    +0.000 A 
ATOM     29  C   UNL     1       0.641  11.104  19.979  0.00  0.00    +0.000 A 
ATOM     30  C   UNL     1       1.104  10.440  18.842  0.00  0.00    +0.000 A 
ENDBRANCH  24  25
ENDBRANCH  23  24
ENDBRANCH   2  23
TORSDOF 7
ENDMDL
MODEL 2
REMARK VINA RESULT:      -7.6      0.461      1.287
REMARK  Name = 
REMARK  7 active torsions:
REMARK  status: ('A' for Active; 'I' for Inactive)
REMARK    1  A    between atoms: C_2  and  C_3
REMARK    2  A    between atoms: C_3  and  C_4
REMARK    3  A    between atoms: C_4  and  C_5
REMARK    4  A    between atoms: N_11  and  C_12
REMARK    5  A    between atoms: N_11  and  C_18
REMARK    6  A    between atoms: N_21  and  C_22
REMARK    7  A    between atoms: C_22  and  C_23
REMARK                            x       y       z     vdW  Elec       q    Type
REMARK                         _______ _______ _______ _____ _____    ______ ____
ROOT
ATOM      1  O   UNL     1       1.999   5.796  18.465  0.00  0.00    +0.000 OA
ATOM      2  C   UNL     1       3.137   6.217  18.234  0.00  0.00    +0.000 C 
ATOM      3  N   UNL     1       4.235   5.364  18.004  0.00  0.00    +0.000 N 
ENDROOT
BRANCH   3   4
ATOM      4  C   UNL     1       3.979   3.973  18.256  0.00  0.00    +0.000 A 
ATOM      5  C   UNL     1       4.506   3.387  19.416  0.00  0.00    +0.000 A 
ATOM      6  C   UNL     1       4.185   2.073  19.756  0.00  0.00    +0.000 A 
ATOM      7  C   UNL     1       3.383   1.311  18.907  0.00  0.00    +0.000 A 
ATOM      8  C   UNL     1       2.896   1.868  17.726  0.00  0.00    +0.000 A 
ATOM      9  C   UNL     1       3.185   3.200  17.402  0.00  0.00    +0.000 A 
ENDBRANCH   3   4
BRANCH   3  10
ATOM     10  C   UNL     1       5.662   5.769  17.689  0.00  0.00    +0.000 C 
ATOM     11  C   UNL     1       5.809   6.804  16.553  0.00  0.00    +0.000 C 
ATOM     12  C   UNL     1       5.220   6.251  15.261  0.00  0.00    +0.000 C 
ATOM     13  N   UNL     1       5.920   5.045  14.793  0.00  0.00    +0.000 NA
ATOM     14  C   UNL     1       6.150   4.049  15.854  0.00  0.00    +0.000 C 
ATOM     15  C   UNL     1       6.595   4.629  17.205  0.00  0.00    +0.000 C 
BRANCH  13  16
ATOM     16  C   UNL     1       5.121   4.467  13.686  0.00  0.00    +0.000 C 
BRANCH  16  17
ATOM     17  C   UNL     1       5.878   3.572  12.735  0.00  0.00    +0.000 A 
ATOM     18  C   UNL     1       5.248   2.456  12.161  0.00  0.00    +0.000 A 
ATOM     19  C   UNL     1       5.927   1.652  11.246  0.00  0.00    +0.000 A 
ATOM     20  C   UNL     1       7.243   1.951  10.901  0.00  0.00    +0.000 A 
ATOM     21  C   UNL     1       7.883   3.050  11.473  0.00  0.00    +0.000 A 
ATOM     22  C   UNL     1       7.205   3.858  12.385  0.00  0.00    +0.000 A 
ENDBRANCH  16  17
ENDBRANCH  13  16
ENDBRANCH   3  10
BRANCH   2  23
ATOM     23  C   UNL     1       3.357   7.717  18.160  0.00  0.00    +0.000 C 
BRANCH  23  24
ATOM     24  C   UNL     1       2.180   8.463  17.526  0.00  0.00    +0.000 C 
BRANCH  24  25
ATOM     25  C   UNL     1       1.291   9.082  18.581  0.00  0.00    +0.000 A 
ATOM     26  C   UNL     1       0.235   9.933  18.222  0.00  0.00    +0.000 A 
ATOM     27  C   UNL     1      -0.571  10.515  19.203  0.00  0.00    +0.000 A 
ATOM     28  C   UNL     1      -0.331  10.259  20.551  0.00  0.00    +0.000 A 
ATOM     29  C   UNL     1       0.716   9.416  20.919  0.00  0.00    +0.000 A 
ATOM     30  C   UNL     1       1.523   8.834  19.940  0.00  0.00    +0.000 A 
ENDBRANCH  24  25
ENDBRANCH  23  24
ENDBRANCH   2  23
TORSDOF 7
ENDMDL
MODEL 3
REMARK VINA RESULT:      -7.5      1.353      1.896
REMARK  Name = 
REMARK  7 active torsions:
REMARK  status: ('A' for Active; 'I' for Inactive)
REMARK    1  A    between atoms: C_2  and  C_3
REMARK    2  A    between atoms: C_3  and  C_4
REMARK    3  A    between atoms: C_4  and  C_5
REMARK    4  A    between atoms: N_11  and  C_12
REMARK    5  A    between atoms: N_11  and  C_18
REMARK    6  A    between atoms: N_21  and  C_22
REMARK    7  A    between atoms: C_22  and  C_23
REMARK                            x       y       z     vdW  Elec       q    Type
REMARK                         _______ _______ _______ _____ _____    ______ ____
ROOT
ATOM      1  O   UNL     1       1.071   6.523  17.770  0.00  0.00    +0.000 OA
ATOM      2  C   UNL     1       2.226   6.888  18.016  0.00  0.00    +0.000 C 
ATOM      3  N   UNL     1       3.251   5.989  18.372  0.00  0.00    +0.000 N 
ENDROOT
BRANCH   3   4
ATOM      4  C   UNL     1       2.811   4.644  18.625  0.00  0.00    +0.000 A 
ATOM      5  C   UNL     1       2.659   3.767  17.541  0.00  0.00    +0.000 A 
ATOM      6  C   UNL     1       2.347   2.425  17.753  0.00  0.00    +0.000 A 
ATOM      7  C   UNL     1       2.123   1.959  19.047  0.00  0.00    +0.000 A 
ATOM      8  C   UNL     1       2.221   2.834  20.127  0.00  0.00    +0.000 A 
ATOM      9  C   UNL     1       2.574   4.175  19.920  0.00  0.00    +0.000 A 
ENDBRANCH   3   4
BRANCH   3  10
ATOM     10  C   UNL     1       4.701   6.320  18.670  0.00  0.00    +0.000 C 
ATOM     11  C   UNL     1       5.498   6.880  17.473  0.00  0.00    +0.000 C 
ATOM     12  C   UNL     1       5.511   5.870  16.332  0.00  0.00    +0.000 C 
ATOM     13  N   UNL     1       6.177   4.611  16.700  0.00  0.00    +0.000 NA
ATOM     14  C   UNL     1       5.748   4.078  18.006  0.00  0.00    +0.000 C 
ATOM     15  C   UNL     1       5.587   5.128  19.116  0.00  0.00    +0.000 C 
BRANCH  13  16
ATOM     16  C   UNL     1       5.915   3.634  15.616  0.00  0.00    +0.000 C 
BRANCH  16  17
ATOM     17  C   UNL     1       6.417   4.029  14.248  0.00  0.00    +0.000 A 
ATOM     18  C   UNL     1       7.434   4.988  14.117  0.00  0.00    +0.000 A 
ATOM     19  C   UNL     1       7.934   5.324  12.860  0.00  0.00    +0.000 A 
ATOM     20  C   UNL     1       7.419   4.708  11.720  0.00  0.00    +0.000 A 
ATOM     21  C   UNL     1       6.402   3.762  11.837  0.00  0.00    +0.000 A 
ATOM     22  C   UNL     1       5.902   3.422  13.094  0.00  0.00    +0.000 A 
ENDBRANCH  16  17
ENDBRANCH  13  16
ENDBRANCH   3  10
BRANCH   2  23
ATOM     23  C   UNL     1       2.565   8.362  17.895  0.00  0.00    +0.000 C 
BRANCH  23  24
ATOM     24  C   UNL     1       1.340   9.270  18.034  0.00  0.00    +0.000 C 
BRANCH  24  25
ATOM     25  C   UNL     1       0.977   9.481  19.487  0.00  0.00    +0.000 A 
ATOM     26  C   UNL     1       1.417   8.586  20.473  0.00  0.00    +0.000 A 
ATOM     27  C   UNL     1       1.064   8.775  21.811  0.00  0.00    +0.000 A 
ATOM     28  C   UNL     1       0.265   9.856  22.179  0.00  0.00    +0.000 A 
ATOM     29  C   UNL     1      -0.179  10.751  21.207  0.00  0.00    +0.000 A 
ATOM     30  C   UNL     1       0.174  10.563  19.869  0.00  0.00    +0.000 A 
ENDBRANCH  24  25
ENDBRANCH  23  24
ENDBRANCH   2  23
TORSDOF 7
ENDMDL
MODEL 4
REMARK VINA RESULT:      -7.5      1.543      1.923
REMARK  Name = 
REMARK  7 active torsions:
REMARK  status: ('A' for Active; 'I' for Inactive)
REMARK    1  A    between atoms: C_2  and  C_3
REMARK    2  A    between atoms: C_3  and  C_4
REMARK    3  A    between atoms: C_4  and  C_5
REMARK    4  A    between atoms: N_11  and  C_12
REMARK    5  A    between atoms: N_11  and  C_18
REMARK    6  A    between atoms: N_21  and  C_22
REMARK    7  A    between atoms: C_22  and  C_23
REMARK                            x       y       z     vdW  Elec       q    Type
REMARK                         _______ _______ _______ _____ _____    ______ ____
ROOT
ATOM      1  O   UNL     1       1.123   6.586  18.098  0.00  0.00    +0.000 OA
ATOM      2  C   UNL     1       2.307   6.917  18.227  0.00  0.00    +0.000 C 
ATOM      3  N   UNL     1       3.302   6.029  18.681  0.00  0.00    +0.000 N 
ENDROOT
BRANCH   3   4
ATOM      4  C   UNL     1       2.808   4.772  19.173  0.00  0.00    +0.000 A 
ATOM      5  C   UNL     1       2.638   4.607  20.556  0.00  0.00    +0.000 A 
ATOM      6  C   UNL     1       2.054   3.448  21.065  0.00  0.00    +0.000 A 
ATOM      7  C   UNL     1       1.690   2.416  20.201  0.00  0.00    +0.000 A 
ATOM      8  C   UNL     1       1.902   2.549  18.831  0.00  0.00    +0.000 A 
ATOM      9  C   UNL     1       2.453   3.729  18.313  0.00  0.00    +0.000 A 
ENDBRANCH   3   4
BRANCH   3  10
ATOM     10  C   UNL     1       4.781   6.318  18.854  0.00  0.00    +0.000 C 
ATOM     11  C   UNL     1       5.479   6.902  17.608  0.00  0.00    +0.000 C 
ATOM     12  C   UNL     1       5.361   5.934  16.438  0.00  0.00    +0.000 C 
ATOM     13  N   UNL     1       6.027   4.648  16.700  0.00  0.00    +0.000 NA
ATOM     14  C   UNL     1       5.706   4.078  18.021  0.00  0.00    +0.000 C 
ATOM     15  C   UNL     1       5.674   5.091  19.176  0.00  0.00    +0.000 C 
BRANCH  13  16
ATOM     16  C   UNL     1       5.642   3.716  15.613  0.00  0.00    +0.000 C 
BRANCH  16  17
ATOM     17  C   UNL     1       6.230   4.020  14.256  0.00  0.00    +0.000 A 
ATOM     18  C   UNL     1       7.268   4.957  14.128  0.00  0.00    +0.000 A 
ATOM     19  C   UNL     1       7.846   5.208  12.885  0.00  0.00    +0.000 A 
ATOM     20  C   UNL     1       7.389   4.531  11.756  0.00  0.00    +0.000 A 
ATOM     21  C   UNL     1       6.351   3.607  11.869  0.00  0.00    +0.000 A 
ATOM     22  C   UNL     1       5.773   3.350  13.112  0.00  0.00    +0.000 A 
ENDBRANCH  16  17
ENDBRANCH  13  16
ENDBRANCH   3  10
BRANCH   2  23
ATOM     23  C   UNL     1       2.713   8.329  17.848  0.00  0.00    +0.000 C 
BRANCH  23  24
ATOM     24  C   UNL     1       1.516   9.250  17.601  0.00  0.00    +0.000 C 
BRANCH  24  25
ATOM     25  C   UNL     1       1.420  10.321  18.664  0.00  0.00    +0.000 A 
ATOM     26  C   UNL     1       0.804  10.057  19.895  0.00  0.00    +0.000 A 
ATOM     27  C   UNL     1       0.703  11.055  20.867  0.00  0.00    +0.000 A 
ATOM     28  C   UNL     1       1.212  12.328  20.619  0.00  0.00    +0.000 A 
ATOM     29  C   UNL     1       1.826  12.602  19.399  0.00  0.00    +0.000 A 
ATOM     30  C   UNL     1       1.927  11.605  18.427  0.00  0.00    +0.000 A 
ENDBRANCH  24  25
ENDBRANCH  23  24
ENDBRANCH   2  23
TORSDOF 7
ENDMDL
MODEL 5
REMARK VINA RESULT:      -7.5      1.490      2.191
REMARK  Name = 
REMARK  7 active torsions:
REMARK  status: ('A' for Active; 'I' for Inactive)
REMARK    1  A    between atoms: C_2  and  C_3
REMARK    2  A    between atoms: C_3  and  C_4
REMARK    3  A    between atoms: C_4  and  C_5
REMARK    4  A    between atoms: N_11  and  C_12
REMARK    5  A    between atoms: N_11  and  C_18
REMARK    6  A    between atoms: N_21  and  C_22
REMARK    7  A    between atoms: C_22  and  C_23
REMARK                            x       y       z     vdW  Elec       q    Type
REMARK                         _______ _______ _______ _____ _____    ______ ____
ROOT
ATOM      1  O   UNL     1       1.165   6.670  18.083  0.00  0.00    +0.000 OA
ATOM      2  C   UNL     1       2.352   6.977  18.232  0.00  0.00    +0.000 C 
ATOM      3  N   UNL     1       3.338   6.047  18.622  0.00  0.00    +0.000 N 
ENDROOT
BRANCH   3   4
ATOM      4  C   UNL     1       2.830   4.766  19.027  0.00  0.00    +0.000 A 
ATOM      5  C   UNL     1       2.645   4.513  20.394  0.00  0.00    +0.000 A 
ATOM      6  C   UNL     1       2.047   3.328  20.821  0.00  0.00    +0.000 A 
ATOM      7  C   UNL     1       1.684   2.357  19.890  0.00  0.00    +0.000 A 
ATOM      8  C   UNL     1       1.910   2.577  18.533  0.00  0.00    +0.000 A 
ATOM      9  C   UNL     1       2.475   3.783  18.097  0.00  0.00    +0.000 A 
ENDBRANCH   3   4
BRANCH   3  10
ATOM     10  C   UNL     1       4.820   6.306  18.811  0.00  0.00    +0.000 C 
ATOM     11  C   UNL     1       5.542   6.886  17.576  0.00  0.00    +0.000 C 
ATOM     12  C   UNL     1       5.417   5.928  16.398  0.00  0.00    +0.000 C 
ATOM     13  N   UNL     1       6.055   4.627  16.658  0.00  0.00    +0.000 NA
ATOM     14  C   UNL     1       5.710   4.055  17.972  0.00  0.00    +0.000 C 
ATOM     15  C   UNL     1       5.687   5.061  19.133  0.00  0.00    +0.000 C 
BRANCH  13  16
ATOM     16  C   UNL     1       5.663   3.711  15.561  0.00  0.00    +0.000 C 
BRANCH  16  17
ATOM     17  C   UNL     1       6.295   3.993  14.219  0.00  0.00    +0.000 A 
ATOM     18  C   UNL     1       5.856   3.311  13.073  0.00  0.00    +0.000 A 
ATOM     19  C   UNL     1       6.405   3.600  11.824  0.00  0.00    +0.000 A 
ATOM     20  C   UNL     1       7.400   4.567  11.708  0.00  0.00    +0.000 A 
ATOM     21  C   UNL     1       7.852   5.243  12.841  0.00  0.00    +0.000 A 
ATOM     22  C   UNL     1       7.303   4.959  14.092  0.00  0.00    +0.000 A 
ENDBRANCH  16  17
ENDBRANCH  13  16
ENDBRANCH   3  10
BRANCH   2  23
ATOM     23  C   UNL     1       2.776   8.407  17.951  0.00  0.00    +0.000 C 
BRANCH  23  24
ATOM     24  C   UNL     1       1.595   9.326  17.624  0.00  0.00    +0.000 C 
BRANCH  24  25
ATOM     25  C   UNL     1       1.363  10.332  18.728  0.00  0.00    +0.000 A 
ATOM     26  C   UNL     1       1.757  11.670  18.574  0.00  0.00    +0.000 A 
ATOM     27  C   UNL     1       1.556  12.592  19.604  0.00  0.00    +0.000 A 
ATOM     28  C   UNL     1       0.964  12.189  20.799  0.00  0.00    +0.000 A 
ATOM     29  C   UNL     1       0.570  10.862  20.964  0.00  0.00    +0.000 A 
ATOM     30  C   UNL     1       0.771   9.940  19.935  0.00  0.00    +0.000 A 
ENDBRANCH  24  25
ENDBRANCH  23  24
ENDBRANCH   2  23
TORSDOF 7
ENDMDL
MODEL 6
REMARK VINA RESULT:      -7.4      1.287      2.157
REMARK  Name = 
REMARK  7 active torsions:
REMARK  status: ('A' for Active; 'I' for Inactive)
REMARK    1  A    between atoms: C_2  and  C_3
REMARK    2  A    between atoms: C_3  and  C_4
REMARK    3  A    between atoms: C_4  and  C_5
REMARK    4  A    between atoms: N_11  and  C_12
REMARK    5  A    between atoms: N_11  and  C_18
REMARK    6  A    between atoms: N_21  and  C_22
REMARK    7  A    between atoms: C_22  and  C_23
REMARK                            x       y       z     vdW  Elec       q    Type
REMARK                         _______ _______ _______ _____ _____    ______ ____
ROOT
ATOM      1  O   UNL     1       1.232   5.445  19.537  0.00  0.00    +0.000 OA
ATOM      2  C   UNL     1       2.276   6.101  19.471  0.00  0.00    +0.000 C 
ATOM      3  N   UNL     1       3.508   5.541  19.076  0.00  0.00    +0.000 N 
ENDROOT
BRANCH   3   4
ATOM      4  C   UNL     1       3.504   4.110  18.949  0.00  0.00    +0.000 A 
ATOM      5  C   UNL     1       2.985   3.536  17.779  0.00  0.00    +0.000 A 
ATOM      6  C   UNL     1       3.067   2.160  17.567  0.00  0.00    +0.000 A 
ATOM      7  C   UNL     1       3.615   1.336  18.549  0.00  0.00    +0.000 A 
ATOM      8  C   UNL     1       4.088   1.891  19.737  0.00  0.00    +0.000 A 
ATOM      9  C   UNL     1       4.042   3.278  19.936  0.00  0.00    +0.000 A 
ENDBRANCH   3   4
BRANCH   3  10
ATOM     10  C   UNL     1       4.839   6.254  18.937  0.00  0.00    +0.000 C 
ATOM     11  C   UNL     1       5.069   6.941  17.574  0.00  0.00    +0.000 C 
ATOM     12  C   UNL     1       5.010   5.913  16.452  0.00  0.00    +0.000 C 
ATOM     13  N   UNL     1       6.063   4.892  16.565  0.00  0.00    +0.000 NA
ATOM     14  C   UNL     1       6.196   4.332  17.922  0.00  0.00    +0.000 C 
ATOM     15  C   UNL     1       6.099   5.358  19.061  0.00  0.00    +0.000 C 
BRANCH  13  16
ATOM     16  C   UNL     1       5.760   3.827  15.579  0.00  0.00    +0.000 C 
BRANCH  16  17
ATOM     17  C   UNL     1       6.320   4.043  14.194  0.00  0.00    +0.000 A 
ATOM     18  C   UNL     1       5.804   3.326  13.103  0.00  0.00    +0.000 A 
ATOM     19  C   UNL     1       6.286   3.554  11.814  0.00  0.00    +0.000 A 
ATOM     20  C   UNL     1       7.292   4.495  11.605  0.00  0.00    +0.000 A 
ATOM     21  C   UNL     1       7.820   5.205  12.682  0.00  0.00    +0.000 A 
ATOM     22  C   UNL     1       7.337   4.982  13.972  0.00  0.00    +0.000 A 
ENDBRANCH  16  17
ENDBRANCH  13  16
ENDBRANCH   3  10
BRANCH   2  23
ATOM     23  C   UNL     1       2.226   7.583  19.796  0.00  0.00    +0.000 C 
BRANCH  23  24
ATOM     24  C   UNL     1       1.959   8.456  18.566  0.00  0.00    +0.000 C 
BRANCH  24  25
ATOM     25  C   UNL     1       0.881   9.479  18.845  0.00  0.00    +0.000 A 
ATOM     26  C   UNL     1       0.920  10.264  20.007  0.00  0.00    +0.000 A 
ATOM     27  C   UNL     1      -0.087  11.195  20.268  0.00  0.00    +0.000 A 
ATOM     28  C   UNL     1      -1.146  11.351  19.376  0.00  0.00    +0.000 A 
ATOM     29  C   UNL     1      -1.195  10.576  18.218  0.00  0.00    +0.000 A 
ATOM     30  C   UNL     1      -0.189   9.645  17.956  0.00  0.00    +0.000 A 
ENDBRANCH  24  25
ENDBRANCH  23  24
ENDBRANCH   2  23
TORSDOF 7
ENDMDL
MODEL 7
REMARK VINA RESULT:      -7.4      1.536      2.058
REMARK  Name = 
REMARK  7 active torsions:
REMARK  status: ('A' for Active; 'I' for Inactive)
REMARK    1  A    between atoms: C_2  and  C_3
REMARK    2  A    between atoms: C_3  and  C_4
REMARK    3  A    between atoms: C_4  and  C_5
REMARK    4  A    between atoms: N_11  and  C_12
REMARK    5  A    between atoms: N_11  and  C_18
REMARK    6  A    between atoms: N_21  and  C_22
REMARK    7  A    between atoms: C_22  and  C_23
REMARK                            x       y       z     vdW  Elec       q    Type
REMARK                         _______ _______ _______ _____ _____    ______ ____
ROOT
ATOM      1  O   UNL     1       1.092   6.568  17.844  0.00  0.00    +0.000 OA
ATOM      2  C   UNL     1       2.278   6.827  18.076  0.00  0.00    +0.000 C 
ATOM      3  N   UNL     1       3.184   5.871  18.579  0.00  0.00    +0.000 N 
ENDROOT
BRANCH   3   4
ATOM      4  C   UNL     1       2.584   4.632  18.990  0.00  0.00    +0.000 A 
ATOM      5  C   UNL     1       2.292   4.440  20.349  0.00  0.00    +0.000 A 
ATOM      6  C   UNL     1       1.607   3.302  20.773  0.00  0.00    +0.000 A 
ATOM      7  C   UNL     1       1.259   2.316  19.852  0.00  0.00    +0.000 A 
ATOM      8  C   UNL     1       1.590   2.473  18.507  0.00  0.00    +0.000 A 
ATOM      9  C   UNL     1       2.244   3.634  18.072  0.00  0.00    +0.000 A 
ENDBRANCH   3   4
BRANCH   3  10
ATOM     10  C   UNL     1       4.657   6.071  18.876  0.00  0.00    +0.000 C 
ATOM     11  C   UNL     1       5.470   6.714  17.733  0.00  0.00    +0.000 C 
ATOM     12  C   UNL     1       5.394   5.846  16.483  0.00  0.00    +0.000 C 
ATOM     13  N   UNL     1       5.981   4.512  16.685  0.00  0.00    +0.000 NA
ATOM     14  C   UNL     1       5.539   3.859  17.931  0.00  0.00    +0.000 C 
ATOM     15  C   UNL     1       5.469   4.780  19.159  0.00  0.00    +0.000 C 
BRANCH  13  16
ATOM     16  C   UNL     1       5.635   3.688  15.503  0.00  0.00    +0.000 C 
BRANCH  16  17
ATOM     17  C   UNL     1       6.351   4.050  14.224  0.00  0.00    +0.000 A 
ATOM     18  C   UNL     1       5.984   3.445  13.012  0.00  0.00    +0.000 A 
ATOM     19  C   UNL     1       6.610   3.809  11.821  0.00  0.00    +0.000 A 
ATOM     20  C   UNL     1       7.613   4.776  11.830  0.00  0.00    +0.000 A 
ATOM     21  C   UNL     1       7.994   5.376  13.029  0.00  0.00    +0.000 A 
ATOM     22  C   UNL     1       7.367   5.017  14.222  0.00  0.00    +0.000 A 
ENDBRANCH  16  17
ENDBRANCH  13  16
ENDBRANCH   3  10
BRANCH   2  23
ATOM     23  C   UNL     1       2.790   8.224  17.776  0.00  0.00    +0.000 C 
BRANCH  23  24
ATOM     24  C   UNL     1       1.700   9.294  17.872  0.00  0.00    +0.000 C 
BRANCH  24  25
ATOM     25  C   UNL     1       1.134   9.374  19.272  0.00  0.00    +0.000 A 
ATOM     26  C   UNL     1       1.750   8.696  20.335  0.00  0.00    +0.000 A 
ATOM     27  C   UNL     1       1.213   8.759  21.623  0.00  0.00    +0.000 A 
ATOM     28  C   UNL     1       0.055   9.495  21.864  0.00  0.00    +0.000 A 
ATOM     29  C   UNL     1      -0.566  10.171  20.816  0.00  0.00    +0.000 A 
ATOM     30  C   UNL     1      -0.030  10.109  19.528  0.00  0.00    +0.000 A 
ENDBRANCH  24  25
ENDBRANCH  23  24
ENDBRANCH   2  23
TORSDOF 7
ENDMDL
MODEL 8
REMARK VINA RESULT:      -7.3      1.417      2.326
REMARK  Name = 
REMARK  7 active torsions:
REMARK  status: ('A' for Active; 'I' for Inactive)
REMARK    1  A    between atoms: C_2  and  C_3
REMARK    2  A    between atoms: C_3  and  C_4
REMARK    3  A    between atoms: C_4  and  C_5
REMARK    4  A    between atoms: N_11  and  C_12
REMARK    5  A    between atoms: N_11  and  C_18
REMARK    6  A    between atoms: N_21  and  C_22
REMARK    7  A    between atoms: C_22  and  C_23
REMARK                            x       y       z     vdW  Elec       q    Type
REMARK                         _______ _______ _______ _____ _____    ______ ____
ROOT
ATOM      1  O   UNL     1       1.156   4.952  20.328  0.00  0.00    +0.000 OA
ATOM      2  C   UNL     1       2.122   5.712  20.208  0.00  0.00    +0.000 C 
ATOM      3  N   UNL     1       3.273   5.374  19.469  0.00  0.00    +0.000 N 
ENDROOT
BRANCH   3   4
ATOM      4  C   UNL     1       3.327   4.006  19.033  0.00  0.00    +0.000 A 
ATOM      5  C   UNL     1       4.050   3.080  19.799  0.00  0.00    +0.000 A 
ATOM      6  C   UNL     1       4.032   1.723  19.476  0.00  0.00    +0.000 A 
ATOM      7  C   UNL     1       3.340   1.287  18.347  0.00  0.00    +0.000 A 
ATOM      8  C   UNL     1       2.660   2.206  17.550  0.00  0.00    +0.000 A 
ATOM      9  C   UNL     1       2.645   3.564  17.895  0.00  0.00    +0.000 A 
ENDBRANCH   3   4
BRANCH   3  10
ATOM     10  C   UNL     1       4.501   6.233  19.236  0.00  0.00    +0.000 C 
ATOM     11  C   UNL     1       4.521   6.986  17.889  0.00  0.00    +0.000 C 
ATOM     12  C   UNL     1       4.461   5.994  16.733  0.00  0.00    +0.000 C 
ATOM     13  N   UNL     1       5.623   5.092  16.702  0.00  0.00    +0.000 NA
ATOM     14  C   UNL     1       5.948   4.506  18.015  0.00  0.00    +0.000 C 
ATOM     15  C   UNL     1       5.855   5.478  19.202  0.00  0.00    +0.000 C 
BRANCH  13  16
ATOM     16  C   UNL     1       5.339   4.033  15.704  0.00  0.00    +0.000 C 
BRANCH  16  17
ATOM     17  C   UNL     1       6.062   4.169  14.386  0.00  0.00    +0.000 A 
ATOM     18  C   UNL     1       5.618   3.460  13.259  0.00  0.00    +0.000 A 
ATOM     19  C   UNL     1       6.254   3.616  12.028  0.00  0.00    +0.000 A 
ATOM     20  C   UNL     1       7.342   4.479  11.912  0.00  0.00    +0.000 A 
ATOM     21  C   UNL     1       7.799   5.180  13.027  0.00  0.00    +0.000 A 
ATOM     22  C   UNL     1       7.163   5.028  14.259  0.00  0.00    +0.000 A 
ENDBRANCH  16  17
ENDBRANCH  13  16
ENDBRANCH   3  10
BRANCH   2  23
ATOM     23  C   UNL     1       2.054   7.084  20.855  0.00  0.00    +0.000 C 
BRANCH  23  24
ATOM     24  C   UNL     1       1.458   8.151  19.932  0.00  0.00    +0.000 C 
BRANCH  24  25
ATOM     25  C   UNL     1       0.702   9.196  20.720  0.00  0.00    +0.000 A 
ATOM     26  C   UNL     1       0.463  10.468  20.180  0.00  0.00    +0.000 A 
ATOM     27  C   UNL     1      -0.221  11.436  20.920  0.00  0.00    +0.000 A 
ATOM     28  C   UNL     1      -0.670  11.146  22.207  0.00  0.00    +0.000 A 
ATOM     29  C   UNL     1      -0.438   9.886  22.753  0.00  0.00    +0.000 A 
ATOM     30  C   UNL     1       0.246   8.918  22.015  0.00  0.00    +0.000 A 
ENDBRANCH  24  25
ENDBRANCH  23  24
ENDBRANCH   2  23
TORSDOF 7
ENDMDL
MODEL 9
REMARK VINA RESULT:      -7.3      1.464      2.330
REMARK  Name = 
REMARK  7 active torsions:
REMARK  status: ('A' for Active; 'I' for Inactive)
REMARK    1  A    between atoms: C_2  and  C_3
REMARK    2  A    between atoms: C_3  and  C_4
REMARK    3  A    between atoms: C_4  and  C_5
REMARK    4  A    between atoms: N_11  and  C_12
REMARK    5  A    between atoms: N_11  and  C_18
REMARK    6  A    between atoms: N_21  and  C_22
REMARK    7  A    between atoms: C_22  and  C_23
REMARK                            x       y       z     vdW  Elec       q    Type
REMARK                         _______ _______ _______ _____ _____    ______ ____
ROOT
ATOM      1  O   UNL     1       1.002   6.670  17.667  0.00  0.00    +0.000 OA
ATOM      2  C   UNL     1       2.169   6.957  17.955  0.00  0.00    +0.000 C 
ATOM      3  N   UNL     1       3.099   6.002  18.414  0.00  0.00    +0.000 N 
ENDROOT
BRANCH   3   4
ATOM      4  C   UNL     1       2.539   4.713  18.713  0.00  0.00    +0.000 A 
ATOM      5  C   UNL     1       2.427   3.768  17.683  0.00  0.00    +0.000 A 
ATOM      6  C   UNL     1       1.998   2.469  17.954  0.00  0.00    +0.000 A 
ATOM      7  C   UNL     1       1.619   2.119  19.249  0.00  0.00    +0.000 A 
ATOM      8  C   UNL     1       1.678   3.065  20.270  0.00  0.00    +0.000 A 
ATOM      9  C   UNL     1       2.146   4.359  20.008  0.00  0.00    +0.000 A 
ENDBRANCH   3   4
BRANCH   3  10
ATOM     10  C   UNL     1       4.554   6.236  18.772  0.00  0.00    +0.000 C 
ATOM     11  C   UNL     1       5.422   6.802  17.628  0.00  0.00    +0.000 C 
ATOM     12  C   UNL     1       5.416   5.844  16.443  0.00  0.00    +0.000 C 
ATOM     13  N   UNL     1       5.998   4.534  16.773  0.00  0.00    +0.000 NA
ATOM     14  C   UNL     1       5.495   3.969  18.038  0.00  0.00    +0.000 C 
ATOM     15  C   UNL     1       5.356   4.976  19.190  0.00  0.00    +0.000 C 
BRANCH  13  16
ATOM     16  C   UNL     1       5.719   3.623  15.637  0.00  0.00    +0.000 C 
BRANCH  16  17
ATOM     17  C   UNL     1       6.369   3.996  14.327  0.00  0.00    +0.000 A 
ATOM     18  C   UNL     1       5.947   3.394  13.131  0.00  0.00    +0.000 A 
ATOM     19  C   UNL     1       6.512   3.769  11.912  0.00  0.00    +0.000 A 
ATOM     20  C   UNL     1       7.508   4.743  11.877  0.00  0.00    +0.000 A 
ATOM     21  C   UNL     1       7.942   5.340  13.060  0.00  0.00    +0.000 A 
ATOM     22  C   UNL     1       7.377   4.970  14.280  0.00  0.00    +0.000 A 
ENDBRANCH  16  17
ENDBRANCH  13  16
ENDBRANCH   3  10
BRANCH   2  23
ATOM     23  C   UNL     1       2.632   8.391  17.775  0.00  0.00    +0.000 C 
BRANCH  23  24
ATOM     24  C   UNL     1       1.510   9.412  17.985  0.00  0.00    +0.000 C 
BRANCH  24  25
ATOM     25  C   UNL     1       1.038   9.418  19.422  0.00  0.00    +0.000 A 
ATOM     26  C   UNL     1      -0.054  10.205  19.814  0.00  0.00    +0.000 A 
ATOM     27  C   UNL     1      -0.475  10.221  21.147  0.00  0.00    +0.000 A 
ATOM     28  C   UNL     1       0.192   9.456  22.101  0.00  0.00    +0.000 A 
ATOM     29  C   UNL     1       1.280   8.671  21.722  0.00  0.00    +0.000 A 
ATOM     30  C   UNL     1       1.701   8.655  20.391  0.00  0.00    +0.000 A 
ENDBRANCH  24  25
ENDBRANCH  23  24
ENDBRANCH   2  23
TORSDOF 7
ENDMDL
