MODEL 1
REMARK VINA RESULT:      -8.2      0.000      0.000
REMARK  Name = 
REMARK  12 active torsions:
REMARK  status: ('A' for Active; 'I' for Inactive)
REMARK    1  A    between atoms: C_1  and  C_2
REMARK    2  A    between atoms: C_2  and  C_3
REMARK    3  A    between atoms: C_2  and  C_4
REMARK    4  A    between atoms: C_7  and  C_8
REMARK    5  A    between atoms: C_8  and  C_9
REMARK    6  A    between atoms: C_9  and  C_10
REMARK    7  A    between atoms: C_16  and  C_17
REMARK    8  A    between atoms: C_17  and  C_18
REMARK    9  A    between atoms: C_18  and  C_19
REMARK   10  A    between atoms: C_19  and  O_21
REMARK   11  A    between atoms: C_22  and  N_23
REMARK   12  A    between atoms: C_27  and  O_28
REMARK                            x       y       z     vdW  Elec       q    Type
REMARK                         _______ _______ _______ _____ _____    ______ ____
ROOT
ATOM      1  C   UNL     1       0.352   9.516  21.420  0.00  0.00    +0.000 A 
ATOM      2  C   UNL     1       0.843  10.274  20.288  0.00  0.00    +0.000 A 
ATOM      3  C   UNL     1       1.537   9.662  19.324  0.00  0.00    +0.000 A 
ATOM      4  N   UNL     1       1.805   8.299  19.364  0.00  0.00    +0.000 N 
ATOM      5  C   UNL     1       2.503   7.735  18.325  0.00  0.00    +0.000 A 
ATOM      6  O   UNL     1       2.857   8.382  17.343  0.00  0.00    +0.000 OA
ATOM      7  C   UNL     1       2.810   6.289  18.428  0.00  0.00    +0.000 A 
ATOM      8  C   UNL     1       2.286   5.597  19.472  0.00  0.00    +0.000 A 
ATOM      9  N   UNL     1       1.545   6.218  20.452  0.00  0.00    +0.000 NA
ATOM     10  C   UNL     1       1.350   7.499  20.384  0.00  0.00    +0.000 A 
ATOM     11  C   UNL     1       0.589   8.194  21.469  0.00  0.00    +0.000 A 
ENDROOT
BRANCH   8  12
ATOM     12  N   UNL     1       2.445   4.205  19.540  0.00  0.00    +0.000 N 
ATOM     13  C   UNL     1       1.454   3.280  18.984  0.00  0.00    +0.000 C 
ATOM     14  C   UNL     1       2.180   2.312  18.038  0.00  0.00    +0.000 C 
ATOM     15  C   UNL     1       3.311   1.565  18.753  0.00  0.00    +0.000 C 
ATOM     16  C   UNL     1       4.269   2.540  19.440  0.00  0.00    +0.000 C 
ATOM     17  C   UNL     1       3.491   3.539  20.329  0.00  0.00    +0.000 C 
BRANCH  16  18
ATOM     18  O   UNL     1       5.255   1.840  20.192  0.00  0.00    +0.000 OA
ATOM     19  H   UNL     1       6.130   2.123  19.882  0.00  0.00    +0.000 HD
ENDBRANCH  16  18
ENDBRANCH   8  12
BRANCH   1  20
ATOM     20  C   UNL     1      -0.378  10.303  22.490  0.00  0.00    +0.000 C 
BRANCH  20  21
ATOM     21  C   UNL     1      -0.504  11.798  22.190  0.00  0.00    +0.000 C 
BRANCH  21  25
ATOM     22  C   UNL     1      -3.986  12.821  22.563  0.00  0.00    +0.000 A 
ATOM     23  C   UNL     1      -4.070  12.941  21.188  0.00  0.00    +0.000 A 
ATOM     24  S   UNL     1      -2.571  12.534  20.465  0.00  0.00    +0.000 S 
ATOM     25  C   UNL     1      -1.927  12.211  22.021  0.00  0.00    +0.000 A 
ATOM     26  N   UNL     1      -2.756  12.386  23.026  0.00  0.00    +0.000 NA
BRANCH  22  28
ATOM     27  C   UNL     1      -6.447  12.790  22.993  0.00  0.00    +0.000 C 
ATOM     28  C   UNL     1      -5.066  13.106  23.570  0.00  0.00    +0.000 C 
ATOM     29  C   UNL     1      -4.843  12.317  24.862  0.00  0.00    +0.000 C 
ENDBRANCH  22  28
ENDBRANCH  21  25
ENDBRANCH  20  21
ENDBRANCH   1  20
BRANCH   7  30
ATOM     30  C   UNL     1       3.596   5.655  17.300  0.00  0.00    +0.000 C 
BRANCH  30  31
ATOM     31  C   UNL     1       5.118   5.566  17.390  0.00  0.00    +0.000 C 
BRANCH  31  32
ATOM     32  C   UNL     1       5.780   6.664  16.594  0.00  0.00    +0.000 C 
ATOM     33  O   UNL     1       6.824   7.224  16.882  0.00  0.00    +0.000 OA
BRANCH  32  34
ATOM     34  O   UNL     1       5.079   6.960  15.473  0.00  0.00    +0.000 OA
ATOM     35  H   UNL     1       5.482   7.685  14.954  0.00  0.00    +0.000 HD
ENDBRANCH  32  34
ENDBRANCH  31  32
ENDBRANCH  30  31
ENDBRANCH   7  30
TORSDOF 10
ENDMDL
MODEL 2
REMARK VINA RESULT:      -7.8      2.680      4.349
REMARK  Name = 
REMARK  12 active torsions:
REMARK  status: ('A' for Active; 'I' for Inactive)
REMARK    1  A    between atoms: C_1  and  C_2
REMARK    2  A    between atoms: C_2  and  C_3
REMARK    3  A    between atoms: C_2  and  C_4
REMARK    4  A    between atoms: C_7  and  C_8
REMARK    5  A    between atoms: C_8  and  C_9
REMARK    6  A    between atoms: C_9  and  C_10
REMARK    7  A    between atoms: C_16  and  C_17
REMARK    8  A    between atoms: C_17  and  C_18
REMARK    9  A    between atoms: C_18  and  C_19
REMARK   10  A    between atoms: C_19  and  O_21
REMARK   11  A    between atoms: C_22  and  N_23
REMARK   12  A    between atoms: C_27  and  O_28
REMARK                            x       y       z     vdW  Elec       q    Type
REMARK                         _______ _______ _______ _____ _____    ______ ____
ROOT
ATOM      1  C   UNL     1       1.383   9.465  19.123  0.00  0.00    +0.000 A 
ATOM      2  C   UNL     1       0.892   8.866  20.348  0.00  0.00    +0.000 A 
ATOM      3  C   UNL     1       1.242   7.618  20.669  0.00  0.00    +0.000 A 
ATOM      4  N   UNL     1       2.081   6.859  19.862  0.00  0.00    +0.000 N 
ATOM      5  C   UNL     1       2.417   5.592  20.269  0.00  0.00    +0.000 A 
ATOM      6  O   UNL     1       2.041   5.125  21.341  0.00  0.00    +0.000 OA
ATOM      7  C   UNL     1       3.274   4.798  19.358  0.00  0.00    +0.000 A 
ATOM      8  C   UNL     1       3.764   5.407  18.247  0.00  0.00    +0.000 A 
ATOM      9  N   UNL     1       3.430   6.704  17.928  0.00  0.00    +0.000 NA
ATOM     10  C   UNL     1       2.617   7.359  18.700  0.00  0.00    +0.000 A 
ATOM     11  C   UNL     1       2.207   8.751  18.336  0.00  0.00    +0.000 A 
ENDROOT
BRANCH   8  12
ATOM     12  N   UNL     1       4.679   4.734  17.425  0.00  0.00    +0.000 N 
ATOM     13  C   UNL     1       4.359   4.361  16.045  0.00  0.00    +0.000 C 
ATOM     14  C   UNL     1       5.466   4.907  15.131  0.00  0.00    +0.000 C 
ATOM     15  C   UNL     1       6.848   4.393  15.549  0.00  0.00    +0.000 C 
ATOM     16  C   UNL     1       7.119   4.674  17.029  0.00  0.00    +0.000 C 
ATOM     17  C   UNL     1       5.948   4.170  17.905  0.00  0.00    +0.000 C 
BRANCH  16  18
ATOM     18  O   UNL     1       8.355   4.100  17.438  0.00  0.00    +0.000 OA
ATOM     19  H   UNL     1       9.022   4.804  17.466  0.00  0.00    +0.000 HD
ENDBRANCH  16  18
ENDBRANCH   8  12
BRANCH   1  20
ATOM     20  C   UNL     1       0.890  10.864  18.813  0.00  0.00    +0.000 C 
BRANCH  20  21
ATOM     21  C   UNL     1       0.103  11.516  19.953  0.00  0.00    +0.000 C 
BRANCH  21  25
ATOM     22  C   UNL     1      -3.270  11.445  18.564  0.00  0.00    +0.000 A 
ATOM     23  C   UNL     1      -3.633  12.427  19.466  0.00  0.00    +0.000 A 
ATOM     24  S   UNL     1      -2.293  12.862  20.441  0.00  0.00    +0.000 S 
ATOM     25  C   UNL     1      -1.327  11.732  19.586  0.00  0.00    +0.000 A 
ATOM     26  N   UNL     1      -1.939  11.067  18.633  0.00  0.00    +0.000 NA
BRANCH  22  28
ATOM     27  C   UNL     1      -5.616  11.151  17.757  0.00  0.00    +0.000 C 
ATOM     28  C   UNL     1      -4.149  10.771  17.547  0.00  0.00    +0.000 C 
ATOM     29  C   UNL     1      -3.716  11.118  16.121  0.00  0.00    +0.000 C 
ENDBRANCH  22  28
ENDBRANCH  21  25
ENDBRANCH  20  21
ENDBRANCH   1  20
BRANCH   7  30
ATOM     30  C   UNL     1       3.638   3.392  19.783  0.00  0.00    +0.000 C 
BRANCH  30  31
ATOM     31  C   UNL     1       2.553   2.321  19.879  0.00  0.00    +0.000 C 
BRANCH  31  32
ATOM     32  C   UNL     1       1.767   2.219  18.595  0.00  0.00    +0.000 C 
ATOM     33  O   UNL     1       0.606   2.557  18.441  0.00  0.00    +0.000 OA
BRANCH  32  34
ATOM     34  O   UNL     1       2.519   1.714  17.588  0.00  0.00    +0.000 OA
ATOM     35  H   UNL     1       3.306   1.230  17.907  0.00  0.00    +0.000 HD
ENDBRANCH  32  34
ENDBRANCH  31  32
ENDBRANCH  30  31
ENDBRANCH   7  30
TORSDOF 10
ENDMDL
MODEL 3
REMARK VINA RESULT:      -7.8      0.981      1.657
REMARK  Name = 
REMARK  12 active torsions:
REMARK  status: ('A' for Active; 'I' for Inactive)
REMARK    1  A    between atoms: C_1  and  C_2
REMARK    2  A    between atoms: C_2  and  C_3
REMARK    3  A    between atoms: C_2  and  C_4
REMARK    4  A    between atoms: C_7  and  C_8
REMARK    5  A    between atoms: C_8  and  C_9
REMARK    6  A    between atoms: C_9  and  C_10
REMARK    7  A    between atoms: C_16  and  C_17
REMARK    8  A    between atoms: C_17  and  C_18
REMARK    9  A    between atoms: C_18  and  C_19
REMARK   10  A    between atoms: C_19  and  O_21
REMARK   11  A    between atoms: C_22  and  N_23
REMARK   12  A    between atoms: C_27  and  O_28
REMARK                            x       y       z     vdW  Elec       q    Type
REMARK                         _______ _______ _______ _____ _____    ______ ____
ROOT
ATOM      1  C   UNL     1       0.185   9.779  21.601  0.00  0.00    +0.000 A 
ATOM      2  C   UNL     1       0.652  10.539  20.459  0.00  0.00    +0.000 A 
ATOM      3  C   UNL     1       1.339   9.932  19.487  0.00  0.00    +0.000 A 
ATOM      4  N   UNL     1       1.623   8.572  19.528  0.00  0.00    +0.000 N 
ATOM      5  C   UNL     1       2.314   8.012  18.482  0.00  0.00    +0.000 A 
ATOM      6  O   UNL     1       2.646   8.660  17.492  0.00  0.00    +0.000 OA
ATOM      7  C   UNL     1       2.638   6.570  18.585  0.00  0.00    +0.000 A 
ATOM      8  C   UNL     1       2.138   5.876  19.638  0.00  0.00    +0.000 A 
ATOM      9  N   UNL     1       1.403   6.491  20.626  0.00  0.00    +0.000 NA
ATOM     10  C   UNL     1       1.192   7.770  20.557  0.00  0.00    +0.000 A 
ATOM     11  C   UNL     1       0.439   8.460  21.651  0.00  0.00    +0.000 A 
ENDROOT
BRANCH   8  12
ATOM     12  N   UNL     1       2.314   4.486  19.709  0.00  0.00    +0.000 N 
ATOM     13  C   UNL     1       1.258   3.547  19.322  0.00  0.00    +0.000 C 
ATOM     14  C   UNL     1       1.843   2.563  18.297  0.00  0.00    +0.000 C 
ATOM     15  C   UNL     1       3.072   1.834  18.852  0.00  0.00    +0.000 C 
ATOM     16  C   UNL     1       4.114   2.826  19.373  0.00  0.00    +0.000 C 
ATOM     17  C   UNL     1       3.468   3.839  20.347  0.00  0.00    +0.000 C 
BRANCH  16  18
ATOM     18  O   UNL     1       5.204   2.145  19.985  0.00  0.00    +0.000 OA
ATOM     19  H   UNL     1       5.559   2.711  20.689  0.00  0.00    +0.000 HD
ENDBRANCH  16  18
ENDBRANCH   8  12
BRANCH   1  20
ATOM     20  C   UNL     1      -0.538  10.561  22.679  0.00  0.00    +0.000 C 
BRANCH  20  21
ATOM     21  C   UNL     1      -0.750  12.039  22.343  0.00  0.00    +0.000 C 
BRANCH  21  25
ATOM     22  C   UNL     1      -4.203  12.650  21.337  0.00  0.00    +0.000 A 
ATOM     23  C   UNL     1      -4.501  12.966  22.650  0.00  0.00    +0.000 A 
ATOM     24  S   UNL     1      -3.099  12.831  23.626  0.00  0.00    +0.000 S 
ATOM     25  C   UNL     1      -2.198  12.382  22.238  0.00  0.00    +0.000 A 
ATOM     26  N   UNL     1      -2.874  12.332  21.112  0.00  0.00    +0.000 NA
BRANCH  22  28
ATOM     27  C   UNL     1      -5.678  14.021  19.859  0.00  0.00    +0.000 C 
ATOM     28  C   UNL     1      -5.150  12.619  20.170  0.00  0.00    +0.000 C 
ATOM     29  C   UNL     1      -4.482  12.024  18.928  0.00  0.00    +0.000 C 
ENDBRANCH  22  28
ENDBRANCH  21  25
ENDBRANCH  20  21
ENDBRANCH   1  20
BRANCH   7  30
ATOM     30  C   UNL     1       3.416   5.942  17.448  0.00  0.00    +0.000 C 
BRANCH  30  31
ATOM     31  C   UNL     1       4.939   5.855  17.524  0.00  0.00    +0.000 C 
BRANCH  31  32
ATOM     32  C   UNL     1       5.590   6.650  16.420  0.00  0.00    +0.000 C 
ATOM     33  O   UNL     1       5.107   6.877  15.323  0.00  0.00    +0.000 OA
BRANCH  32  34
ATOM     34  O   UNL     1       6.805   7.120  16.792  0.00  0.00    +0.000 OA
ATOM     35  H   UNL     1       7.194   6.619  17.536  0.00  0.00    +0.000 HD
ENDBRANCH  32  34
ENDBRANCH  31  32
ENDBRANCH  30  31
ENDBRANCH   7  30
TORSDOF 10
ENDMDL
MODEL 4
REMARK VINA RESULT:      -7.8      2.706      4.421
REMARK  Name = 
REMARK  12 active torsions:
REMARK  status: ('A' for Active; 'I' for Inactive)
REMARK    1  A    between atoms: C_1  and  C_2
REMARK    2  A    between atoms: C_2  and  C_3
REMARK    3  A    between atoms: C_2  and  C_4
REMARK    4  A    between atoms: C_7  and  C_8
REMARK    5  A    between atoms: C_8  and  C_9
REMARK    6  A    between atoms: C_9  and  C_10
REMARK    7  A    between atoms: C_16  and  C_17
REMARK    8  A    between atoms: C_17  and  C_18
REMARK    9  A    between atoms: C_18  and  C_19
REMARK   10  A    between atoms: C_19  and  O_21
REMARK   11  A    between atoms: C_22  and  N_23
REMARK   12  A    between atoms: C_27  and  O_28
REMARK                            x       y       z     vdW  Elec       q    Type
REMARK                         _______ _______ _______ _____ _____    ______ ____
ROOT
ATOM      1  C   UNL     1       1.058   9.871  18.940  0.00  0.00    +0.000 A 
ATOM      2  C   UNL     1       0.672   9.057  20.074  0.00  0.00    +0.000 A 
ATOM      3  C   UNL     1       1.254   7.871  20.274  0.00  0.00    +0.000 A 
ATOM      4  N   UNL     1       2.238   7.382  19.424  0.00  0.00    +0.000 N 
ATOM      5  C   UNL     1       2.808   6.166  19.706  0.00  0.00    +0.000 A 
ATOM      6  O   UNL     1       2.512   5.519  20.707  0.00  0.00    +0.000 OA
ATOM      7  C   UNL     1       3.819   5.658  18.749  0.00  0.00    +0.000 A 
ATOM      8  C   UNL     1       4.199   6.470  17.729  0.00  0.00    +0.000 A 
ATOM      9  N   UNL     1       3.624   7.706  17.537  0.00  0.00    +0.000 NA
ATOM     10  C   UNL     1       2.686   8.102  18.342  0.00  0.00    +0.000 A 
ATOM     11  C   UNL     1       2.018   9.421  18.113  0.00  0.00    +0.000 A 
ENDROOT
BRANCH   8  12
ATOM     12  N   UNL     1       5.242   6.082  16.876  0.00  0.00    +0.000 N 
ATOM     13  C   UNL     1       6.649   6.177  17.273  0.00  0.00    +0.000 C 
ATOM     14  C   UNL     1       7.302   4.803  17.058  0.00  0.00    +0.000 C 
ATOM     15  C   UNL     1       7.155   4.329  15.608  0.00  0.00    +0.000 C 
ATOM     16  C   UNL     1       5.691   4.358  15.162  0.00  0.00    +0.000 C 
ATOM     17  C   UNL     1       5.055   5.736  15.460  0.00  0.00    +0.000 C 
BRANCH  16  18
ATOM     18  O   UNL     1       5.571   4.021  13.784  0.00  0.00    +0.000 OA
ATOM     19  H   UNL     1       6.431   4.170  13.360  0.00  0.00    +0.000 HD
ENDBRANCH  16  18
ENDBRANCH   8  12
BRANCH   1  20
ATOM     20  C   UNL     1       0.307  11.175  18.762  0.00  0.00    +0.000 C 
BRANCH  20  21
ATOM     21  C   UNL     1      -0.481  11.617  19.998  0.00  0.00    +0.000 C 
BRANCH  21  25
ATOM     22  C   UNL     1      -3.851  11.765  18.609  0.00  0.00    +0.000 A 
ATOM     23  C   UNL     1      -4.237  12.525  19.697  0.00  0.00    +0.000 A 
ATOM     24  S   UNL     1      -2.907  12.773  20.749  0.00  0.00    +0.000 S 
ATOM     25  C   UNL     1      -1.915  11.873  19.679  0.00  0.00    +0.000 A 
ATOM     26  N   UNL     1      -2.512  11.412  18.603  0.00  0.00    +0.000 NA
BRANCH  22  28
ATOM     27  C   UNL     1      -5.810  12.325  17.163  0.00  0.00    +0.000 C 
ATOM     28  C   UNL     1      -4.714  11.302  17.468  0.00  0.00    +0.000 C 
ATOM     29  C   UNL     1      -3.881  11.037  16.212  0.00  0.00    +0.000 C 
ENDBRANCH  22  28
ENDBRANCH  21  25
ENDBRANCH  20  21
ENDBRANCH   1  20
BRANCH   7  30
ATOM     30  C   UNL     1       4.443   4.309  19.036  0.00  0.00    +0.000 C 
BRANCH  30  31
ATOM     31  C   UNL     1       3.979   3.076  18.263  0.00  0.00    +0.000 C 
BRANCH  31  32
ATOM     32  C   UNL     1       2.484   3.087  18.059  0.00  0.00    +0.000 C 
ATOM     33  O   UNL     1       1.909   3.292  17.003  0.00  0.00    +0.000 OA
BRANCH  32  34
ATOM     34  O   UNL     1       1.821   2.813  19.208  0.00  0.00    +0.000 OA
ATOM     35  H   UNL     1       0.862   2.680  19.071  0.00  0.00    +0.000 HD
ENDBRANCH  32  34
ENDBRANCH  31  32
ENDBRANCH  30  31
ENDBRANCH   7  30
TORSDOF 10
ENDMDL
MODEL 5
REMARK VINA RESULT:      -7.7      1.686      1.974
REMARK  Name = 
REMARK  12 active torsions:
REMARK  status: ('A' for Active; 'I' for Inactive)
REMARK    1  A    between atoms: C_1  and  C_2
REMARK    2  A    between atoms: C_2  and  C_3
REMARK    3  A    between atoms: C_2  and  C_4
REMARK    4  A    between atoms: C_7  and  C_8
REMARK    5  A    between atoms: C_8  and  C_9
REMARK    6  A    between atoms: C_9  and  C_10
REMARK    7  A    between atoms: C_16  and  C_17
REMARK    8  A    between atoms: C_17  and  C_18
REMARK    9  A    between atoms: C_18  and  C_19
REMARK   10  A    between atoms: C_19  and  O_21
REMARK   11  A    between atoms: C_22  and  N_23
REMARK   12  A    between atoms: C_27  and  O_28
REMARK                            x       y       z     vdW  Elec       q    Type
REMARK                         _______ _______ _______ _____ _____    ______ ____
ROOT
ATOM      1  C   UNL     1       0.378   9.677  21.547  0.00  0.00    +0.000 A 
ATOM      2  C   UNL     1       0.842  10.425  20.396  0.00  0.00    +0.000 A 
ATOM      3  C   UNL     1       1.507   9.804  19.418  0.00  0.00    +0.000 A 
ATOM      4  N   UNL     1       1.770   8.440  19.460  0.00  0.00    +0.000 N 
ATOM      5  C   UNL     1       2.439   7.865  18.408  0.00  0.00    +0.000 A 
ATOM      6  O   UNL     1       2.769   8.505  17.412  0.00  0.00    +0.000 OA
ATOM      7  C   UNL     1       2.741   6.418  18.512  0.00  0.00    +0.000 A 
ATOM      8  C   UNL     1       2.243   5.736  19.575  0.00  0.00    +0.000 A 
ATOM      9  N   UNL     1       1.530   6.367  20.569  0.00  0.00    +0.000 NA
ATOM     10  C   UNL     1       1.339   7.649  20.498  0.00  0.00    +0.000 A 
ATOM     11  C   UNL     1       0.610   8.354  21.598  0.00  0.00    +0.000 A 
ENDROOT
BRANCH   8  12
ATOM     12  N   UNL     1       2.397   4.344  19.648  0.00  0.00    +0.000 N 
ATOM     13  C   UNL     1       1.368   3.420  19.163  0.00  0.00    +0.000 C 
ATOM     14  C   UNL     1       2.029   2.437  18.185  0.00  0.00    +0.000 C 
ATOM     15  C   UNL     1       3.197   1.690  18.837  0.00  0.00    +0.000 C 
ATOM     16  C   UNL     1       4.202   2.666  19.454  0.00  0.00    +0.000 C 
ATOM     17  C   UNL     1       3.485   3.679  20.378  0.00  0.00    +0.000 C 
BRANCH  16  18
ATOM     18  O   UNL     1       5.228   1.968  20.152  0.00  0.00    +0.000 OA
ATOM     19  H   UNL     1       5.150   1.024  19.940  0.00  0.00    +0.000 HD
ENDBRANCH  16  18
ENDBRANCH   8  12
BRANCH   1  20
ATOM     20  C   UNL     1      -0.319  10.474  22.630  0.00  0.00    +0.000 C 
BRANCH  20  21
ATOM     21  C   UNL     1      -1.408  11.417  22.111  0.00  0.00    +0.000 C 
BRANCH  21  25
ATOM     22  C   UNL     1      -1.548  14.544  23.985  0.00  0.00    +0.000 A 
ATOM     23  C   UNL     1      -0.555  15.048  23.165  0.00  0.00    +0.000 A 
ATOM     24  S   UNL     1      -0.094  13.877  22.003  0.00  0.00    +0.000 S 
ATOM     25  C   UNL     1      -1.253  12.796  22.657  0.00  0.00    +0.000 A 
ATOM     26  N   UNL     1      -1.950  13.257  23.672  0.00  0.00    +0.000 NA
BRANCH  22  28
ATOM     27  C   UNL     1      -1.183  15.646  26.197  0.00  0.00    +0.000 C 
ATOM     28  C   UNL     1      -2.213  15.236  25.143  0.00  0.00    +0.000 C 
ATOM     29  C   UNL     1      -3.005  16.460  24.679  0.00  0.00    +0.000 C 
ENDBRANCH  22  28
ENDBRANCH  21  25
ENDBRANCH  20  21
ENDBRANCH   1  20
BRANCH   7  30
ATOM     30  C   UNL     1       3.494   5.774  17.368  0.00  0.00    +0.000 C 
BRANCH  30  31
ATOM     31  C   UNL     1       5.013   5.628  17.443  0.00  0.00    +0.000 C 
BRANCH  31  32
ATOM     32  C   UNL     1       5.707   6.682  16.617  0.00  0.00    +0.000 C 
ATOM     33  O   UNL     1       6.792   7.182  16.863  0.00  0.00    +0.000 OA
BRANCH  32  34
ATOM     34  O   UNL     1       4.984   7.014  15.520  0.00  0.00    +0.000 OA
ATOM     35  H   UNL     1       4.361   7.750  15.684  0.00  0.00    +0.000 HD
ENDBRANCH  32  34
ENDBRANCH  31  32
ENDBRANCH  30  31
ENDBRANCH   7  30
TORSDOF 10
ENDMDL
MODEL 6
REMARK VINA RESULT:      -7.7      3.991      5.528
REMARK  Name = 
REMARK  12 active torsions:
REMARK  status: ('A' for Active; 'I' for Inactive)
REMARK    1  A    between atoms: C_1  and  C_2
REMARK    2  A    between atoms: C_2  and  C_3
REMARK    3  A    between atoms: C_2  and  C_4
REMARK    4  A    between atoms: C_7  and  C_8
REMARK    5  A    between atoms: C_8  and  C_9
REMARK    6  A    between atoms: C_9  and  C_10
REMARK    7  A    between atoms: C_16  and  C_17
REMARK    8  A    between atoms: C_17  and  C_18
REMARK    9  A    between atoms: C_18  and  C_19
REMARK   10  A    between atoms: C_19  and  O_21
REMARK   11  A    between atoms: C_22  and  N_23
REMARK   12  A    between atoms: C_27  and  O_28
REMARK                            x       y       z     vdW  Elec       q    Type
REMARK                         _______ _______ _______ _____ _____    ______ ____
ROOT
ATOM      1  C   UNL     1       1.658   9.866  18.635  0.00  0.00    +0.000 A 
ATOM      2  C   UNL     1       1.010   9.391  19.840  0.00  0.00    +0.000 A 
ATOM      3  C   UNL     1       1.217   8.139  20.260  0.00  0.00    +0.000 A 
ATOM      4  N   UNL     1       2.050   7.262  19.577  0.00  0.00    +0.000 N 
ATOM      5  C   UNL     1       2.233   5.999  20.082  0.00  0.00    +0.000 A 
ATOM      6  O   UNL     1       1.724   5.635  21.139  0.00  0.00    +0.000 OA
ATOM      7  C   UNL     1       3.091   5.079  19.299  0.00  0.00    +0.000 A 
ATOM      8  C   UNL     1       3.728   5.573  18.206  0.00  0.00    +0.000 A 
ATOM      9  N   UNL     1       3.542   6.871  17.787  0.00  0.00    +0.000 NA
ATOM     10  C   UNL     1       2.728   7.640  18.443  0.00  0.00    +0.000 A 
ATOM     11  C   UNL     1       2.479   9.037  17.967  0.00  0.00    +0.000 A 
ENDROOT
BRANCH   8  12
ATOM     12  N   UNL     1       4.647   4.774  17.510  0.00  0.00    +0.000 N 
ATOM     13  C   UNL     1       4.344   4.205  16.194  0.00  0.00    +0.000 C 
ATOM     14  C   UNL     1       5.476   4.596  15.232  0.00  0.00    +0.000 C 
ATOM     15  C   UNL     1       6.841   4.130  15.748  0.00  0.00    +0.000 C 
ATOM     16  C   UNL     1       7.091   4.623  17.174  0.00  0.00    +0.000 C 
ATOM     17  C   UNL     1       5.898   4.270  18.093  0.00  0.00    +0.000 C 
BRANCH  16  18
ATOM     18  O   UNL     1       8.311   4.099  17.688  0.00  0.00    +0.000 OA
ATOM     19  H   UNL     1       8.720   4.778  18.248  0.00  0.00    +0.000 HD
ENDBRANCH  16  18
ENDBRANCH   8  12
BRANCH   1  20
ATOM     20  C   UNL     1       1.324  11.280  18.204  0.00  0.00    +0.000 C 
BRANCH  20  21
ATOM     21  C   UNL     1       2.533  12.217  18.139  0.00  0.00    +0.000 C 
BRANCH  21  25
ATOM     22  C   UNL     1       1.945  15.747  18.845  0.00  0.00    +0.000 A 
ATOM     23  C   UNL     1       1.551  15.398  20.123  0.00  0.00    +0.000 A 
ATOM     24  S   UNL     1       1.654  13.700  20.333  0.00  0.00    +0.000 S 
ATOM     25  C   UNL     1       2.231  13.554  18.725  0.00  0.00    +0.000 A 
ATOM     26  N   UNL     1       2.349  14.681  18.059  0.00  0.00    +0.000 NA
BRANCH  22  28
ATOM     27  C   UNL     1       2.790  17.137  16.949  0.00  0.00    +0.000 C 
ATOM     28  C   UNL     1       1.980  17.126  18.247  0.00  0.00    +0.000 C 
ATOM     29  C   UNL     1       0.568  17.656  17.989  0.00  0.00    +0.000 C 
ENDBRANCH  22  28
ENDBRANCH  21  25
ENDBRANCH  20  21
ENDBRANCH   1  20
BRANCH   7  30
ATOM     30  C   UNL     1       3.287   3.676  19.833  0.00  0.00    +0.000 C 
BRANCH  30  31
ATOM     31  C   UNL     1       2.596   2.498  19.149  0.00  0.00    +0.000 C 
BRANCH  31  32
ATOM     32  C   UNL     1       1.100   2.552  19.342  0.00  0.00    +0.000 C 
ATOM     33  O   UNL     1       0.262   2.296  18.494  0.00  0.00    +0.000 OA
BRANCH  32  34
ATOM     34  O   UNL     1       0.772   2.906  20.608  0.00  0.00    +0.000 OA
ATOM     35  H   UNL     1       1.364   2.510  21.278  0.00  0.00    +0.000 HD
ENDBRANCH  32  34
ENDBRANCH  31  32
ENDBRANCH  30  31
ENDBRANCH   7  30
TORSDOF 10
ENDMDL
MODEL 7
REMARK VINA RESULT:      -7.6      2.933      4.374
REMARK  Name = 
REMARK  12 active torsions:
REMARK  status: ('A' for Active; 'I' for Inactive)
REMARK    1  A    between atoms: C_1  and  C_2
REMARK    2  A    between atoms: C_2  and  C_3
REMARK    3  A    between atoms: C_2  and  C_4
REMARK    4  A    between atoms: C_7  and  C_8
REMARK    5  A    between atoms: C_8  and  C_9
REMARK    6  A    between atoms: C_9  and  C_10
REMARK    7  A    between atoms: C_16  and  C_17
REMARK    8  A    between atoms: C_17  and  C_18
REMARK    9  A    between atoms: C_18  and  C_19
REMARK   10  A    between atoms: C_19  and  O_21
REMARK   11  A    between atoms: C_22  and  N_23
REMARK   12  A    between atoms: C_27  and  O_28
REMARK                            x       y       z     vdW  Elec       q    Type
REMARK                         _______ _______ _______ _____ _____    ______ ____
ROOT
ATOM      1  C   UNL     1       0.588  10.147  18.825  0.00  0.00    +0.000 A 
ATOM      2  C   UNL     1       0.180   9.426  20.013  0.00  0.00    +0.000 A 
ATOM      3  C   UNL     1       0.773   8.271  20.331  0.00  0.00    +0.000 A 
ATOM      4  N   UNL     1       1.788   7.728  19.554  0.00  0.00    +0.000 N 
ATOM      5  C   UNL     1       2.366   6.550  19.955  0.00  0.00    +0.000 A 
ATOM      6  O   UNL     1       2.050   5.986  21.000  0.00  0.00    +0.000 OA
ATOM      7  C   UNL     1       3.412   5.978  19.074  0.00  0.00    +0.000 A 
ATOM      8  C   UNL     1       3.810   6.707  18.000  0.00  0.00    +0.000 A 
ATOM      9  N   UNL     1       3.224   7.912  17.686  0.00  0.00    +0.000 NA
ATOM     10  C   UNL     1       2.258   8.360  18.427  0.00  0.00    +0.000 A 
ATOM     11  C   UNL     1       1.578   9.644  18.067  0.00  0.00    +0.000 A 
ENDROOT
BRANCH   8  12
ATOM     12  N   UNL     1       4.883   6.264  17.212  0.00  0.00    +0.000 N 
ATOM     13  C   UNL     1       6.150   6.998  17.138  0.00  0.00    +0.000 C 
ATOM     14  C   UNL     1       7.289   6.021  17.465  0.00  0.00    +0.000 C 
ATOM     15  C   UNL     1       7.282   4.810  16.526  0.00  0.00    +0.000 C 
ATOM     16  C   UNL     1       5.913   4.128  16.514  0.00  0.00    +0.000 C 
ATOM     17  C   UNL     1       4.789   5.158  16.249  0.00  0.00    +0.000 C 
BRANCH  16  18
ATOM     18  O   UNL     1       5.878   3.071  15.560  0.00  0.00    +0.000 OA
ATOM     19  H   UNL     1       5.159   3.251  14.934  0.00  0.00    +0.000 HD
ENDBRANCH  16  18
ENDBRANCH   8  12
BRANCH   1  20
ATOM     20  C   UNL     1      -0.175  11.418  18.514  0.00  0.00    +0.000 C 
BRANCH  20  21
ATOM     21  C   UNL     1      -1.506  11.547  19.260  0.00  0.00    +0.000 C 
BRANCH  21  25
ATOM     22  C   UNL     1      -4.759  11.595  17.610  0.00  0.00    +0.000 A 
ATOM     23  C   UNL     1      -4.142  11.189  16.441  0.00  0.00    +0.000 A 
ATOM     24  S   UNL     1      -2.458  10.997  16.695  0.00  0.00    +0.000 S 
ATOM     25  C   UNL     1      -2.672  11.448  18.336  0.00  0.00    +0.000 A 
ATOM     26  N   UNL     1      -3.906  11.724  18.693  0.00  0.00    +0.000 NA
BRANCH  22  28
ATOM     27  C   UNL     1      -6.539  12.066  19.299  0.00  0.00    +0.000 C 
ATOM     28  C   UNL     1      -6.217  11.899  17.812  0.00  0.00    +0.000 C 
ATOM     29  C   UNL     1      -6.637  13.153  17.041  0.00  0.00    +0.000 C 
ENDBRANCH  22  28
ENDBRANCH  21  25
ENDBRANCH  20  21
ENDBRANCH   1  20
BRANCH   7  30
ATOM     30  C   UNL     1       4.046   4.670  19.493  0.00  0.00    +0.000 C 
BRANCH  30  31
ATOM     31  C   UNL     1       3.372   3.347  19.131  0.00  0.00    +0.000 C 
BRANCH  31  32
ATOM     32  C   UNL     1       2.029   3.575  18.484  0.00  0.00    +0.000 C 
ATOM     33  O   UNL     1       1.829   3.735  17.291  0.00  0.00    +0.000 OA
BRANCH  32  34
ATOM     34  O   UNL     1       1.026   3.562  19.395  0.00  0.00    +0.000 OA
ATOM     35  H   UNL     1       1.203   2.960  20.145  0.00  0.00    +0.000 HD
ENDBRANCH  32  34
ENDBRANCH  31  32
ENDBRANCH  30  31
ENDBRANCH   7  30
TORSDOF 10
ENDMDL
MODEL 8
REMARK VINA RESULT:      -7.6      2.376      4.048
REMARK  Name = 
REMARK  12 active torsions:
REMARK  status: ('A' for Active; 'I' for Inactive)
REMARK    1  A    between atoms: C_1  and  C_2
REMARK    2  A    between atoms: C_2  and  C_3
REMARK    3  A    between atoms: C_2  and  C_4
REMARK    4  A    between atoms: C_7  and  C_8
REMARK    5  A    between atoms: C_8  and  C_9
REMARK    6  A    between atoms: C_9  and  C_10
REMARK    7  A    between atoms: C_16  and  C_17
REMARK    8  A    between atoms: C_17  and  C_18
REMARK    9  A    between atoms: C_18  and  C_19
REMARK   10  A    between atoms: C_19  and  O_21
REMARK   11  A    between atoms: C_22  and  N_23
REMARK   12  A    between atoms: C_27  and  O_28
REMARK                            x       y       z     vdW  Elec       q    Type
REMARK                         _______ _______ _______ _____ _____    ______ ____
ROOT
ATOM      1  C   UNL     1       1.533   9.622  18.876  0.00  0.00    +0.000 A 
ATOM      2  C   UNL     1       0.980   9.110  20.113  0.00  0.00    +0.000 A 
ATOM      3  C   UNL     1       1.250   7.860  20.500  0.00  0.00    +0.000 A 
ATOM      4  N   UNL     1       2.061   7.018  19.749  0.00  0.00    +0.000 N 
ATOM      5  C   UNL     1       2.313   5.754  20.221  0.00  0.00    +0.000 A 
ATOM      6  O   UNL     1       1.887   5.360  21.304  0.00  0.00    +0.000 OA
ATOM      7  C   UNL     1       3.144   4.871  19.369  0.00  0.00    +0.000 A 
ATOM      8  C   UNL     1       3.693   5.399  18.245  0.00  0.00    +0.000 A 
ATOM      9  N   UNL     1       3.443   6.696  17.860  0.00  0.00    +0.000 NA
ATOM     10  C   UNL     1       2.652   7.431  18.580  0.00  0.00    +0.000 A 
ATOM     11  C   UNL     1       2.332   8.826  18.143  0.00  0.00    +0.000 A 
ENDROOT
BRANCH   8  12
ATOM     12  N   UNL     1       4.587   4.637  17.478  0.00  0.00    +0.000 N 
ATOM     13  C   UNL     1       4.204   4.049  16.192  0.00  0.00    +0.000 C 
ATOM     14  C   UNL     1       5.235   4.484  15.140  0.00  0.00    +0.000 C 
ATOM     15  C   UNL     1       6.658   4.081  15.544  0.00  0.00    +0.000 C 
ATOM     16  C   UNL     1       7.000   4.592  16.945  0.00  0.00    +0.000 C 
ATOM     17  C   UNL     1       5.902   4.191  17.958  0.00  0.00    +0.000 C 
BRANCH  16  18
ATOM     18  O   UNL     1       8.280   4.125  17.359  0.00  0.00    +0.000 OA
ATOM     19  H   UNL     1       8.323   3.170  17.189  0.00  0.00    +0.000 HD
ENDBRANCH  16  18
ENDBRANCH   8  12
BRANCH   1  20
ATOM     20  C   UNL     1       1.130  11.031  18.491  0.00  0.00    +0.000 C 
BRANCH  20  21
ATOM     21  C   UNL     1      -0.382  11.268  18.478  0.00  0.00    +0.000 C 
BRANCH  21  25
ATOM     22  C   UNL     1      -1.604  13.135  21.364  0.00  0.00    +0.000 A 
ATOM     23  C   UNL     1      -1.157  14.299  20.766  0.00  0.00    +0.000 A 
ATOM     24  S   UNL     1      -0.441  13.949  19.249  0.00  0.00    +0.000 S 
ATOM     25  C   UNL     1      -0.792  12.288  19.486  0.00  0.00    +0.000 A 
ATOM     26  N   UNL     1      -1.403  11.991  20.611  0.00  0.00    +0.000 NA
BRANCH  22  28
ATOM     27  C   UNL     1      -2.035  11.601  23.288  0.00  0.00    +0.000 C 
ATOM     28  C   UNL     1      -2.268  12.997  22.706  0.00  0.00    +0.000 C 
ATOM     29  C   UNL     1      -1.770  14.063  23.685  0.00  0.00    +0.000 C 
ENDBRANCH  22  28
ENDBRANCH  21  25
ENDBRANCH  20  21
ENDBRANCH   1  20
BRANCH   7  30
ATOM     30  C   UNL     1       3.415   3.467  19.867  0.00  0.00    +0.000 C 
BRANCH  30  31
ATOM     31  C   UNL     1       2.642   2.289  19.279  0.00  0.00    +0.000 C 
BRANCH  31  32
ATOM     32  C   UNL     1       1.152   2.486  19.417  0.00  0.00    +0.000 C 
ATOM     33  O   UNL     1       0.338   2.426  18.511  0.00  0.00    +0.000 OA
BRANCH  32  34
ATOM     34  O   UNL     1       0.797   2.725  20.702  0.00  0.00    +0.000 OA
ATOM     35  H   UNL     1       1.360   2.251  21.346  0.00  0.00    +0.000 HD
ENDBRANCH  32  34
ENDBRANCH  31  32
ENDBRANCH  30  31
ENDBRANCH   7  30
TORSDOF 10
ENDMDL
MODEL 9
REMARK VINA RESULT:      -7.6      3.601      5.105
REMARK  Name = 
REMARK  12 active torsions:
REMARK  status: ('A' for Active; 'I' for Inactive)
REMARK    1  A    between atoms: C_1  and  C_2
REMARK    2  A    between atoms: C_2  and  C_3
REMARK    3  A    between atoms: C_2  and  C_4
REMARK    4  A    between atoms: C_7  and  C_8
REMARK    5  A    between atoms: C_8  and  C_9
REMARK    6  A    between atoms: C_9  and  C_10
REMARK    7  A    between atoms: C_16  and  C_17
REMARK    8  A    between atoms: C_17  and  C_18
REMARK    9  A    between atoms: C_18  and  C_19
REMARK   10  A    between atoms: C_19  and  O_21
REMARK   11  A    between atoms: C_22  and  N_23
REMARK   12  A    between atoms: C_27  and  O_28
REMARK                            x       y       z     vdW  Elec       q    Type
REMARK                         _______ _______ _______ _____ _____    ______ ____
ROOT
ATOM      1  C   UNL     1       1.535   9.729  18.926  0.00  0.00    +0.000 A 
ATOM      2  C   UNL     1       0.927   9.187  20.123  0.00  0.00    +0.000 A 
ATOM      3  C   UNL     1       1.178   7.926  20.489  0.00  0.00    +0.000 A 
ATOM      4  N   UNL     1       2.021   7.103  19.754  0.00  0.00    +0.000 N 
ATOM      5  C   UNL     1       2.251   5.826  20.203  0.00  0.00    +0.000 A 
ATOM      6  O   UNL     1       1.776   5.405  21.255  0.00  0.00    +0.000 OA
ATOM      7  C   UNL     1       3.119   4.964  19.367  0.00  0.00    +0.000 A 
ATOM      8  C   UNL     1       3.719   5.520  18.283  0.00  0.00    +0.000 A 
ATOM      9  N   UNL     1       3.487   6.827  17.921  0.00  0.00    +0.000 NA
ATOM     10  C   UNL     1       2.665   7.545  18.623  0.00  0.00    +0.000 A 
ATOM     11  C   UNL     1       2.366   8.952  18.209  0.00  0.00    +0.000 A 
ENDROOT
BRANCH   8  12
ATOM     12  N   UNL     1       4.645   4.777  17.538  0.00  0.00    +0.000 N 
ATOM     13  C   UNL     1       4.352   4.301  16.183  0.00  0.00    +0.000 C 
ATOM     14  C   UNL     1       5.486   4.764  15.256  0.00  0.00    +0.000 C 
ATOM     15  C   UNL     1       6.852   4.271  15.745  0.00  0.00    +0.000 C 
ATOM     16  C   UNL     1       7.092   4.663  17.205  0.00  0.00    +0.000 C 
ATOM     17  C   UNL     1       5.896   4.239  18.090  0.00  0.00    +0.000 C 
BRANCH  16  18
ATOM     18  O   UNL     1       8.312   4.111  17.687  0.00  0.00    +0.000 OA
ATOM     19  H   UNL     1       9.036   4.447  17.135  0.00  0.00    +0.000 HD
ENDBRANCH  16  18
ENDBRANCH   8  12
BRANCH   1  20
ATOM     20  C   UNL     1       1.151  11.149  18.560  0.00  0.00    +0.000 C 
BRANCH  20  21
ATOM     21  C   UNL     1       2.337  12.039  18.180  0.00  0.00    +0.000 C 
BRANCH  21  25
ATOM     22  C   UNL     1       0.854  15.318  18.778  0.00  0.00    +0.000 A 
ATOM     23  C   UNL     1       2.120  15.871  18.717  0.00  0.00    +0.000 A 
ATOM     24  S   UNL     1       3.287  14.652  18.423  0.00  0.00    +0.000 S 
ATOM     25  C   UNL     1       2.031  13.485  18.380  0.00  0.00    +0.000 A 
ATOM     26  N   UNL     1       0.816  13.950  18.567  0.00  0.00    +0.000 NA
BRANCH  22  28
ATOM     27  C   UNL     1      -0.651  16.251  20.541  0.00  0.00    +0.000 C 
ATOM     28  C   UNL     1      -0.442  16.033  19.041  0.00  0.00    +0.000 C 
ATOM     29  C   UNL     1      -0.496  17.374  18.305  0.00  0.00    +0.000 C 
ENDBRANCH  22  28
ENDBRANCH  21  25
ENDBRANCH  20  21
ENDBRANCH   1  20
BRANCH   7  30
ATOM     30  C   UNL     1       3.366   3.547  19.840  0.00  0.00    +0.000 C 
BRANCH  30  31
ATOM     31  C   UNL     1       2.640   2.383  19.169  0.00  0.00    +0.000 C 
BRANCH  31  32
ATOM     32  C   UNL     1       1.147   2.479  19.370  0.00  0.00    +0.000 C 
ATOM     33  O   UNL     1       0.300   2.331  18.505  0.00  0.00    +0.000 OA
BRANCH  32  34
ATOM     34  O   UNL     1       0.833   2.734  20.662  0.00  0.00    +0.000 OA
ATOM     35  H   UNL     1       0.380   1.984  21.098  0.00  0.00    +0.000 HD
ENDBRANCH  32  34
ENDBRANCH  31  32
ENDBRANCH  30  31
ENDBRANCH   7  30
TORSDOF 10
ENDMDL
