MODEL 1
REMARK VINA RESULT:      -6.4      0.000      0.000
REMARK  Name = 
REMARK  18 active torsions:
REMARK  status: ('A' for Active; 'I' for Inactive)
REMARK    1  A    between atoms: O_1  and  C_2
REMARK    2  A    between atoms: C_2  and  C_3
REMARK    3  A    between atoms: C_3  and  O_4
REMARK    4  A    between atoms: C_3  and  C_5
REMARK    5  A    between atoms: C_5  and  O_6
REMARK    6  A    between atoms: C_5  and  C_7
REMARK    7  A    between atoms: C_7  and  O_8
REMARK    8  A    between atoms: C_7  and  C_9
REMARK    9  A    between atoms: C_9  and  O_10
REMARK   10  A    between atoms: C_9  and  C_11
REMARK   11  A    between atoms: C_11  and  O_12
REMARK   12  A    between atoms: C_11  and  C_13
REMARK   13  A    between atoms: C_13  and  N_14
REMARK   14  A    between atoms: C_16  and  O_17
REMARK   15  A    between atoms: C_18  and  O_19
REMARK   16  A    between atoms: C_20  and  O_21
REMARK   17  A    between atoms: C_22  and  C_23
REMARK   18  A    between atoms: C_23  and  O_24
REMARK                            x       y       z     vdW  Elec       q    Type
REMARK                         _______ _______ _______ _____ _____    ______ ____
ROOT
ATOM      1  C   UNL     1       4.757   2.291  19.671  0.00  0.00    +0.000 C 
ENDROOT
BRANCH   1   2
ATOM      2  O   UNL     1       4.950   1.930  21.019  0.00  0.00    +0.000 OA
ATOM      3  H   UNL     1       4.259   2.391  21.559  0.00  0.00    +0.000 HD
ENDBRANCH   1   2
BRANCH   1   4
ATOM      4  C   UNL     1       3.456   1.662  19.125  0.00  0.00    +0.000 C 
BRANCH   4   5
ATOM      5  O   UNL     1       3.765   1.100  17.870  0.00  0.00    +0.000 OA
ATOM      6  H   UNL     1       4.548   1.586  17.503  0.00  0.00    +0.000 HD
ENDBRANCH   4   5
BRANCH   4   7
ATOM      7  C   UNL     1       2.302   2.701  18.949  0.00  0.00    +0.000 C 
BRANCH   7   8
ATOM      8  O   UNL     1       1.693   2.619  17.676  0.00  0.00    +0.000 OA
ATOM      9  H   UNL     1       0.725   2.809  17.767  0.00  0.00    +0.000 HD
ENDBRANCH   7   8
BRANCH   7  10
ATOM     10  C   UNL     1       1.231   2.634  20.088  0.00  0.00    +0.000 C 
BRANCH  10  11
ATOM     11  O   UNL     1      -0.084   2.856  19.628  0.00  0.00    +0.000 OA
ATOM     12  H   UNL     1      -0.713   2.737  20.385  0.00  0.00    +0.000 HD
ENDBRANCH  10  11
BRANCH  10  13
ATOM     13  C   UNL     1       1.565   3.588  21.273  0.00  0.00    +0.000 C 
BRANCH  13  14
ATOM     14  O   UNL     1       2.398   2.963  22.220  0.00  0.00    +0.000 OA
ATOM     15  H   UNL     1       2.397   3.518  23.042  0.00  0.00    +0.000 HD
ENDBRANCH  13  14
BRANCH  13  16
ATOM     16  C   UNL     1       2.189   4.921  20.818  0.00  0.00    +0.000 C 
BRANCH  16  17
ATOM     17  O   UNL     1       1.224   5.937  20.838  0.00  0.00    +0.000 OA
ATOM     18  H   UNL     1       1.258   6.372  19.947  0.00  0.00    +0.000 HD
ENDBRANCH  16  17
ENDBRANCH  13  16
ENDBRANCH  10  13
ENDBRANCH   7  10
ENDBRANCH   4   7
ENDBRANCH   1   4
BRANCH   1  19
ATOM     19  C   UNL     1       4.899   3.835  19.520  0.00  0.00    +0.000 C 
BRANCH  19  20
ATOM     20  N   UNL     1       5.916   4.334  18.517  0.00  0.00    +0.000 NA
ATOM     21  C   UNL     1       6.778   5.268  19.314  0.00  0.00    +0.000 C 
ATOM     22  C   UNL     1       7.729   6.138  18.485  0.00  0.00    +0.000 C 
ATOM     23  C   UNL     1       6.898   6.998  17.528  0.00  0.00    +0.000 C 
ATOM     24  C   UNL     1       6.148   6.050  16.595  0.00  0.00    +0.000 C 
ATOM     25  C   UNL     1       5.257   4.990  17.330  0.00  0.00    +0.000 C 
BRANCH  24  26
ATOM     26  O   UNL     1       5.394   6.768  15.650  0.00  0.00    +0.000 OA
ATOM     27  H   UNL     1       4.860   6.106  15.137  0.00  0.00    +0.000 HD
ENDBRANCH  24  26
BRANCH  23  28
ATOM     28  O   UNL     1       7.721   7.876  16.793  0.00  0.00    +0.000 OA
ATOM     29  H   UNL     1       7.658   7.633  15.831  0.00  0.00    +0.000 HD
ENDBRANCH  23  28
BRANCH  22  30
ATOM     30  O   UNL     1       8.519   6.945  19.325  0.00  0.00    +0.000 OA
ATOM     31  H   UNL     1       9.369   7.142  18.850  0.00  0.00    +0.000 HD
ENDBRANCH  22  30
BRANCH  25  32
ATOM     32  C   UNL     1       4.825   3.950  16.228  0.00  0.00    +0.000 C 
BRANCH  32  33
ATOM     33  O   UNL     1       5.526   4.104  15.020  0.00  0.00    +0.000 OA
ATOM     34  H   UNL     1       6.493   4.141  15.255  0.00  0.00    +0.000 HD
ENDBRANCH  32  33
ENDBRANCH  25  32
ENDBRANCH  19  20
ENDBRANCH   1  19
TORSDOF 18
ENDMDL
MODEL 2
REMARK VINA RESULT:      -6.3      2.018      6.453
REMARK  Name = 
REMARK  18 active torsions:
REMARK  status: ('A' for Active; 'I' for Inactive)
REMARK    1  A    between atoms: O_1  and  C_2
REMARK    2  A    between atoms: C_2  and  C_3
REMARK    3  A    between atoms: C_3  and  O_4
REMARK    4  A    between atoms: C_3  and  C_5
REMARK    5  A    between atoms: C_5  and  O_6
REMARK    6  A    between atoms: C_5  and  C_7
REMARK    7  A    between atoms: C_7  and  O_8
REMARK    8  A    between atoms: C_7  and  C_9
REMARK    9  A    between atoms: C_9  and  O_10
REMARK   10  A    between atoms: C_9  and  C_11
REMARK   11  A    between atoms: C_11  and  O_12
REMARK   12  A    between atoms: C_11  and  C_13
REMARK   13  A    between atoms: C_13  and  N_14
REMARK   14  A    between atoms: C_16  and  O_17
REMARK   15  A    between atoms: C_18  and  O_19
REMARK   16  A    between atoms: C_20  and  O_21
REMARK   17  A    between atoms: C_22  and  C_23
REMARK   18  A    between atoms: C_23  and  O_24
REMARK                            x       y       z     vdW  Elec       q    Type
REMARK                         _______ _______ _______ _____ _____    ______ ____
ROOT
ATOM      1  C   UNL     1       5.591   6.122  17.908  0.00  0.00    +0.000 C 
ENDROOT
BRANCH   1   2
ATOM      2  O   UNL     1       5.029   7.410  17.801  0.00  0.00    +0.000 OA
ATOM      3  H   UNL     1       5.369   7.954  18.556  0.00  0.00    +0.000 HD
ENDBRANCH   1   2
BRANCH   1   4
ATOM      4  C   UNL     1       7.055   6.131  17.418  0.00  0.00    +0.000 C 
BRANCH   4   5
ATOM      5  O   UNL     1       7.225   7.301  16.649  0.00  0.00    +0.000 OA
ATOM      6  H   UNL     1       6.609   7.247  15.873  0.00  0.00    +0.000 HD
ENDBRANCH   4   5
BRANCH   4   7
ATOM      7  C   UNL     1       7.414   4.887  16.541  0.00  0.00    +0.000 C 
BRANCH   7   8
ATOM      8  O   UNL     1       8.085   3.885  17.278  0.00  0.00    +0.000 OA
ATOM      9  H   UNL     1       8.265   3.113  16.685  0.00  0.00    +0.000 HD
ENDBRANCH   7   8
BRANCH   7  10
ATOM     10  C   UNL     1       6.183   4.294  15.779  0.00  0.00    +0.000 C 
BRANCH  10  11
ATOM     11  O   UNL     1       6.161   2.883  15.773  0.00  0.00    +0.000 OA
ATOM     12  H   UNL     1       6.237   2.557  16.707  0.00  0.00    +0.000 HD
ENDBRANCH  10  11
BRANCH  10  13
ATOM     13  C   UNL     1       6.060   4.850  14.329  0.00  0.00    +0.000 C 
BRANCH  13  14
ATOM     14  O   UNL     1       7.271   5.416  13.888  0.00  0.00    +0.000 OA
ATOM     15  H   UNL     1       7.103   5.858  13.016  0.00  0.00    +0.000 HD
ENDBRANCH  13  14
BRANCH  13  16
ATOM     16  C   UNL     1       5.570   3.796  13.317  0.00  0.00    +0.000 C 
BRANCH  16  17
ATOM     17  O   UNL     1       6.659   3.070  12.814  0.00  0.00    +0.000 OA
ATOM     18  H   UNL     1       6.413   2.111  12.890  0.00  0.00    +0.000 HD
ENDBRANCH  16  17
ENDBRANCH  13  16
ENDBRANCH  10  13
ENDBRANCH   7  10
ENDBRANCH   4   7
ENDBRANCH   1   4
BRANCH   1  19
ATOM     19  C   UNL     1       5.339   5.563  19.340  0.00  0.00    +0.000 C 
BRANCH  19  20
ATOM     20  N   UNL     1       4.172   4.615  19.509  0.00  0.00    +0.000 NA
ATOM     21  C   UNL     1       4.727   3.285  19.096  0.00  0.00    +0.000 C 
ATOM     22  C   UNL     1       3.684   2.179  18.901  0.00  0.00    +0.000 C 
ATOM     23  C   UNL     1       2.704   2.617  17.808  0.00  0.00    +0.000 C 
ATOM     24  C   UNL     1       2.005   3.882  18.301  0.00  0.00    +0.000 C 
ATOM     25  C   UNL     1       2.978   5.046  18.696  0.00  0.00    +0.000 C 
BRANCH  24  26
ATOM     26  O   UNL     1       1.050   4.323  17.369  0.00  0.00    +0.000 OA
ATOM     27  H   UNL     1       0.736   3.523  16.870  0.00  0.00    +0.000 HD
ENDBRANCH  24  26
BRANCH  23  28
ATOM     28  O   UNL     1       1.766   1.600  17.535  0.00  0.00    +0.000 OA
ATOM     29  H   UNL     1       0.901   1.851  17.956  0.00  0.00    +0.000 HD
ENDBRANCH  23  28
BRANCH  22  30
ATOM     30  O   UNL     1       4.309   0.966  18.556  0.00  0.00    +0.000 OA
ATOM     31  H   UNL     1       3.636   0.392  18.103  0.00  0.00    +0.000 HD
ENDBRANCH  22  30
BRANCH  25  32
ATOM     32  C   UNL     1       2.092   6.113  19.443  0.00  0.00    +0.000 C 
BRANCH  32  33
ATOM     33  O   UNL     1       2.385   7.435  19.068  0.00  0.00    +0.000 OA
ATOM     34  H   UNL     1       1.567   7.794  18.629  0.00  0.00    +0.000 HD
ENDBRANCH  32  33
ENDBRANCH  25  32
ENDBRANCH  19  20
ENDBRANCH   1  19
TORSDOF 18
ENDMDL
MODEL 3
REMARK VINA RESULT:      -6.2      1.968      6.657
REMARK  Name = 
REMARK  18 active torsions:
REMARK  status: ('A' for Active; 'I' for Inactive)
REMARK    1  A    between atoms: O_1  and  C_2
REMARK    2  A    between atoms: C_2  and  C_3
REMARK    3  A    between atoms: C_3  and  O_4
REMARK    4  A    between atoms: C_3  and  C_5
REMARK    5  A    between atoms: C_5  and  O_6
REMARK    6  A    between atoms: C_5  and  C_7
REMARK    7  A    between atoms: C_7  and  O_8
REMARK    8  A    between atoms: C_7  and  C_9
REMARK    9  A    between atoms: C_9  and  O_10
REMARK   10  A    between atoms: C_9  and  C_11
REMARK   11  A    between atoms: C_11  and  O_12
REMARK   12  A    between atoms: C_11  and  C_13
REMARK   13  A    between atoms: C_13  and  N_14
REMARK   14  A    between atoms: C_16  and  O_17
REMARK   15  A    between atoms: C_18  and  O_19
REMARK   16  A    between atoms: C_20  and  O_21
REMARK   17  A    between atoms: C_22  and  C_23
REMARK   18  A    between atoms: C_23  and  O_24
REMARK                            x       y       z     vdW  Elec       q    Type
REMARK                         _______ _______ _______ _____ _____    ______ ____
ROOT
ATOM      1  C   UNL     1       6.305   5.295  19.064  0.00  0.00    +0.000 C 
ENDROOT
BRANCH   1   2
ATOM      2  O   UNL     1       6.675   3.945  18.907  0.00  0.00    +0.000 OA
ATOM      3  H   UNL     1       6.049   3.532  18.258  0.00  0.00    +0.000 HD
ENDBRANCH   1   2
BRANCH   1   4
ATOM      4  C   UNL     1       6.858   6.144  17.899  0.00  0.00    +0.000 C 
BRANCH   4   5
ATOM      5  O   UNL     1       5.826   7.018  17.500  0.00  0.00    +0.000 OA
ATOM      6  H   UNL     1       6.224   7.914  17.354  0.00  0.00    +0.000 HD
ENDBRANCH   4   5
BRANCH   4   7
ATOM      7  C   UNL     1       7.301   5.283  16.672  0.00  0.00    +0.000 C 
BRANCH   7   8
ATOM      8  O   UNL     1       8.131   4.201  17.044  0.00  0.00    +0.000 OA
ATOM      9  H   UNL     1       8.866   4.116  16.386  0.00  0.00    +0.000 HD
ENDBRANCH   7   8
BRANCH   7  10
ATOM     10  C   UNL     1       6.100   4.793  15.796  0.00  0.00    +0.000 C 
BRANCH  10  11
ATOM     11  O   UNL     1       5.630   3.515  16.164  0.00  0.00    +0.000 OA
ATOM     12  H   UNL     1       4.645   3.556  16.275  0.00  0.00    +0.000 HD
ENDBRANCH  10  11
BRANCH  10  13
ATOM     13  C   UNL     1       6.420   4.842  14.272  0.00  0.00    +0.000 C 
BRANCH  13  14
ATOM     14  O   UNL     1       7.714   5.341  14.031  0.00  0.00    +0.000 OA
ATOM     15  H   UNL     1       7.747   6.277  14.358  0.00  0.00    +0.000 HD
ENDBRANCH  13  14
BRANCH  13  16
ATOM     16  C   UNL     1       6.239   3.481  13.573  0.00  0.00    +0.000 C 
BRANCH  16  17
ATOM     17  O   UNL     1       5.438   3.628  12.432  0.00  0.00    +0.000 OA
ATOM     18  H   UNL     1       5.465   4.591  12.195  0.00  0.00    +0.000 HD
ENDBRANCH  16  17
ENDBRANCH  13  16
ENDBRANCH  10  13
ENDBRANCH   7  10
ENDBRANCH   4   7
ENDBRANCH   1   4
BRANCH   1  19
ATOM     19  C   UNL     1       4.773   5.387  19.327  0.00  0.00    +0.000 C 
BRANCH  19  20
ATOM     20  N   UNL     1       3.942   4.175  18.967  0.00  0.00    +0.000 NA
ATOM     21  C   UNL     1       2.831   4.737  18.132  0.00  0.00    +0.000 C 
ATOM     22  C   UNL     1       1.675   3.769  17.856  0.00  0.00    +0.000 C 
ATOM     23  C   UNL     1       1.063   3.342  19.193  0.00  0.00    +0.000 C 
ATOM     24  C   UNL     1       2.148   2.612  19.981  0.00  0.00    +0.000 C 
ATOM     25  C   UNL     1       3.461   3.441  20.193  0.00  0.00    +0.000 C 
BRANCH  24  26
ATOM     26  O   UNL     1       1.648   2.144  21.208  0.00  0.00    +0.000 OA
ATOM     27  H   UNL     1       2.250   2.487  21.920  0.00  0.00    +0.000 HD
ENDBRANCH  24  26
BRANCH  23  28
ATOM     28  O   UNL     1      -0.057   2.509  18.992  0.00  0.00    +0.000 OA
ATOM     29  H   UNL     1       0.257   1.566  18.957  0.00  0.00    +0.000 HD
ENDBRANCH  23  28
BRANCH  22  30
ATOM     30  O   UNL     1       0.708   4.377  17.034  0.00  0.00    +0.000 OA
ATOM     31  H   UNL     1       1.160   5.075  16.491  0.00  0.00    +0.000 HD
ENDBRANCH  22  30
BRANCH  25  32
ATOM     32  C   UNL     1       4.530   2.423  20.745  0.00  0.00    +0.000 C 
BRANCH  32  33
ATOM     33  O   UNL     1       5.072   1.597  19.746  0.00  0.00    +0.000 OA
ATOM     34  H   UNL     1       4.385   0.904  19.546  0.00  0.00    +0.000 HD
ENDBRANCH  32  33
ENDBRANCH  25  32
ENDBRANCH  19  20
ENDBRANCH   1  19
TORSDOF 18
ENDMDL
MODEL 4
REMARK VINA RESULT:      -6.2      1.925      5.912
REMARK  Name = 
REMARK  18 active torsions:
REMARK  status: ('A' for Active; 'I' for Inactive)
REMARK    1  A    between atoms: O_1  and  C_2
REMARK    2  A    between atoms: C_2  and  C_3
REMARK    3  A    between atoms: C_3  and  O_4
REMARK    4  A    between atoms: C_3  and  C_5
REMARK    5  A    between atoms: C_5  and  O_6
REMARK    6  A    between atoms: C_5  and  C_7
REMARK    7  A    between atoms: C_7  and  O_8
REMARK    8  A    between atoms: C_7  and  C_9
REMARK    9  A    between atoms: C_9  and  O_10
REMARK   10  A    between atoms: C_9  and  C_11
REMARK   11  A    between atoms: C_11  and  O_12
REMARK   12  A    between atoms: C_11  and  C_13
REMARK   13  A    between atoms: C_13  and  N_14
REMARK   14  A    between atoms: C_16  and  O_17
REMARK   15  A    between atoms: C_18  and  O_19
REMARK   16  A    between atoms: C_20  and  O_21
REMARK   17  A    between atoms: C_22  and  C_23
REMARK   18  A    between atoms: C_23  and  O_24
REMARK                            x       y       z     vdW  Elec       q    Type
REMARK                         _______ _______ _______ _____ _____    ______ ____
ROOT
ATOM      1  C   UNL     1       4.841   4.234  17.218  0.00  0.00    +0.000 C 
ENDROOT
BRANCH   1   2
ATOM      2  O   UNL     1       5.336   3.265  18.114  0.00  0.00    +0.000 OA
ATOM      3  H   UNL     1       6.273   3.065  17.860  0.00  0.00    +0.000 HD
ENDBRANCH   1   2
BRANCH   1   4
ATOM      4  C   UNL     1       5.749   4.329  15.973  0.00  0.00    +0.000 C 
BRANCH   4   5
ATOM      5  O   UNL     1       6.074   3.009  15.598  0.00  0.00    +0.000 OA
ATOM      6  H   UNL     1       6.975   2.803  15.959  0.00  0.00    +0.000 HD
ENDBRANCH   4   5
BRANCH   4   7
ATOM      7  C   UNL     1       7.070   5.123  16.239  0.00  0.00    +0.000 C 
BRANCH   7   8
ATOM      8  O   UNL     1       7.659   5.602  15.046  0.00  0.00    +0.000 OA
ATOM      9  H   UNL     1       8.524   5.141  14.905  0.00  0.00    +0.000 HD
ENDBRANCH   7   8
BRANCH   7  10
ATOM     10  C   UNL     1       6.897   6.277  17.281  0.00  0.00    +0.000 C 
BRANCH  10  11
ATOM     11  O   UNL     1       6.979   7.563  16.706  0.00  0.00    +0.000 OA
ATOM     12  H   UNL     1       6.865   8.242  17.419  0.00  0.00    +0.000 HD
ENDBRANCH  10  11
BRANCH  10  13
ATOM     13  C   UNL     1       7.886   6.148  18.478  0.00  0.00    +0.000 C 
BRANCH  13  14
ATOM     14  O   UNL     1       8.446   7.393  18.821  0.00  0.00    +0.000 OA
ATOM     15  H   UNL     1       8.167   8.054  18.136  0.00  0.00    +0.000 HD
ENDBRANCH  13  14
BRANCH  13  16
ATOM     16  C   UNL     1       7.250   5.494  19.719  0.00  0.00    +0.000 C 
BRANCH  16  17
ATOM     17  O   UNL     1       8.196   5.396  20.750  0.00  0.00    +0.000 OA
ATOM     18  H   UNL     1       8.806   6.172  20.643  0.00  0.00    +0.000 HD
ENDBRANCH  16  17
ENDBRANCH  13  16
ENDBRANCH  10  13
ENDBRANCH   7  10
ENDBRANCH   4   7
ENDBRANCH   1   4
BRANCH   1  19
ATOM     19  C   UNL     1       3.328   3.975  16.958  0.00  0.00    +0.000 C 
BRANCH  19  20
ATOM     20  N   UNL     1       2.345   4.737  17.821  0.00  0.00    +0.000 NA
ATOM     21  C   UNL     1       2.747   6.171  17.643  0.00  0.00    +0.000 C 
ATOM     22  C   UNL     1       2.097   7.153  18.623  0.00  0.00    +0.000 C 
ATOM     23  C   UNL     1       2.484   6.750  20.049  0.00  0.00    +0.000 C 
ATOM     24  C   UNL     1       1.923   5.352  20.298  0.00  0.00    +0.000 C 
ATOM     25  C   UNL     1       2.386   4.276  19.256  0.00  0.00    +0.000 C 
BRANCH  24  26
ATOM     26  O   UNL     1       2.198   4.928  21.610  0.00  0.00    +0.000 OA
ATOM     27  H   UNL     1       1.814   4.017  21.710  0.00  0.00    +0.000 HD
ENDBRANCH  24  26
BRANCH  23  28
ATOM     28  O   UNL     1       1.973   7.669  20.989  0.00  0.00    +0.000 OA
ATOM     29  H   UNL     1       1.240   8.184  20.557  0.00  0.00    +0.000 HD
ENDBRANCH  23  28
BRANCH  22  30
ATOM     30  O   UNL     1       2.505   8.471  18.346  0.00  0.00    +0.000 OA
ATOM     31  H   UNL     1       1.691   9.035  18.272  0.00  0.00    +0.000 HD
ENDBRANCH  22  30
BRANCH  25  32
ATOM     32  C   UNL     1       1.478   3.013  19.509  0.00  0.00    +0.000 C 
BRANCH  32  33
ATOM     33  O   UNL     1       0.358   3.290  20.310  0.00  0.00    +0.000 OA
ATOM     34  H   UNL     1      -0.282   3.795  19.739  0.00  0.00    +0.000 HD
ENDBRANCH  32  33
ENDBRANCH  25  32
ENDBRANCH  19  20
ENDBRANCH   1  19
TORSDOF 18
ENDMDL
MODEL 5
REMARK VINA RESULT:      -6.2      2.003      6.802
REMARK  Name = 
REMARK  18 active torsions:
REMARK  status: ('A' for Active; 'I' for Inactive)
REMARK    1  A    between atoms: O_1  and  C_2
REMARK    2  A    between atoms: C_2  and  C_3
REMARK    3  A    between atoms: C_3  and  O_4
REMARK    4  A    between atoms: C_3  and  C_5
REMARK    5  A    between atoms: C_5  and  O_6
REMARK    6  A    between atoms: C_5  and  C_7
REMARK    7  A    between atoms: C_7  and  O_8
REMARK    8  A    between atoms: C_7  and  C_9
REMARK    9  A    between atoms: C_9  and  O_10
REMARK   10  A    between atoms: C_9  and  C_11
REMARK   11  A    between atoms: C_11  and  O_12
REMARK   12  A    between atoms: C_11  and  C_13
REMARK   13  A    between atoms: C_13  and  N_14
REMARK   14  A    between atoms: C_16  and  O_17
REMARK   15  A    between atoms: C_18  and  O_19
REMARK   16  A    between atoms: C_20  and  O_21
REMARK   17  A    between atoms: C_22  and  C_23
REMARK   18  A    between atoms: C_23  and  O_24
REMARK                            x       y       z     vdW  Elec       q    Type
REMARK                         _______ _______ _______ _____ _____    ______ ____
ROOT
ATOM      1  C   UNL     1       6.440   5.410  18.860  0.00  0.00    +0.000 C 
ENDROOT
BRANCH   1   2
ATOM      2  O   UNL     1       7.285   5.078  19.936  0.00  0.00    +0.000 OA
ATOM      3  H   UNL     1       8.211   5.012  19.588  0.00  0.00    +0.000 HD
ENDBRANCH   1   2
BRANCH   1   4
ATOM      4  C   UNL     1       6.823   4.599  17.603  0.00  0.00    +0.000 C 
BRANCH   4   5
ATOM      5  O   UNL     1       8.157   4.176  17.777  0.00  0.00    +0.000 OA
ATOM      6  H   UNL     1       8.577   4.765  18.456  0.00  0.00    +0.000 HD
ENDBRANCH   4   5
BRANCH   4   7
ATOM      7  C   UNL     1       6.720   5.431  16.283  0.00  0.00    +0.000 C 
BRANCH   7   8
ATOM      8  O   UNL     1       7.290   6.719  16.412  0.00  0.00    +0.000 OA
ATOM      9  H   UNL     1       6.631   7.396  16.113  0.00  0.00    +0.000 HD
ENDBRANCH   7   8
BRANCH   7  10
ATOM     10  C   UNL     1       7.298   4.685  15.036  0.00  0.00    +0.000 C 
BRANCH  10  11
ATOM     11  O   UNL     1       8.020   5.530  14.168  0.00  0.00    +0.000 OA
ATOM     12  H   UNL     1       8.909   5.126  13.991  0.00  0.00    +0.000 HD
ENDBRANCH  10  11
BRANCH  10  13
ATOM     13  C   UNL     1       6.202   3.903  14.252  0.00  0.00    +0.000 C 
BRANCH  13  14
ATOM     14  O   UNL     1       4.939   4.509  14.388  0.00  0.00    +0.000 OA
ATOM     15  H   UNL     1       4.794   5.096  13.602  0.00  0.00    +0.000 HD
ENDBRANCH  13  14
BRANCH  13  16
ATOM     16  C   UNL     1       6.541   3.717  12.761  0.00  0.00    +0.000 C 
BRANCH  16  17
ATOM     17  O   UNL     1       5.414   3.259  12.064  0.00  0.00    +0.000 OA
ATOM     18  H   UNL     1       4.813   2.854  12.741  0.00  0.00    +0.000 HD
ENDBRANCH  16  17
ENDBRANCH  13  16
ENDBRANCH  10  13
ENDBRANCH   7  10
ENDBRANCH   4   7
ENDBRANCH   1   4
BRANCH   1  19
ATOM     19  C   UNL     1       4.954   5.321  19.319  0.00  0.00    +0.000 C 
BRANCH  19  20
ATOM     20  N   UNL     1       4.141   4.163  18.784  0.00  0.00    +0.000 NA
ATOM     21  C   UNL     1       3.008   4.825  18.058  0.00  0.00    +0.000 C 
ATOM     22  C   UNL     1       1.866   3.889  17.647  0.00  0.00    +0.000 C 
ATOM     23  C   UNL     1       1.279   3.249  18.909  0.00  0.00    +0.000 C 
ATOM     24  C   UNL     1       2.387   2.428  19.563  0.00  0.00    +0.000 C 
ATOM     25  C   UNL     1       3.688   3.240  19.887  0.00  0.00    +0.000 C 
BRANCH  24  26
ATOM     26  O   UNL     1       1.912   1.767  20.709  0.00  0.00    +0.000 OA
ATOM     27  H   UNL     1       2.706   1.453  21.217  0.00  0.00    +0.000 HD
ENDBRANCH  24  26
BRANCH  23  28
ATOM     28  O   UNL     1       0.171   2.435  18.594  0.00  0.00    +0.000 OA
ATOM     29  H   UNL     1       0.103   1.721  19.281  0.00  0.00    +0.000 HD
ENDBRANCH  23  28
BRANCH  22  30
ATOM     30  O   UNL     1       0.878   4.597  16.938  0.00  0.00    +0.000 OA
ATOM     31  H   UNL     1      -0.010   4.259  17.229  0.00  0.00    +0.000 HD
ENDBRANCH  22  30
BRANCH  25  32
ATOM     32  C   UNL     1       4.782   2.170  20.265  0.00  0.00    +0.000 C 
BRANCH  32  33
ATOM     33  O   UNL     1       4.581   1.599  21.532  0.00  0.00    +0.000 OA
ATOM     34  H   UNL     1       3.993   0.807  21.398  0.00  0.00    +0.000 HD
ENDBRANCH  32  33
ENDBRANCH  25  32
ENDBRANCH  19  20
ENDBRANCH   1  19
TORSDOF 18
ENDMDL
MODEL 6
REMARK VINA RESULT:      -6.1      1.962      6.380
REMARK  Name = 
REMARK  18 active torsions:
REMARK  status: ('A' for Active; 'I' for Inactive)
REMARK    1  A    between atoms: O_1  and  C_2
REMARK    2  A    between atoms: C_2  and  C_3
REMARK    3  A    between atoms: C_3  and  O_4
REMARK    4  A    between atoms: C_3  and  C_5
REMARK    5  A    between atoms: C_5  and  O_6
REMARK    6  A    between atoms: C_5  and  C_7
REMARK    7  A    between atoms: C_7  and  O_8
REMARK    8  A    between atoms: C_7  and  C_9
REMARK    9  A    between atoms: C_9  and  O_10
REMARK   10  A    between atoms: C_9  and  C_11
REMARK   11  A    between atoms: C_11  and  O_12
REMARK   12  A    between atoms: C_11  and  C_13
REMARK   13  A    between atoms: C_13  and  N_14
REMARK   14  A    between atoms: C_16  and  O_17
REMARK   15  A    between atoms: C_18  and  O_19
REMARK   16  A    between atoms: C_20  and  O_21
REMARK   17  A    between atoms: C_22  and  C_23
REMARK   18  A    between atoms: C_23  and  O_24
REMARK                            x       y       z     vdW  Elec       q    Type
REMARK                         _______ _______ _______ _____ _____    ______ ____
ROOT
ATOM      1  C   UNL     1       6.489   5.616  19.265  0.00  0.00    +0.000 C 
ENDROOT
BRANCH   1   2
ATOM      2  O   UNL     1       7.535   5.269  20.143  0.00  0.00    +0.000 OA
ATOM      3  H   UNL     1       7.322   4.385  20.536  0.00  0.00    +0.000 HD
ENDBRANCH   1   2
BRANCH   1   4
ATOM      4  C   UNL     1       7.058   6.192  17.950  0.00  0.00    +0.000 C 
BRANCH   4   5
ATOM      5  O   UNL     1       6.038   6.970  17.366  0.00  0.00    +0.000 OA
ATOM      6  H   UNL     1       5.167   6.625  17.692  0.00  0.00    +0.000 HD
ENDBRANCH   4   5
BRANCH   4   7
ATOM      7  C   UNL     1       7.498   5.085  16.938  0.00  0.00    +0.000 C 
BRANCH   7   8
ATOM      8  O   UNL     1       8.092   3.974  17.579  0.00  0.00    +0.000 OA
ATOM      9  H   UNL     1       7.856   3.149  17.083  0.00  0.00    +0.000 HD
ENDBRANCH   7   8
BRANCH   7  10
ATOM     10  C   UNL     1       6.346   4.630  15.981  0.00  0.00    +0.000 C 
BRANCH  10  11
ATOM     11  O   UNL     1       6.050   3.255  16.083  0.00  0.00    +0.000 OA
ATOM     12  H   UNL     1       5.486   2.990  15.311  0.00  0.00    +0.000 HD
ENDBRANCH  10  11
BRANCH  10  13
ATOM     13  C   UNL     1       6.617   5.024  14.499  0.00  0.00    +0.000 C 
BRANCH  13  14
ATOM     14  O   UNL     1       7.911   5.552  14.333  0.00  0.00    +0.000 OA
ATOM     15  H   UNL     1       8.538   4.793  14.208  0.00  0.00    +0.000 HD
ENDBRANCH  13  14
BRANCH  13  16
ATOM     16  C   UNL     1       6.389   3.862  13.513  0.00  0.00    +0.000 C 
BRANCH  16  17
ATOM     17  O   UNL     1       5.035   3.792  13.156  0.00  0.00    +0.000 OA
ATOM     18  H   UNL     1       4.540   3.561  13.985  0.00  0.00    +0.000 HD
ENDBRANCH  16  17
ENDBRANCH  13  16
ENDBRANCH  10  13
ENDBRANCH   7  10
ENDBRANCH   4   7
ENDBRANCH   1   4
BRANCH   1  19
ATOM     19  C   UNL     1       5.504   4.417  19.131  0.00  0.00    +0.000 C 
BRANCH  19  20
ATOM     20  N   UNL     1       4.064   4.667  19.523  0.00  0.00    +0.000 NA
ATOM     21  C   UNL     1       3.787   3.618  20.559  0.00  0.00    +0.000 C 
ATOM     22  C   UNL     1       2.311   3.454  20.936  0.00  0.00    +0.000 C 
ATOM     23  C   UNL     1       1.523   3.068  19.680  0.00  0.00    +0.000 C 
ATOM     24  C   UNL     1       1.659   4.216  18.683  0.00  0.00    +0.000 C 
ATOM     25  C   UNL     1       3.139   4.597  18.335  0.00  0.00    +0.000 C 
BRANCH  24  26
ATOM     26  O   UNL     1       0.921   3.956  17.515  0.00  0.00    +0.000 OA
ATOM     27  H   UNL     1       0.127   3.423  17.783  0.00  0.00    +0.000 HD
ENDBRANCH  24  26
BRANCH  23  28
ATOM     28  O   UNL     1       0.168   2.829  19.988  0.00  0.00    +0.000 OA
ATOM     29  H   UNL     1      -0.055   1.899  19.716  0.00  0.00    +0.000 HD
ENDBRANCH  23  28
BRANCH  22  30
ATOM     30  O   UNL     1       2.163   2.480  21.940  0.00  0.00    +0.000 OA
ATOM     31  H   UNL     1       2.885   1.807  21.824  0.00  0.00    +0.000 HD
ENDBRANCH  22  30
BRANCH  25  32
ATOM     32  C   UNL     1       3.060   5.962  17.551  0.00  0.00    +0.000 C 
BRANCH  32  33
ATOM     33  O   UNL     1       3.243   7.083  18.376  0.00  0.00    +0.000 OA
ATOM     34  H   UNL     1       2.391   7.214  18.873  0.00  0.00    +0.000 HD
ENDBRANCH  32  33
ENDBRANCH  25  32
ENDBRANCH  19  20
ENDBRANCH   1  19
TORSDOF 18
ENDMDL
MODEL 7
REMARK VINA RESULT:      -6.1      1.870      6.537
REMARK  Name = 
REMARK  18 active torsions:
REMARK  status: ('A' for Active; 'I' for Inactive)
REMARK    1  A    between atoms: O_1  and  C_2
REMARK    2  A    between atoms: C_2  and  C_3
REMARK    3  A    between atoms: C_3  and  O_4
REMARK    4  A    between atoms: C_3  and  C_5
REMARK    5  A    between atoms: C_5  and  O_6
REMARK    6  A    between atoms: C_5  and  C_7
REMARK    7  A    between atoms: C_7  and  O_8
REMARK    8  A    between atoms: C_7  and  C_9
REMARK    9  A    between atoms: C_9  and  O_10
REMARK   10  A    between atoms: C_9  and  C_11
REMARK   11  A    between atoms: C_11  and  O_12
REMARK   12  A    between atoms: C_11  and  C_13
REMARK   13  A    between atoms: C_13  and  N_14
REMARK   14  A    between atoms: C_16  and  O_17
REMARK   15  A    between atoms: C_18  and  O_19
REMARK   16  A    between atoms: C_20  and  O_21
REMARK   17  A    between atoms: C_22  and  C_23
REMARK   18  A    between atoms: C_23  and  O_24
REMARK                            x       y       z     vdW  Elec       q    Type
REMARK                         _______ _______ _______ _____ _____    ______ ____
ROOT
ATOM      1  C   UNL     1       6.735   5.545  18.420  0.00  0.00    +0.000 C 
ENDROOT
BRANCH   1   2
ATOM      2  O   UNL     1       7.861   5.361  19.246  0.00  0.00    +0.000 OA
ATOM      3  H   UNL     1       8.586   5.947  18.909  0.00  0.00    +0.000 HD
ENDBRANCH   1   2
BRANCH   1   4
ATOM      4  C   UNL     1       7.154   6.163  17.069  0.00  0.00    +0.000 C 
BRANCH   4   5
ATOM      5  O   UNL     1       6.987   7.558  17.185  0.00  0.00    +0.000 OA
ATOM      6  H   UNL     1       7.733   7.910  17.734  0.00  0.00    +0.000 HD
ENDBRANCH   4   5
BRANCH   4   7
ATOM      7  C   UNL     1       6.297   5.645  15.868  0.00  0.00    +0.000 C 
BRANCH   7   8
ATOM      8  O   UNL     1       5.580   6.683  15.230  0.00  0.00    +0.000 OA
ATOM      9  H   UNL     1       5.119   6.316  14.434  0.00  0.00    +0.000 HD
ENDBRANCH   7   8
BRANCH   7  10
ATOM     10  C   UNL     1       7.126   4.817  14.831  0.00  0.00    +0.000 C 
BRANCH  10  11
ATOM     11  O   UNL     1       7.895   5.621  13.964  0.00  0.00    +0.000 OA
ATOM     12  H   UNL     1       7.736   6.575  14.186  0.00  0.00    +0.000 HD
ENDBRANCH  10  11
BRANCH  10  13
ATOM     13  C   UNL     1       6.238   3.828  14.017  0.00  0.00    +0.000 C 
BRANCH  13  14
ATOM     14  O   UNL     1       4.875   4.165  14.107  0.00  0.00    +0.000 OA
ATOM     15  H   UNL     1       4.503   4.188  13.187  0.00  0.00    +0.000 HD
ENDBRANCH  13  14
BRANCH  13  16
ATOM     16  C   UNL     1       6.658   3.715  12.539  0.00  0.00    +0.000 C 
BRANCH  16  17
ATOM     17  O   UNL     1       5.829   2.804  11.871  0.00  0.00    +0.000 OA
ATOM     18  H   UNL     1       5.680   2.050  12.498  0.00  0.00    +0.000 HD
ENDBRANCH  16  17
ENDBRANCH  13  16
ENDBRANCH  10  13
ENDBRANCH   7  10
ENDBRANCH   4   7
ENDBRANCH   1   4
BRANCH   1  19
ATOM     19  C   UNL     1       5.916   4.221  18.356  0.00  0.00    +0.000 C 
BRANCH  19  20
ATOM     20  N   UNL     1       4.408   4.349  18.348  0.00  0.00    +0.000 NA
ATOM     21  C   UNL     1       4.154   5.643  19.061  0.00  0.00    +0.000 C 
ATOM     22  C   UNL     1       2.693   5.895  19.448  0.00  0.00    +0.000 C 
ATOM     23  C   UNL     1       2.231   4.769  20.378  0.00  0.00    +0.000 C 
ATOM     24  C   UNL     1       2.323   3.461  19.594  0.00  0.00    +0.000 C 
ATOM     25  C   UNL     1       3.742   3.164  18.998  0.00  0.00    +0.000 C 
BRANCH  24  26
ATOM     26  O   UNL     1       1.869   2.379  20.368  0.00  0.00    +0.000 OA
ATOM     27  H   UNL     1       0.889   2.304  20.222  0.00  0.00    +0.000 HD
ENDBRANCH  24  26
BRANCH  23  28
ATOM     28  O   UNL     1       0.913   4.992  20.826  0.00  0.00    +0.000 OA
ATOM     29  H   UNL     1       0.421   5.486  20.116  0.00  0.00    +0.000 HD
ENDBRANCH  23  28
BRANCH  22  30
ATOM     30  O   UNL     1       2.555   7.148  20.072  0.00  0.00    +0.000 OA
ATOM     31  H   UNL     1       1.647   7.496  19.866  0.00  0.00    +0.000 HD
ENDBRANCH  22  30
BRANCH  25  32
ATOM     32  C   UNL     1       3.547   1.959  18.001  0.00  0.00    +0.000 C 
BRANCH  32  33
ATOM     33  O   UNL     1       2.236   1.859  17.507  0.00  0.00    +0.000 OA
ATOM     34  H   UNL     1       2.311   1.750  16.520  0.00  0.00    +0.000 HD
ENDBRANCH  32  33
ENDBRANCH  25  32
ENDBRANCH  19  20
ENDBRANCH   1  19
TORSDOF 18
ENDMDL
MODEL 8
REMARK VINA RESULT:      -6.0      2.111      6.648
REMARK  Name = 
REMARK  18 active torsions:
REMARK  status: ('A' for Active; 'I' for Inactive)
REMARK    1  A    between atoms: O_1  and  C_2
REMARK    2  A    between atoms: C_2  and  C_3
REMARK    3  A    between atoms: C_3  and  O_4
REMARK    4  A    between atoms: C_3  and  C_5
REMARK    5  A    between atoms: C_5  and  O_6
REMARK    6  A    between atoms: C_5  and  C_7
REMARK    7  A    between atoms: C_7  and  O_8
REMARK    8  A    between atoms: C_7  and  C_9
REMARK    9  A    between atoms: C_9  and  O_10
REMARK   10  A    between atoms: C_9  and  C_11
REMARK   11  A    between atoms: C_11  and  O_12
REMARK   12  A    between atoms: C_11  and  C_13
REMARK   13  A    between atoms: C_13  and  N_14
REMARK   14  A    between atoms: C_16  and  O_17
REMARK   15  A    between atoms: C_18  and  O_19
REMARK   16  A    between atoms: C_20  and  O_21
REMARK   17  A    between atoms: C_22  and  C_23
REMARK   18  A    between atoms: C_23  and  O_24
REMARK                            x       y       z     vdW  Elec       q    Type
REMARK                         _______ _______ _______ _____ _____    ______ ____
ROOT
ATOM      1  C   UNL     1       5.821   5.801  17.641  0.00  0.00    +0.000 C 
ENDROOT
BRANCH   1   2
ATOM      2  O   UNL     1       5.637   7.191  17.497  0.00  0.00    +0.000 OA
ATOM      3  H   UNL     1       5.769   7.418  16.541  0.00  0.00    +0.000 HD
ENDBRANCH   1   2
BRANCH   1   4
ATOM      4  C   UNL     1       7.165   5.369  17.015  0.00  0.00    +0.000 C 
BRANCH   4   5
ATOM      5  O   UNL     1       7.733   6.516  16.425  0.00  0.00    +0.000 OA
ATOM      6  H   UNL     1       8.287   6.969  17.112  0.00  0.00    +0.000 HD
ENDBRANCH   4   5
BRANCH   4   7
ATOM      7  C   UNL     1       7.002   4.262  15.922  0.00  0.00    +0.000 C 
BRANCH   7   8
ATOM      8  O   UNL     1       6.010   3.313  16.260  0.00  0.00    +0.000 OA
ATOM      9  H   UNL     1       6.241   2.443  15.849  0.00  0.00    +0.000 HD
ENDBRANCH   7   8
BRANCH   7  10
ATOM     10  C   UNL     1       6.758   4.840  14.489  0.00  0.00    +0.000 C 
BRANCH  10  11
ATOM     11  O   UNL     1       5.919   5.974  14.482  0.00  0.00    +0.000 OA
ATOM     12  H   UNL     1       4.979   5.676  14.375  0.00  0.00    +0.000 HD
ENDBRANCH  10  11
BRANCH  10  13
ATOM     13  C   UNL     1       6.231   3.762  13.496  0.00  0.00    +0.000 C 
BRANCH  13  14
ATOM     14  O   UNL     1       4.850   3.903  13.266  0.00  0.00    +0.000 OA
ATOM     15  H   UNL     1       4.462   2.996  13.159  0.00  0.00    +0.000 HD
ENDBRANCH  13  14
BRANCH  13  16
ATOM     16  C   UNL     1       6.991   3.750  12.157  0.00  0.00    +0.000 C 
BRANCH  16  17
ATOM     17  O   UNL     1       6.992   2.457  11.614  0.00  0.00    +0.000 OA
ATOM     18  H   UNL     1       7.899   2.088  11.773  0.00  0.00    +0.000 HD
ENDBRANCH  16  17
ENDBRANCH  13  16
ENDBRANCH  10  13
ENDBRANCH   7  10
ENDBRANCH   4   7
ENDBRANCH   1   4
BRANCH   1  19
ATOM     19  C   UNL     1       5.583   5.396  19.126  0.00  0.00    +0.000 C 
BRANCH  19  20
ATOM     20  N   UNL     1       4.348   4.574  19.421  0.00  0.00    +0.000 NA
ATOM     21  C   UNL     1       4.774   3.167  19.124  0.00  0.00    +0.000 C 
ATOM     22  C   UNL     1       3.635   2.143  19.068  0.00  0.00    +0.000 C 
ATOM     23  C   UNL     1       2.655   2.559  17.967  0.00  0.00    +0.000 C 
ATOM     24  C   UNL     1       2.083   3.921  18.355  0.00  0.00    +0.000 C 
ATOM     25  C   UNL     1       3.164   5.028  18.604  0.00  0.00    +0.000 C 
BRANCH  24  26
ATOM     26  O   UNL     1       1.133   4.353  17.412  0.00  0.00    +0.000 OA
ATOM     27  H   UNL     1       1.622   4.539  16.568  0.00  0.00    +0.000 HD
ENDBRANCH  24  26
BRANCH  23  28
ATOM     28  O   UNL     1       1.625   1.606  17.822  0.00  0.00    +0.000 OA
ATOM     29  H   UNL     1       0.791   2.084  17.565  0.00  0.00    +0.000 HD
ENDBRANCH  23  28
BRANCH  22  30
ATOM     30  O   UNL     1       4.142   0.853  18.826  0.00  0.00    +0.000 OA
ATOM     31  H   UNL     1       3.759   0.239  19.507  0.00  0.00    +0.000 HD
ENDBRANCH  22  30
BRANCH  25  32
ATOM     32  C   UNL     1       2.400   6.235  19.270  0.00  0.00    +0.000 C 
BRANCH  32  33
ATOM     33  O   UNL     1       2.141   7.285  18.374  0.00  0.00    +0.000 OA
ATOM     34  H   UNL     1       1.499   6.933  17.699  0.00  0.00    +0.000 HD
ENDBRANCH  32  33
ENDBRANCH  25  32
ENDBRANCH  19  20
ENDBRANCH   1  19
TORSDOF 18
ENDMDL
MODEL 9
REMARK VINA RESULT:      -6.0      2.135      6.875
REMARK  Name = 
REMARK  18 active torsions:
REMARK  status: ('A' for Active; 'I' for Inactive)
REMARK    1  A    between atoms: O_1  and  C_2
REMARK    2  A    between atoms: C_2  and  C_3
REMARK    3  A    between atoms: C_3  and  O_4
REMARK    4  A    between atoms: C_3  and  C_5
REMARK    5  A    between atoms: C_5  and  O_6
REMARK    6  A    between atoms: C_5  and  C_7
REMARK    7  A    between atoms: C_7  and  O_8
REMARK    8  A    between atoms: C_7  and  C_9
REMARK    9  A    between atoms: C_9  and  O_10
REMARK   10  A    between atoms: C_9  and  C_11
REMARK   11  A    between atoms: C_11  and  O_12
REMARK   12  A    between atoms: C_11  and  C_13
REMARK   13  A    between atoms: C_13  and  N_14
REMARK   14  A    between atoms: C_16  and  O_17
REMARK   15  A    between atoms: C_18  and  O_19
REMARK   16  A    between atoms: C_20  and  O_21
REMARK   17  A    between atoms: C_22  and  C_23
REMARK   18  A    between atoms: C_23  and  O_24
REMARK                            x       y       z     vdW  Elec       q    Type
REMARK                         _______ _______ _______ _____ _____    ______ ____
ROOT
ATOM      1  C   UNL     1       5.695   6.101  17.693  0.00  0.00    +0.000 C 
ENDROOT
BRANCH   1   2
ATOM      2  O   UNL     1       5.987   7.472  17.837  0.00  0.00    +0.000 OA
ATOM      3  H   UNL     1       5.149   7.937  18.092  0.00  0.00    +0.000 HD
ENDBRANCH   1   2
BRANCH   1   4
ATOM      4  C   UNL     1       6.648   5.452  16.667  0.00  0.00    +0.000 C 
BRANCH   4   5
ATOM      5  O   UNL     1       7.717   6.350  16.472  0.00  0.00    +0.000 OA
ATOM      6  H   UNL     1       8.253   6.371  17.307  0.00  0.00    +0.000 HD
ENDBRANCH   4   5
BRANCH   4   7
ATOM      7  C   UNL     1       5.962   5.170  15.290  0.00  0.00    +0.000 C 
BRANCH   7   8
ATOM      8  O   UNL     1       5.315   6.312  14.766  0.00  0.00    +0.000 OA
ATOM      9  H   UNL     1       5.049   6.132  13.829  0.00  0.00    +0.000 HD
ENDBRANCH   7   8
BRANCH   7  10
ATOM     10  C   UNL     1       6.931   4.541  14.235  0.00  0.00    +0.000 C 
BRANCH  10  11
ATOM     11  O   UNL     1       7.678   5.503  13.523  0.00  0.00    +0.000 OA
ATOM     12  H   UNL     1       8.446   5.054  13.086  0.00  0.00    +0.000 HD
ENDBRANCH  10  11
BRANCH  10  13
ATOM     13  C   UNL     1       6.196   3.581  13.253  0.00  0.00    +0.000 C 
BRANCH  13  14
ATOM     14  O   UNL     1       4.844   3.940  13.095  0.00  0.00    +0.000 OA
ATOM     15  H   UNL     1       4.379   3.769  13.955  0.00  0.00    +0.000 HD
ENDBRANCH  13  14
BRANCH  13  16
ATOM     16  C   UNL     1       6.881   3.484  11.877  0.00  0.00    +0.000 C 
BRANCH  16  17
ATOM     17  O   UNL     1       7.065   2.140  11.523  0.00  0.00    +0.000 OA
ATOM     18  H   UNL     1       8.040   1.967  11.582  0.00  0.00    +0.000 HD
ENDBRANCH  16  17
ENDBRANCH  13  16
ENDBRANCH  10  13
ENDBRANCH   7  10
ENDBRANCH   4   7
ENDBRANCH   1   4
BRANCH   1  19
ATOM     19  C   UNL     1       5.627   5.434  19.099  0.00  0.00    +0.000 C 
BRANCH  19  20
ATOM     20  N   UNL     1       4.426   4.560  19.385  0.00  0.00    +0.000 NA
ATOM     21  C   UNL     1       4.875   3.188  18.977  0.00  0.00    +0.000 C 
ATOM     22  C   UNL     1       3.761   2.139  18.895  0.00  0.00    +0.000 C 
ATOM     23  C   UNL     1       2.727   2.600  17.864  0.00  0.00    +0.000 C 
ATOM     24  C   UNL     1       2.137   3.917  18.364  0.00  0.00    +0.000 C 
ATOM     25  C   UNL     1       3.199   5.034  18.647  0.00  0.00    +0.000 C 
BRANCH  24  26
ATOM     26  O   UNL     1       1.140   4.384  17.490  0.00  0.00    +0.000 OA
ATOM     27  H   UNL     1       1.467   4.233  16.565  0.00  0.00    +0.000 HD
ENDBRANCH  24  26
BRANCH  23  28
ATOM     28  O   UNL     1       1.717   1.631  17.693  0.00  0.00    +0.000 OA
ATOM     29  H   UNL     1       1.370   1.380  18.591  0.00  0.00    +0.000 HD
ENDBRANCH  23  28
BRANCH  22  30
ATOM     30  O   UNL     1       4.290   0.883  18.546  0.00  0.00    +0.000 OA
ATOM     31  H   UNL     1       5.172   0.786  18.994  0.00  0.00    +0.000 HD
ENDBRANCH  22  30
BRANCH  25  32
ATOM     32  C   UNL     1       2.432   6.172  19.422  0.00  0.00    +0.000 C 
BRANCH  32  33
ATOM     33  O   UNL     1       1.541   5.677  20.388  0.00  0.00    +0.000 OA
ATOM     34  H   UNL     1       1.226   4.792  20.059  0.00  0.00    +0.000 HD
ENDBRANCH  32  33
ENDBRANCH  25  32
ENDBRANCH  19  20
ENDBRANCH   1  19
TORSDOF 18
ENDMDL
