MODEL 1
REMARK VINA RESULT:      -7.1      0.000      0.000
REMARK  Name = 
REMARK  13 active torsions:
REMARK  status: ('A' for Active; 'I' for Inactive)
REMARK    1  A    between atoms: C_1  and  C_2
REMARK    2  A    between atoms: C_2  and  C_3
REMARK    3  A    between atoms: C_6  and  C_7
REMARK    4  A    between atoms: C_8  and  C_9
REMARK    5  A    between atoms: C_9  and  O_11
REMARK    6  A    between atoms: O_11  and  C_12
REMARK    7  A    between atoms: C_12  and  C_13
REMARK    8  A    between atoms: N_15  and  C_16
REMARK    9  A    between atoms: N_15  and  C_18
REMARK   10  A    between atoms: C_16  and  C_17
REMARK   11  A    between atoms: C_19  and  N_20
REMARK   12  A    between atoms: N_21  and  C_22
REMARK   13  A    between atoms: C_22  and  C_23
REMARK                            x       y       z     vdW  Elec       q    Type
REMARK                         _______ _______ _______ _____ _____    ______ ____
ROOT
ATOM      1  C   UNL     1       2.227   5.960  19.412  0.00  0.00    +0.000 A 
ATOM      2  C   UNL     1       2.260   7.147  18.759  0.00  0.00    +0.000 A 
ATOM      3  N   UNL     1       1.859   8.309  19.418  0.00  0.00    +0.000 N 
ATOM      4  C   UNL     1       1.368   8.298  20.720  0.00  0.00    +0.000 A 
ATOM      5  O   UNL     1       1.002   9.296  21.338  0.00  0.00    +0.000 OA
ATOM      6  N   UNL     1       1.312   7.087  21.338  0.00  0.00    +0.000 N 
ATOM      7  C   UNL     1       1.842   5.935  20.853  0.00  0.00    +0.000 A 
ATOM      8  O   UNL     1       1.994   4.948  21.564  0.00  0.00    +0.000 OA
ATOM      9  H   UNL     1       1.058   7.101  22.314  0.00  0.00    +0.000 HD
ENDROOT
BRANCH   1  12
ATOM     10  C   UNL     1       3.833   4.242  18.940  0.00  0.00    +0.000 C 
ATOM     11  O   UNL     1       4.678   4.780  19.667  0.00  0.00    +0.000 OA
ATOM     12  N   UNL     1       2.537   4.746  18.781  0.00  0.00    +0.000 N 
BRANCH  12  13
ATOM     13  C   UNL     1       1.407   3.996  18.194  0.00  0.00    +0.000 C 
ATOM     14  C   UNL     1       0.882   2.902  19.121  0.00  0.00    +0.000 C 
ENDBRANCH  12  13
BRANCH  10  15
ATOM     15  C   UNL     1       4.221   2.989  18.148  0.00  0.00    +0.000 C 
BRANCH  15  16
ATOM     16  O   UNL     1       5.290   3.218  17.223  0.00  0.00    +0.000 OA
BRANCH  16  17
ATOM     17  C   UNL     1       4.941   4.010  16.162  0.00  0.00    +0.000 C 
ATOM     18  O   UNL     1       3.797   4.096  15.733  0.00  0.00    +0.000 OA
BRANCH  17  24
ATOM     19  C   UNL     1       6.666   4.551  14.266  0.00  0.00    +0.000 A 
ATOM     20  N   UNL     1       7.693   5.398  14.116  0.00  0.00    +0.000 NA
ATOM     21  O   UNL     1       7.812   6.066  15.314  0.00  0.00    +0.000 OA
ATOM     22  C   UNL     1       6.859   5.629  16.176  0.00  0.00    +0.000 A 
ATOM     23  C   UNL     1       6.880   6.232  17.522  0.00  0.00    +0.000 C 
ATOM     24  C   UNL     1       6.075   4.672  15.557  0.00  0.00    +0.000 A 
BRANCH  19  26
ATOM     25  C   UNL     1       6.967   4.092  11.833  0.00  0.00    +0.000 C 
ATOM     26  C   UNL     1       6.316   3.645  13.135  0.00  0.00    +0.000 C 
ENDBRANCH  19  26
ENDBRANCH  17  24
ENDBRANCH  16  17
ENDBRANCH  15  16
ENDBRANCH  10  15
ENDBRANCH   1  12
BRANCH   2  27
ATOM     27  N   UNL     1       2.653   7.202  17.425  0.00  0.00    +0.000 N 
ATOM     28  H   UNL     1       2.358   8.049  16.938  0.00  0.00    +0.000 HD
ATOM     29  H   UNL     1       3.620   6.971  17.252  0.00  0.00    +0.000 HD
ENDBRANCH   2  27
BRANCH   3  30
ATOM     30  C   UNL     1       2.008   9.620  18.780  0.00  0.00    +0.000 C 
BRANCH  30  31
ATOM     31  C   UNL     1       0.705  10.301  18.396  0.00  0.00    +0.000 A 
ATOM     32  C   UNL     1      -0.310   9.587  17.741  0.00  0.00    +0.000 A 
ATOM     33  C   UNL     1      -1.562  10.164  17.515  0.00  0.00    +0.000 A 
ATOM     34  C   UNL     1      -1.817  11.466  17.937  0.00  0.00    +0.000 A 
ATOM     35  C   UNL     1      -0.812  12.198  18.563  0.00  0.00    +0.000 A 
ATOM     36  C   UNL     1       0.440  11.622  18.792  0.00  0.00    +0.000 A 
ENDBRANCH  30  31
ENDBRANCH   3  30
TORSDOF 10
ENDMDL
MODEL 2
REMARK VINA RESULT:      -7.0      1.353      1.643
REMARK  Name = 
REMARK  13 active torsions:
REMARK  status: ('A' for Active; 'I' for Inactive)
REMARK    1  A    between atoms: C_1  and  C_2
REMARK    2  A    between atoms: C_2  and  C_3
REMARK    3  A    between atoms: C_6  and  C_7
REMARK    4  A    between atoms: C_8  and  C_9
REMARK    5  A    between atoms: C_9  and  O_11
REMARK    6  A    between atoms: O_11  and  C_12
REMARK    7  A    between atoms: C_12  and  C_13
REMARK    8  A    between atoms: N_15  and  C_16
REMARK    9  A    between atoms: N_15  and  C_18
REMARK   10  A    between atoms: C_16  and  C_17
REMARK   11  A    between atoms: C_19  and  N_20
REMARK   12  A    between atoms: N_21  and  C_22
REMARK   13  A    between atoms: C_22  and  C_23
REMARK                            x       y       z     vdW  Elec       q    Type
REMARK                         _______ _______ _______ _____ _____    ______ ____
ROOT
ATOM      1  C   UNL     1       2.487   6.252  19.552  0.00  0.00    +0.000 A 
ATOM      2  C   UNL     1       2.428   7.438  18.900  0.00  0.00    +0.000 A 
ATOM      3  N   UNL     1       1.651   8.473  19.420  0.00  0.00    +0.000 N 
ATOM      4  C   UNL     1       0.879   8.324  20.568  0.00  0.00    +0.000 A 
ATOM      5  O   UNL     1       0.179   9.208  21.060  0.00  0.00    +0.000 OA
ATOM      6  N   UNL     1       0.930   7.111  21.181  0.00  0.00    +0.000 N 
ATOM      7  C   UNL     1       1.786   6.106  20.861  0.00  0.00    +0.000 A 
ATOM      8  O   UNL     1       1.966   5.152  21.608  0.00  0.00    +0.000 OA
ATOM      9  H   UNL     1       0.455   7.044  22.068  0.00  0.00    +0.000 HD
ENDROOT
BRANCH   1  12
ATOM     10  C   UNL     1       4.572   5.120  19.197  0.00  0.00    +0.000 C 
ATOM     11  O   UNL     1       5.192   5.985  19.830  0.00  0.00    +0.000 OA
ATOM     12  N   UNL     1       3.182   5.145  19.039  0.00  0.00    +0.000 N 
BRANCH  12  13
ATOM     13  C   UNL     1       2.364   4.004  18.580  0.00  0.00    +0.000 C 
ATOM     14  C   UNL     1       2.107   4.031  17.075  0.00  0.00    +0.000 C 
ENDBRANCH  12  13
BRANCH  10  15
ATOM     15  C   UNL     1       5.352   3.985  18.525  0.00  0.00    +0.000 C 
BRANCH  15  16
ATOM     16  O   UNL     1       6.771   4.133  18.642  0.00  0.00    +0.000 OA
BRANCH  16  17
ATOM     17  C   UNL     1       7.388   4.476  17.468  0.00  0.00    +0.000 C 
ATOM     18  O   UNL     1       8.483   4.043  17.130  0.00  0.00    +0.000 OA
BRANCH  17  24
ATOM     19  C   UNL     1       5.712   5.325  15.642  0.00  0.00    +0.000 A 
ATOM     20  N   UNL     1       5.231   6.516  15.260  0.00  0.00    +0.000 NA
ATOM     21  O   UNL     1       5.863   7.451  16.048  0.00  0.00    +0.000 OA
ATOM     22  C   UNL     1       6.712   6.827  16.903  0.00  0.00    +0.000 A 
ATOM     23  C   UNL     1       7.491   7.706  17.796  0.00  0.00    +0.000 C 
ATOM     24  C   UNL     1       6.646   5.459  16.710  0.00  0.00    +0.000 A 
BRANCH  19  26
ATOM     25  C   UNL     1       5.736   4.063  13.491  0.00  0.00    +0.000 C 
ATOM     26  C   UNL     1       5.241   4.102  14.930  0.00  0.00    +0.000 C 
ENDBRANCH  19  26
ENDBRANCH  17  24
ENDBRANCH  16  17
ENDBRANCH  15  16
ENDBRANCH  10  15
ENDBRANCH   1  12
BRANCH   2  27
ATOM     27  N   UNL     1       3.105   7.611  17.697  0.00  0.00    +0.000 N 
ATOM     28  H   UNL     1       3.987   7.101  17.638  0.00  0.00    +0.000 HD
ATOM     29  H   UNL     1       2.541   7.508  16.867  0.00  0.00    +0.000 HD
ENDBRANCH   2  27
BRANCH   3  30
ATOM     30  C   UNL     1       1.672   9.805  18.807  0.00  0.00    +0.000 C 
BRANCH  30  31
ATOM     31  C   UNL     1       0.325  10.312  18.321  0.00  0.00    +0.000 A 
ATOM     32  C   UNL     1      -0.513   9.491  17.551  0.00  0.00    +0.000 A 
ATOM     33  C   UNL     1      -1.810   9.895  17.224  0.00  0.00    +0.000 A 
ATOM     34  C   UNL     1      -2.287  11.128  17.658  0.00  0.00    +0.000 A 
ATOM     35  C   UNL     1      -1.459  11.967  18.399  0.00  0.00    +0.000 A 
ATOM     36  C   UNL     1      -0.162  11.564  18.729  0.00  0.00    +0.000 A 
ENDBRANCH  30  31
ENDBRANCH   3  30
TORSDOF 10
ENDMDL
MODEL 3
REMARK VINA RESULT:      -7.0      2.194      8.336
REMARK  Name = 
REMARK  13 active torsions:
REMARK  status: ('A' for Active; 'I' for Inactive)
REMARK    1  A    between atoms: C_1  and  C_2
REMARK    2  A    between atoms: C_2  and  C_3
REMARK    3  A    between atoms: C_6  and  C_7
REMARK    4  A    between atoms: C_8  and  C_9
REMARK    5  A    between atoms: C_9  and  O_11
REMARK    6  A    between atoms: O_11  and  C_12
REMARK    7  A    between atoms: C_12  and  C_13
REMARK    8  A    between atoms: N_15  and  C_16
REMARK    9  A    between atoms: N_15  and  C_18
REMARK   10  A    between atoms: C_16  and  C_17
REMARK   11  A    between atoms: C_19  and  N_20
REMARK   12  A    between atoms: N_21  and  C_22
REMARK   13  A    between atoms: C_22  and  C_23
REMARK                            x       y       z     vdW  Elec       q    Type
REMARK                         _______ _______ _______ _____ _____    ______ ____
ROOT
ATOM      1  C   UNL     1       4.598   5.506  17.704  0.00  0.00    +0.000 A 
ATOM      2  C   UNL     1       5.366   5.855  16.644  0.00  0.00    +0.000 A 
ATOM      3  N   UNL     1       6.667   5.363  16.542  0.00  0.00    +0.000 N 
ATOM      4  C   UNL     1       7.240   4.559  17.522  0.00  0.00    +0.000 A 
ATOM      5  O   UNL     1       8.383   4.106  17.475  0.00  0.00    +0.000 OA
ATOM      6  N   UNL     1       6.458   4.255  18.594  0.00  0.00    +0.000 N 
ATOM      7  C   UNL     1       5.133   4.532  18.699  0.00  0.00    +0.000 A 
ATOM      8  O   UNL     1       4.433   4.005  19.555  0.00  0.00    +0.000 OA
ATOM      9  H   UNL     1       6.841   3.587  19.245  0.00  0.00    +0.000 HD
ENDROOT
BRANCH   1  12
ATOM     10  C   UNL     1       3.197   7.415  18.084  0.00  0.00    +0.000 C 
ATOM     11  O   UNL     1       4.159   8.187  17.992  0.00  0.00    +0.000 OA
ATOM     12  N   UNL     1       3.313   6.032  17.907  0.00  0.00    +0.000 N 
BRANCH  12  13
ATOM     13  C   UNL     1       2.178   5.111  17.693  0.00  0.00    +0.000 C 
ATOM     14  C   UNL     1       1.555   4.629  19.002  0.00  0.00    +0.000 C 
ENDBRANCH  12  13
BRANCH  10  15
ATOM     15  C   UNL     1       1.818   7.982  18.440  0.00  0.00    +0.000 C 
BRANCH  15  16
ATOM     16  O   UNL     1       1.541   9.231  17.797  0.00  0.00    +0.000 OA
BRANCH  16  17
ATOM     17  C   UNL     1       0.452   9.884  18.307  0.00  0.00    +0.000 C 
ATOM     18  O   UNL     1      -0.652   9.870  17.777  0.00  0.00    +0.000 OA
BRANCH  17  24
ATOM     19  C   UNL     1       0.496  10.412  20.873  0.00  0.00    +0.000 A 
ATOM     20  N   UNL     1       1.005  11.382  21.645  0.00  0.00    +0.000 NA
ATOM     21  O   UNL     1       1.584  12.287  20.784  0.00  0.00    +0.000 OA
ATOM     22  C   UNL     1       1.431  11.862  19.505  0.00  0.00    +0.000 A 
ATOM     23  C   UNL     1       1.975  12.748  18.459  0.00  0.00    +0.000 C 
ATOM     24  C   UNL     1       0.760  10.652  19.493  0.00  0.00    +0.000 A 
BRANCH  19  26
ATOM     25  C   UNL     1      -0.197   9.398  23.044  0.00  0.00    +0.000 C 
ATOM     26  C   UNL     1      -0.243   9.294  21.526  0.00  0.00    +0.000 C 
ENDBRANCH  19  26
ENDBRANCH  17  24
ENDBRANCH  16  17
ENDBRANCH  15  16
ENDBRANCH  10  15
ENDBRANCH   1  12
BRANCH   2  27
ATOM     27  N   UNL     1       4.875   6.732  15.681  0.00  0.00    +0.000 N 
ATOM     28  H   UNL     1       4.886   7.712  15.966  0.00  0.00    +0.000 HD
ATOM     29  H   UNL     1       5.236   6.594  14.749  0.00  0.00    +0.000 HD
ENDBRANCH   2  27
BRANCH   3  30
ATOM     30  C   UNL     1       7.473   5.618  15.344  0.00  0.00    +0.000 C 
BRANCH  30  31
ATOM     31  C   UNL     1       7.103   4.785  14.129  0.00  0.00    +0.000 A 
ATOM     32  C   UNL     1       6.050   3.858  14.190  0.00  0.00    +0.000 A 
ATOM     33  C   UNL     1       5.610   3.196  13.042  0.00  0.00    +0.000 A 
ATOM     34  C   UNL     1       6.219   3.446  11.815  0.00  0.00    +0.000 A 
ATOM     35  C   UNL     1       7.283   4.341  11.742  0.00  0.00    +0.000 A 
ATOM     36  C   UNL     1       7.723   5.006  12.889  0.00  0.00    +0.000 A 
ENDBRANCH  30  31
ENDBRANCH   3  30
TORSDOF 10
ENDMDL
MODEL 4
REMARK VINA RESULT:      -6.9      2.952      5.264
REMARK  Name = 
REMARK  13 active torsions:
REMARK  status: ('A' for Active; 'I' for Inactive)
REMARK    1  A    between atoms: C_1  and  C_2
REMARK    2  A    between atoms: C_2  and  C_3
REMARK    3  A    between atoms: C_6  and  C_7
REMARK    4  A    between atoms: C_8  and  C_9
REMARK    5  A    between atoms: C_9  and  O_11
REMARK    6  A    between atoms: O_11  and  C_12
REMARK    7  A    between atoms: C_12  and  C_13
REMARK    8  A    between atoms: N_15  and  C_16
REMARK    9  A    between atoms: N_15  and  C_18
REMARK   10  A    between atoms: C_16  and  C_17
REMARK   11  A    between atoms: C_19  and  N_20
REMARK   12  A    between atoms: N_21  and  C_22
REMARK   13  A    between atoms: C_22  and  C_23
REMARK                            x       y       z     vdW  Elec       q    Type
REMARK                         _______ _______ _______ _____ _____    ______ ____
ROOT
ATOM      1  C   UNL     1       0.205  10.647  20.015  0.00  0.00    +0.000 A 
ATOM      2  C   UNL     1      -0.913  10.769  19.258  0.00  0.00    +0.000 A 
ATOM      3  N   UNL     1      -1.566  11.998  19.185  0.00  0.00    +0.000 N 
ATOM      4  C   UNL     1      -1.148  13.111  19.907  0.00  0.00    +0.000 A 
ATOM      5  O   UNL     1      -1.695  14.212  19.875  0.00  0.00    +0.000 OA
ATOM      6  N   UNL     1      -0.045  12.950  20.687  0.00  0.00    +0.000 N 
ATOM      7  C   UNL     1       0.762  11.857  20.687  0.00  0.00    +0.000 A 
ATOM      8  O   UNL     1       1.872  11.878  21.204  0.00  0.00    +0.000 OA
ATOM      9  H   UNL     1       0.315  13.786  21.122  0.00  0.00    +0.000 HD
ENDROOT
BRANCH   1  12
ATOM     10  C   UNL     1       1.642   8.938  19.140  0.00  0.00    +0.000 C 
ATOM     11  O   UNL     1       1.834   9.579  18.100  0.00  0.00    +0.000 OA
ATOM     12  N   UNL     1       0.861   9.420  20.196  0.00  0.00    +0.000 N 
BRANCH  12  13
ATOM     13  C   UNL     1       0.851   8.859  21.563  0.00  0.00    +0.000 C 
ATOM     14  C   UNL     1      -0.561   8.585  22.076  0.00  0.00    +0.000 C 
ENDBRANCH  12  13
BRANCH  10  15
ATOM     15  C   UNL     1       2.252   7.538  19.278  0.00  0.00    +0.000 C 
BRANCH  15  16
ATOM     16  O   UNL     1       2.735   7.012  18.037  0.00  0.00    +0.000 OA
BRANCH  16  17
ATOM     17  C   UNL     1       2.805   5.645  18.008  0.00  0.00    +0.000 C 
ATOM     18  O   UNL     1       1.855   4.928  17.717  0.00  0.00    +0.000 OA
BRANCH  17  24
ATOM     19  C   UNL     1       5.420   5.574  18.149  0.00  0.00    +0.000 A 
ATOM     20  N   UNL     1       6.326   4.825  18.791  0.00  0.00    +0.000 NA
ATOM     21  O   UNL     1       5.611   3.869  19.477  0.00  0.00    +0.000 OA
ATOM     22  C   UNL     1       4.285   4.046  19.256  0.00  0.00    +0.000 A 
ATOM     23  C   UNL     1       3.386   3.072  19.902  0.00  0.00    +0.000 C 
ATOM     24  C   UNL     1       4.092   5.139  18.429  0.00  0.00    +0.000 A 
BRANCH  19  26
ATOM     25  C   UNL     1       7.384   6.953  17.470  0.00  0.00    +0.000 C 
ATOM     26  C   UNL     1       5.899   6.681  17.273  0.00  0.00    +0.000 C 
ENDBRANCH  19  26
ENDBRANCH  17  24
ENDBRANCH  16  17
ENDBRANCH  15  16
ENDBRANCH  10  15
ENDBRANCH   1  12
BRANCH   2  27
ATOM     27  N   UNL     1      -1.429   9.663  18.590  0.00  0.00    +0.000 N 
ATOM     28  H   UNL     1      -1.691   9.846  17.621  0.00  0.00    +0.000 HD
ATOM     29  H   UNL     1      -0.898   8.811  18.694  0.00  0.00    +0.000 HD
ENDBRANCH   2  27
BRANCH   3  30
ATOM     30  C   UNL     1      -2.699  12.191  18.274  0.00  0.00    +0.000 C 
BRANCH  30  31
ATOM     31  C   UNL     1      -4.055  11.806  18.841  0.00  0.00    +0.000 A 
ATOM     32  C   UNL     1      -4.557  12.438  19.989  0.00  0.00    +0.000 A 
ATOM     33  C   UNL     1      -5.859  12.195  20.431  0.00  0.00    +0.000 A 
ATOM     34  C   UNL     1      -6.679  11.311  19.735  0.00  0.00    +0.000 A 
ATOM     35  C   UNL     1      -6.188  10.654  18.610  0.00  0.00    +0.000 A 
ATOM     36  C   UNL     1      -4.885  10.898  18.165  0.00  0.00    +0.000 A 
ENDBRANCH  30  31
ENDBRANCH   3  30
TORSDOF 10
ENDMDL
MODEL 5
REMARK VINA RESULT:      -6.9      2.930      5.871
REMARK  Name = 
REMARK  13 active torsions:
REMARK  status: ('A' for Active; 'I' for Inactive)
REMARK    1  A    between atoms: C_1  and  C_2
REMARK    2  A    between atoms: C_2  and  C_3
REMARK    3  A    between atoms: C_6  and  C_7
REMARK    4  A    between atoms: C_8  and  C_9
REMARK    5  A    between atoms: C_9  and  O_11
REMARK    6  A    between atoms: O_11  and  C_12
REMARK    7  A    between atoms: C_12  and  C_13
REMARK    8  A    between atoms: N_15  and  C_16
REMARK    9  A    between atoms: N_15  and  C_18
REMARK   10  A    between atoms: C_16  and  C_17
REMARK   11  A    between atoms: C_19  and  N_20
REMARK   12  A    between atoms: N_21  and  C_22
REMARK   13  A    between atoms: C_22  and  C_23
REMARK                            x       y       z     vdW  Elec       q    Type
REMARK                         _______ _______ _______ _____ _____    ______ ____
ROOT
ATOM      1  C   UNL     1      -0.026  10.528  20.139  0.00  0.00    +0.000 A 
ATOM      2  C   UNL     1      -1.114  10.647  19.340  0.00  0.00    +0.000 A 
ATOM      3  N   UNL     1      -1.688  11.901  19.139  0.00  0.00    +0.000 N 
ATOM      4  C   UNL     1      -1.221  13.048  19.773  0.00  0.00    +0.000 A 
ATOM      5  O   UNL     1      -1.698  14.172  19.627  0.00  0.00    +0.000 OA
ATOM      6  N   UNL     1      -0.150  12.893  20.598  0.00  0.00    +0.000 N 
ATOM      7  C   UNL     1       0.587  11.758  20.720  0.00  0.00    +0.000 A 
ATOM      8  O   UNL     1       1.683  11.760  21.267  0.00  0.00    +0.000 OA
ATOM      9  H   UNL     1       0.249  13.741  20.969  0.00  0.00    +0.000 HD
ENDROOT
BRANCH   1  12
ATOM     10  C   UNL     1       1.515   8.779  19.572  0.00  0.00    +0.000 C 
ATOM     11  O   UNL     1       1.930   9.411  18.593  0.00  0.00    +0.000 OA
ATOM     12  N   UNL     1       0.549   9.285  20.449  0.00  0.00    +0.000 N 
BRANCH  12  13
ATOM     13  C   UNL     1       0.248   8.730  21.784  0.00  0.00    +0.000 C 
ATOM     14  C   UNL     1      -0.605   9.670  22.634  0.00  0.00    +0.000 C 
ENDBRANCH  12  13
BRANCH  10  15
ATOM     15  C   UNL     1       2.049   7.366  19.829  0.00  0.00    +0.000 C 
BRANCH  15  16
ATOM     16  O   UNL     1       2.893   6.885  18.776  0.00  0.00    +0.000 OA
BRANCH  16  17
ATOM     17  C   UNL     1       3.519   5.703  19.069  0.00  0.00    +0.000 C 
ATOM     18  O   UNL     1       4.578   5.635  19.682  0.00  0.00    +0.000 OA
BRANCH  17  24
ATOM     19  C   UNL     1       1.719   3.803  18.971  0.00  0.00    +0.000 A 
ATOM     20  N   UNL     1       1.397   2.829  18.108  0.00  0.00    +0.000 NA
ATOM     21  O   UNL     1       2.318   2.906  17.088  0.00  0.00    +0.000 OA
ATOM     22  C   UNL     1       3.183   3.923  17.331  0.00  0.00    +0.000 A 
ATOM     23  C   UNL     1       4.255   4.112  16.335  0.00  0.00    +0.000 C 
ATOM     24  C   UNL     1       2.840   4.554  18.513  0.00  0.00    +0.000 A 
BRANCH  19  26
ATOM     25  C   UNL     1       1.251   2.857  21.231  0.00  0.00    +0.000 C 
ATOM     26  C   UNL     1       0.917   3.944  20.219  0.00  0.00    +0.000 C 
ENDBRANCH  19  26
ENDBRANCH  17  24
ENDBRANCH  16  17
ENDBRANCH  15  16
ENDBRANCH  10  15
ENDBRANCH   1  12
BRANCH   2  27
ATOM     27  N   UNL     1      -1.680   9.518  18.756  0.00  0.00    +0.000 N 
ATOM     28  H   UNL     1      -2.354   9.724  18.018  0.00  0.00    +0.000 HD
ATOM     29  H   UNL     1      -1.026   8.795  18.494  0.00  0.00    +0.000 HD
ENDBRANCH   2  27
BRANCH   3  30
ATOM     30  C   UNL     1      -2.783  12.078  18.180  0.00  0.00    +0.000 C 
BRANCH  30  31
ATOM     31  C   UNL     1      -4.176  11.862  18.745  0.00  0.00    +0.000 A 
ATOM     32  C   UNL     1      -5.046  10.923  18.168  0.00  0.00    +0.000 A 
ATOM     33  C   UNL     1      -6.269  10.614  18.767  0.00  0.00    +0.000 A 
ATOM     34  C   UNL     1      -6.645  11.244  19.951  0.00  0.00    +0.000 A 
ATOM     35  C   UNL     1      -5.808  12.198  20.522  0.00  0.00    +0.000 A 
ATOM     36  C   UNL     1      -4.582  12.506  19.925  0.00  0.00    +0.000 A 
ENDBRANCH  30  31
ENDBRANCH   3  30
TORSDOF 10
ENDMDL
MODEL 6
REMARK VINA RESULT:      -6.8      3.027      5.344
REMARK  Name = 
REMARK  13 active torsions:
REMARK  status: ('A' for Active; 'I' for Inactive)
REMARK    1  A    between atoms: C_1  and  C_2
REMARK    2  A    between atoms: C_2  and  C_3
REMARK    3  A    between atoms: C_6  and  C_7
REMARK    4  A    between atoms: C_8  and  C_9
REMARK    5  A    between atoms: C_9  and  O_11
REMARK    6  A    between atoms: O_11  and  C_12
REMARK    7  A    between atoms: C_12  and  C_13
REMARK    8  A    between atoms: N_15  and  C_16
REMARK    9  A    between atoms: N_15  and  C_18
REMARK   10  A    between atoms: C_16  and  C_17
REMARK   11  A    between atoms: C_19  and  N_20
REMARK   12  A    between atoms: N_21  and  C_22
REMARK   13  A    between atoms: C_22  and  C_23
REMARK                            x       y       z     vdW  Elec       q    Type
REMARK                         _______ _______ _______ _____ _____    ______ ____
ROOT
ATOM      1  C   UNL     1       0.248  10.468  20.014  0.00  0.00    +0.000 A 
ATOM      2  C   UNL     1      -0.816  10.620  19.189  0.00  0.00    +0.000 A 
ATOM      3  N   UNL     1      -1.448  11.860  19.101  0.00  0.00    +0.000 N 
ATOM      4  C   UNL     1      -1.064  12.952  19.873  0.00  0.00    +0.000 A 
ATOM      5  O   UNL     1      -1.594  14.061  19.829  0.00  0.00    +0.000 OA
ATOM      6  N   UNL     1      -0.016  12.759  20.719  0.00  0.00    +0.000 N 
ATOM      7  C   UNL     1       0.774  11.655  20.748  0.00  0.00    +0.000 A 
ATOM      8  O   UNL     1       1.849  11.649  21.336  0.00  0.00    +0.000 OA
ATOM      9  H   UNL     1       0.325  13.580  21.194  0.00  0.00    +0.000 HD
ENDROOT
BRANCH   1  12
ATOM     10  C   UNL     1       1.698   8.745  19.188  0.00  0.00    +0.000 C 
ATOM     11  O   UNL     1       1.950   9.395  18.166  0.00  0.00    +0.000 OA
ATOM     12  N   UNL     1       0.875   9.228  20.212  0.00  0.00    +0.000 N 
BRANCH  12  13
ATOM     13  C   UNL     1       0.790   8.651  21.569  0.00  0.00    +0.000 C 
ATOM     14  C   UNL     1      -0.601   8.791  22.182  0.00  0.00    +0.000 C 
ENDBRANCH  12  13
BRANCH  10  15
ATOM     15  C   UNL     1       2.279   7.334  19.336  0.00  0.00    +0.000 C 
BRANCH  15  16
ATOM     16  O   UNL     1       2.332   6.616  18.099  0.00  0.00    +0.000 OA
BRANCH  16  17
ATOM     17  C   UNL     1       3.586   6.174  17.772  0.00  0.00    +0.000 C 
ATOM     18  O   UNL     1       4.301   6.725  16.945  0.00  0.00    +0.000 OA
BRANCH  17  24
ATOM     19  C   UNL     1       3.215   3.745  18.681  0.00  0.00    +0.000 A 
ATOM     20  N   UNL     1       3.960   2.837  19.326  0.00  0.00    +0.000 NA
ATOM     21  O   UNL     1       5.177   3.438  19.554  0.00  0.00    +0.000 OA
ATOM     22  C   UNL     1       5.167   4.696  19.045  0.00  0.00    +0.000 A 
ATOM     23  C   UNL     1       6.399   5.483  19.241  0.00  0.00    +0.000 C 
ATOM     24  C   UNL     1       3.943   4.947  18.450  0.00  0.00    +0.000 A 
BRANCH  19  26
ATOM     25  C   UNL     1       0.937   3.254  19.571  0.00  0.00    +0.000 C 
ATOM     26  C   UNL     1       1.808   3.396  18.331  0.00  0.00    +0.000 C 
ENDBRANCH  19  26
ENDBRANCH  17  24
ENDBRANCH  16  17
ENDBRANCH  15  16
ENDBRANCH  10  15
ENDBRANCH   1  12
BRANCH   2  27
ATOM     27  N   UNL     1      -1.302   9.536  18.464  0.00  0.00    +0.000 N 
ATOM     28  H   UNL     1      -0.985   9.507  17.495  0.00  0.00    +0.000 HD
ATOM     29  H   UNL     1      -1.224   8.642  18.925  0.00  0.00    +0.000 HD
ENDBRANCH   2  27
BRANCH   3  30
ATOM     30  C   UNL     1      -2.516  12.087  18.122  0.00  0.00    +0.000 C 
BRANCH  30  31
ATOM     31  C   UNL     1      -3.924  11.835  18.634  0.00  0.00    +0.000 A 
ATOM     32  C   UNL     1      -4.745  10.871  18.029  0.00  0.00    +0.000 A 
ATOM     33  C   UNL     1      -5.981  10.531  18.582  0.00  0.00    +0.000 A 
ATOM     34  C   UNL     1      -6.420  11.154  19.747  0.00  0.00    +0.000 A 
ATOM     35  C   UNL     1      -5.632  12.133  20.345  0.00  0.00    +0.000 A 
ATOM     36  C   UNL     1      -4.392  12.473  19.794  0.00  0.00    +0.000 A 
ENDBRANCH  30  31
ENDBRANCH   3  30
TORSDOF 10
ENDMDL
MODEL 7
REMARK VINA RESULT:      -6.8      3.233      9.858
REMARK  Name = 
REMARK  13 active torsions:
REMARK  status: ('A' for Active; 'I' for Inactive)
REMARK    1  A    between atoms: C_1  and  C_2
REMARK    2  A    between atoms: C_2  and  C_3
REMARK    3  A    between atoms: C_6  and  C_7
REMARK    4  A    between atoms: C_8  and  C_9
REMARK    5  A    between atoms: C_9  and  O_11
REMARK    6  A    between atoms: O_11  and  C_12
REMARK    7  A    between atoms: C_12  and  C_13
REMARK    8  A    between atoms: N_15  and  C_16
REMARK    9  A    between atoms: N_15  and  C_18
REMARK   10  A    between atoms: C_16  and  C_17
REMARK   11  A    between atoms: C_19  and  N_20
REMARK   12  A    between atoms: N_21  and  C_22
REMARK   13  A    between atoms: C_22  and  C_23
REMARK                            x       y       z     vdW  Elec       q    Type
REMARK                         _______ _______ _______ _____ _____    ______ ____
ROOT
ATOM      1  C   UNL     1       1.086   9.133  19.623  0.00  0.00    +0.000 A 
ATOM      2  C   UNL     1       1.796   8.409  18.724  0.00  0.00    +0.000 A 
ATOM      3  N   UNL     1       2.282   7.152  19.081  0.00  0.00    +0.000 N 
ATOM      4  C   UNL     1       2.114   6.620  20.355  0.00  0.00    +0.000 A 
ATOM      5  O   UNL     1       2.528   5.518  20.714  0.00  0.00    +0.000 OA
ATOM      6  N   UNL     1       1.429   7.385  21.248  0.00  0.00    +0.000 N 
ATOM      7  C   UNL     1       0.765   8.531  20.949  0.00  0.00    +0.000 A 
ATOM      8  O   UNL     1      -0.045   9.026  21.725  0.00  0.00    +0.000 OA
ATOM      9  H   UNL     1       1.218   6.949  22.133  0.00  0.00    +0.000 HD
ENDROOT
BRANCH   1  12
ATOM     10  C   UNL     1      -0.646  10.590  18.827  0.00  0.00    +0.000 C 
ATOM     11  O   UNL     1      -1.422   9.640  18.663  0.00  0.00    +0.000 OA
ATOM     12  N   UNL     1       0.641  10.437  19.355  0.00  0.00    +0.000 N 
BRANCH  12  13
ATOM     13  C   UNL     1       1.481  11.541  19.863  0.00  0.00    +0.000 C 
ATOM     14  C   UNL     1       2.194  12.300  18.746  0.00  0.00    +0.000 C 
ENDBRANCH  12  13
BRANCH  10  15
ATOM     15  C   UNL     1      -1.090  11.995  18.407  0.00  0.00    +0.000 C 
BRANCH  15  16
ATOM     16  O   UNL     1      -2.309  12.410  19.032  0.00  0.00    +0.000 OA
BRANCH  16  17
ATOM     17  C   UNL     1      -2.122  13.199  20.136  0.00  0.00    +0.000 C 
ATOM     18  O   UNL     1      -1.271  14.077  20.200  0.00  0.00    +0.000 OA
BRANCH  17  24
ATOM     19  C   UNL     1      -4.396  12.902  21.401  0.00  0.00    +0.000 A 
ATOM     20  N   UNL     1      -4.777  12.413  22.590  0.00  0.00    +0.000 NA
ATOM     21  O   UNL     1      -3.619  12.047  23.237  0.00  0.00    +0.000 OA
ATOM     22  C   UNL     1      -2.550  12.306  22.443  0.00  0.00    +0.000 A 
ATOM     23  C   UNL     1      -1.227  11.994  23.016  0.00  0.00    +0.000 C 
ATOM     24  C   UNL     1      -2.982  12.835  21.240  0.00  0.00    +0.000 A 
BRANCH  19  26
ATOM     25  C   UNL     1      -6.750  12.660  20.611  0.00  0.00    +0.000 C 
ATOM     26  C   UNL     1      -5.442  13.428  20.478  0.00  0.00    +0.000 C 
ENDBRANCH  19  26
ENDBRANCH  17  24
ENDBRANCH  16  17
ENDBRANCH  15  16
ENDBRANCH  10  15
ENDBRANCH   1  12
BRANCH   2  27
ATOM     27  N   UNL     1       2.074   8.933  17.466  0.00  0.00    +0.000 N 
ATOM     28  H   UNL     1       2.801   8.430  16.955  0.00  0.00    +0.000 HD
ATOM     29  H   UNL     1       1.267   9.134  16.895  0.00  0.00    +0.000 HD
ENDBRANCH   2  27
BRANCH   3  30
ATOM     30  C   UNL     1       2.940   6.295  18.090  0.00  0.00    +0.000 C 
BRANCH  30  31
ATOM     31  C   UNL     1       4.458   6.306  18.135  0.00  0.00    +0.000 A 
ATOM     32  C   UNL     1       5.155   5.461  19.013  0.00  0.00    +0.000 A 
ATOM     33  C   UNL     1       6.547   5.359  18.958  0.00  0.00    +0.000 A 
ATOM     34  C   UNL     1       7.265   6.105  18.028  0.00  0.00    +0.000 A 
ATOM     35  C   UNL     1       6.592   6.970  17.168  0.00  0.00    +0.000 A 
ATOM     36  C   UNL     1       5.199   7.071  17.220  0.00  0.00    +0.000 A 
ENDBRANCH  30  31
ENDBRANCH   3  30
TORSDOF 10
ENDMDL
MODEL 8
REMARK VINA RESULT:      -6.8      0.798      2.095
REMARK  Name = 
REMARK  13 active torsions:
REMARK  status: ('A' for Active; 'I' for Inactive)
REMARK    1  A    between atoms: C_1  and  C_2
REMARK    2  A    between atoms: C_2  and  C_3
REMARK    3  A    between atoms: C_6  and  C_7
REMARK    4  A    between atoms: C_8  and  C_9
REMARK    5  A    between atoms: C_9  and  O_11
REMARK    6  A    between atoms: O_11  and  C_12
REMARK    7  A    between atoms: C_12  and  C_13
REMARK    8  A    between atoms: N_15  and  C_16
REMARK    9  A    between atoms: N_15  and  C_18
REMARK   10  A    between atoms: C_16  and  C_17
REMARK   11  A    between atoms: C_19  and  N_20
REMARK   12  A    between atoms: N_21  and  C_22
REMARK   13  A    between atoms: C_22  and  C_23
REMARK                            x       y       z     vdW  Elec       q    Type
REMARK                         _______ _______ _______ _____ _____    ______ ____
ROOT
ATOM      1  C   UNL     1       2.215   6.370  19.384  0.00  0.00    +0.000 A 
ATOM      2  C   UNL     1       2.113   7.612  18.852  0.00  0.00    +0.000 A 
ATOM      3  N   UNL     1       1.567   8.646  19.612  0.00  0.00    +0.000 N 
ATOM      4  C   UNL     1       1.066   8.446  20.894  0.00  0.00    +0.000 A 
ATOM      5  O   UNL     1       0.575   9.327  21.599  0.00  0.00    +0.000 OA
ATOM      6  N   UNL     1       1.149   7.182  21.389  0.00  0.00    +0.000 N 
ATOM      7  C   UNL     1       1.820   6.155  20.806  0.00  0.00    +0.000 A 
ATOM      8  O   UNL     1       2.081   5.127  21.420  0.00  0.00    +0.000 OA
ATOM      9  H   UNL     1       0.884   7.067  22.356  0.00  0.00    +0.000 HD
ENDROOT
BRANCH   1  12
ATOM     10  C   UNL     1       4.012   4.888  18.813  0.00  0.00    +0.000 C 
ATOM     11  O   UNL     1       4.766   5.425  19.634  0.00  0.00    +0.000 OA
ATOM     12  N   UNL     1       2.677   5.271  18.644  0.00  0.00    +0.000 N 
BRANCH  12  13
ATOM     13  C   UNL     1       1.656   4.479  17.927  0.00  0.00    +0.000 C 
ATOM     14  C   UNL     1       1.218   3.240  18.704  0.00  0.00    +0.000 C 
ENDBRANCH  12  13
BRANCH  10  15
ATOM     15  C   UNL     1       4.561   3.775  17.913  0.00  0.00    +0.000 C 
BRANCH  15  16
ATOM     16  O   UNL     1       4.491   4.096  16.519  0.00  0.00    +0.000 OA
BRANCH  16  17
ATOM     17  C   UNL     1       5.384   3.400  15.748  0.00  0.00    +0.000 C 
ATOM     18  O   UNL     1       5.437   2.176  15.717  0.00  0.00    +0.000 OA
BRANCH  17  24
ATOM     19  C   UNL     1       7.176   5.292  15.488  0.00  0.00    +0.000 A 
ATOM     20  N   UNL     1       7.889   5.807  14.476  0.00  0.00    +0.000 NA
ATOM     21  O   UNL     1       7.474   5.143  13.344  0.00  0.00    +0.000 OA
ATOM     22  C   UNL     1       6.524   4.231  13.672  0.00  0.00    +0.000 A 
ATOM     23  C   UNL     1       5.956   3.458  12.552  0.00  0.00    +0.000 C 
ATOM     24  C   UNL     1       6.303   4.260  15.038  0.00  0.00    +0.000 A 
BRANCH  19  26
ATOM     25  C   UNL     1       6.486   7.059  17.107  0.00  0.00    +0.000 C 
ATOM     26  C   UNL     1       7.375   5.849  16.857  0.00  0.00    +0.000 C 
ENDBRANCH  19  26
ENDBRANCH  17  24
ENDBRANCH  16  17
ENDBRANCH  15  16
ENDBRANCH  10  15
ENDBRANCH   1  12
BRANCH   2  27
ATOM     27  N   UNL     1       2.512   7.847  17.540  0.00  0.00    +0.000 N 
ATOM     28  H   UNL     1       3.500   7.663  17.365  0.00  0.00    +0.000 HD
ATOM     29  H   UNL     1       1.912   7.452  16.830  0.00  0.00    +0.000 HD
ENDBRANCH   2  27
BRANCH   3  30
ATOM     30  C   UNL     1       1.564  10.023  19.110  0.00  0.00    +0.000 C 
BRANCH  30  31
ATOM     31  C   UNL     1       0.206  10.548  18.677  0.00  0.00    +0.000 A 
ATOM     32  C   UNL     1      -0.213  11.838  19.040  0.00  0.00    +0.000 A 
ATOM     33  C   UNL     1      -1.393  12.381  18.527  0.00  0.00    +0.000 A 
ATOM     34  C   UNL     1      -2.177  11.641  17.647  0.00  0.00    +0.000 A 
ATOM     35  C   UNL     1      -1.791  10.349  17.298  0.00  0.00    +0.000 A 
ATOM     36  C   UNL     1      -0.609   9.805  17.809  0.00  0.00    +0.000 A 
ENDBRANCH  30  31
ENDBRANCH   3  30
TORSDOF 10
ENDMDL
MODEL 9
REMARK VINA RESULT:      -6.8      3.211      5.994
REMARK  Name = 
REMARK  13 active torsions:
REMARK  status: ('A' for Active; 'I' for Inactive)
REMARK    1  A    between atoms: C_1  and  C_2
REMARK    2  A    between atoms: C_2  and  C_3
REMARK    3  A    between atoms: C_6  and  C_7
REMARK    4  A    between atoms: C_8  and  C_9
REMARK    5  A    between atoms: C_9  and  O_11
REMARK    6  A    between atoms: O_11  and  C_12
REMARK    7  A    between atoms: C_12  and  C_13
REMARK    8  A    between atoms: N_15  and  C_16
REMARK    9  A    between atoms: N_15  and  C_18
REMARK   10  A    between atoms: C_16  and  C_17
REMARK   11  A    between atoms: C_19  and  N_20
REMARK   12  A    between atoms: N_21  and  C_22
REMARK   13  A    between atoms: C_22  and  C_23
REMARK                            x       y       z     vdW  Elec       q    Type
REMARK                         _______ _______ _______ _____ _____    ______ ____
ROOT
ATOM      1  C   UNL     1       0.509  10.759  19.671  0.00  0.00    +0.000 A 
ATOM      2  C   UNL     1       1.063  11.923  20.090  0.00  0.00    +0.000 A 
ATOM      3  N   UNL     1       0.593  13.133  19.583  0.00  0.00    +0.000 N 
ATOM      4  C   UNL     1      -0.399  13.200  18.610  0.00  0.00    +0.000 A 
ATOM      5  O   UNL     1      -0.842  14.244  18.133  0.00  0.00    +0.000 OA
ATOM      6  N   UNL     1      -0.912  12.015  18.180  0.00  0.00    +0.000 N 
ATOM      7  C   UNL     1      -0.653  10.803  18.737  0.00  0.00    +0.000 A 
ATOM      8  O   UNL     1      -1.339   9.820  18.483  0.00  0.00    +0.000 OA
ATOM      9  H   UNL     1      -1.702  12.075  17.557  0.00  0.00    +0.000 HD
ENDROOT
BRANCH   1  12
ATOM     10  C   UNL     1       1.796   8.795  19.182  0.00  0.00    +0.000 C 
ATOM     11  O   UNL     1       2.155   9.256  18.091  0.00  0.00    +0.000 OA
ATOM     12  N   UNL     1       0.991   9.506  20.079  0.00  0.00    +0.000 N 
BRANCH  12  13
ATOM     13  C   UNL     1       0.794   9.151  21.500  0.00  0.00    +0.000 C 
ATOM     14  C   UNL     1      -0.583   8.548  21.769  0.00  0.00    +0.000 C 
ENDBRANCH  12  13
BRANCH  10  15
ATOM     15  C   UNL     1       2.216   7.372  19.565  0.00  0.00    +0.000 C 
BRANCH  15  16
ATOM     16  O   UNL     1       3.159   6.800  18.651  0.00  0.00    +0.000 OA
BRANCH  16  17
ATOM     17  C   UNL     1       3.657   5.591  19.058  0.00  0.00    +0.000 C 
ATOM     18  O   UNL     1       4.630   5.476  19.793  0.00  0.00    +0.000 OA
BRANCH  17  24
ATOM     19  C   UNL     1       1.793   3.760  18.874  0.00  0.00    +0.000 A 
ATOM     20  N   UNL     1       1.474   2.800  17.995  0.00  0.00    +0.000 NA
ATOM     21  O   UNL     1       2.442   2.843  17.018  0.00  0.00    +0.000 OA
ATOM     22  C   UNL     1       3.333   3.827  17.302  0.00  0.00    +0.000 A 
ATOM     23  C   UNL     1       4.455   3.976  16.357  0.00  0.00    +0.000 C 
ATOM     24  C   UNL     1       2.961   4.469  18.470  0.00  0.00    +0.000 A 
BRANCH  19  26
ATOM     25  C   UNL     1       1.625   3.398  21.336  0.00  0.00    +0.000 C 
ATOM     26  C   UNL     1       0.941   3.931  20.085  0.00  0.00    +0.000 C 
ENDBRANCH  19  26
ENDBRANCH  17  24
ENDBRANCH  16  17
ENDBRANCH  15  16
ENDBRANCH  10  15
ENDBRANCH   1  12
BRANCH   2  27
ATOM     27  N   UNL     1       2.122  11.909  20.992  0.00  0.00    +0.000 N 
ATOM     28  H   UNL     1       2.255  12.788  21.494  0.00  0.00    +0.000 HD
ATOM     29  H   UNL     1       2.159  11.105  21.601  0.00  0.00    +0.000 HD
ENDBRANCH   2  27
BRANCH   3  30
ATOM     30  C   UNL     1       1.083  14.409  20.114  0.00  0.00    +0.000 C 
BRANCH  30  31
ATOM     31  C   UNL     1       1.891  15.245  19.138  0.00  0.00    +0.000 A 
ATOM     32  C   UNL     1       3.004  14.701  18.478  0.00  0.00    +0.000 A 
ATOM     33  C   UNL     1       3.663  15.413  17.474  0.00  0.00    +0.000 A 
ATOM     34  C   UNL     1       3.223  16.684  17.116  0.00  0.00    +0.000 A 
ATOM     35  C   UNL     1       2.138  17.252  17.780  0.00  0.00    +0.000 A 
ATOM     36  C   UNL     1       1.476  16.539  18.783  0.00  0.00    +0.000 A 
ENDBRANCH  30  31
ENDBRANCH   3  30
TORSDOF 10
ENDMDL
