MODEL 1
REMARK VINA RESULT:      -7.2      0.000      0.000
REMARK  Name = 
REMARK  19 active torsions:
REMARK  status: ('A' for Active; 'I' for Inactive)
REMARK    1  A    between atoms: C_1  and  C_2
REMARK    2  A    between atoms: C_2  and  P_3
REMARK    3  A    between atoms: P_3  and  C_5
REMARK    4  A    between atoms: P_3  and  C_7
REMARK    5  A    between atoms: C_5  and  C_6
REMARK    6  A    between atoms: C_7  and  C_8
REMARK    7  A    between atoms: C_8  and  C_9
REMARK    8  A    between atoms: C_14  and  O_15
REMARK    9  A    between atoms: O_15  and  C_16
REMARK   10  A    between atoms: C_16  and  C_17
REMARK   11  A    between atoms: C_17  and  O_18
REMARK   12  A    between atoms: O_18  and  C_19
REMARK   13  A    between atoms: C_24  and  C_25
REMARK   14  A    between atoms: C_25  and  C_26
REMARK   15  A    between atoms: C_26  and  P_27
REMARK   16  A    between atoms: P_27  and  C_29
REMARK   17  A    between atoms: P_27  and  C_31
REMARK   18  A    between atoms: C_29  and  C_30
REMARK   19  A    between atoms: C_31  and  C_32
REMARK                            x       y       z     vdW  Elec       q    Type
REMARK                         _______ _______ _______ _____ _____    ______ ____
ROOT
ATOM      1  C   UNL     1       0.958   7.013  20.943  0.00  0.00    +0.000 C 
ENDROOT
BRANCH   1   2
ATOM      2  O   UNL     1       2.116   6.158  20.746  0.00  0.00    +0.000 OA
BRANCH   2   8
ATOM      3  C   UNL     1       2.330   4.992  18.618  0.00  0.00    +0.000 A 
ATOM      4  C   UNL     1       1.971   3.846  17.857  0.00  0.00    +0.000 A 
ATOM      5  C   UNL     1       1.207   2.810  18.395  0.00  0.00    +0.000 A 
ATOM      6  C   UNL     1       0.826   2.861  19.723  0.00  0.00    +0.000 A 
ATOM      7  C   UNL     1       1.165   3.969  20.493  0.00  0.00    +0.000 A 
ATOM      8  C   UNL     1       1.875   5.059  19.954  0.00  0.00    +0.000 A 
BRANCH   3   9
ATOM      9  C   UNL     1       3.045   6.106  17.849  0.00  0.00    +0.000 C 
BRANCH   9  10
ATOM     10  C   UNL     1       4.577   6.283  18.022  0.00  0.00    +0.000 C 
BRANCH  10  11
ATOM     11  P   UNL     1       5.736   5.315  16.987  0.00  0.00    +0.000 P 
ATOM     12  O   UNL     1       5.517   4.077  17.874  0.00  0.00    +0.000 OA
BRANCH  11  14
ATOM     13  C   UNL     1       6.571   4.375  14.469  0.00  0.00    +0.000 C 
ATOM     14  C   UNL     1       6.894   4.348  15.952  0.00  0.00    +0.000 C 
ENDBRANCH  11  14
BRANCH  11  15
ATOM     15  C   UNL     1       7.321   6.235  17.713  0.00  0.00    +0.000 C 
ATOM     16  C   UNL     1       7.285   7.738  17.508  0.00  0.00    +0.000 C 
ENDBRANCH  11  15
ENDBRANCH  10  11
ENDBRANCH   9  10
ENDBRANCH   3   9
ENDBRANCH   2   8
ENDBRANCH   1   2
BRANCH   1  17
ATOM     17  C   UNL     1       1.266   8.508  21.201  0.00  0.00    +0.000 C 
BRANCH  17  18
ATOM     18  O   UNL     1       0.358   9.314  20.419  0.00  0.00    +0.000 OA
BRANCH  18  19
ATOM     19  C   UNL     1      -0.340  10.322  21.054  0.00  0.00    +0.000 A 
ATOM     20  C   UNL     1      -0.456  10.443  22.450  0.00  0.00    +0.000 A 
ATOM     21  C   UNL     1      -1.164  11.511  23.031  0.00  0.00    +0.000 A 
ATOM     22  C   UNL     1      -1.766  12.465  22.221  0.00  0.00    +0.000 A 
ATOM     23  C   UNL     1      -1.692  12.334  20.832  0.00  0.00    +0.000 A 
ATOM     24  C   UNL     1      -0.997  11.264  20.235  0.00  0.00    +0.000 A 
BRANCH  24  25
ATOM     25  C   UNL     1      -0.904  11.255  18.723  0.00  0.00    +0.000 C 
BRANCH  25  26
ATOM     26  C   UNL     1      -1.987  12.013  17.946  0.00  0.00    +0.000 C 
BRANCH  26  27
ATOM     27  P   UNL     1      -3.221  10.871  17.293  0.00  0.00    +0.000 P 
ATOM     28  O   UNL     1      -2.877   9.432  17.588  0.00  0.00    +0.000 OA
BRANCH  27  29
ATOM     29  C   UNL     1      -4.821  11.282  17.988  0.00  0.00    +0.000 C 
ATOM     30  C   UNL     1      -5.695  12.240  17.207  0.00  0.00    +0.000 C 
ENDBRANCH  27  29
BRANCH  27  31
ATOM     31  C   UNL     1      -3.381  11.136  15.522  0.00  0.00    +0.000 C 
ATOM     32  C   UNL     1      -2.936   9.977  14.655  0.00  0.00    +0.000 C 
ENDBRANCH  27  31
ENDBRANCH  26  27
ENDBRANCH  25  26
ENDBRANCH  24  25
ENDBRANCH  18  19
ENDBRANCH  17  18
ENDBRANCH   1  17
TORSDOF 15
ENDMDL
MODEL 2
REMARK VINA RESULT:      -6.9      1.915      9.716
REMARK  Name = 
REMARK  19 active torsions:
REMARK  status: ('A' for Active; 'I' for Inactive)
REMARK    1  A    between atoms: C_1  and  C_2
REMARK    2  A    between atoms: C_2  and  P_3
REMARK    3  A    between atoms: P_3  and  C_5
REMARK    4  A    between atoms: P_3  and  C_7
REMARK    5  A    between atoms: C_5  and  C_6
REMARK    6  A    between atoms: C_7  and  C_8
REMARK    7  A    between atoms: C_8  and  C_9
REMARK    8  A    between atoms: C_14  and  O_15
REMARK    9  A    between atoms: O_15  and  C_16
REMARK   10  A    between atoms: C_16  and  C_17
REMARK   11  A    between atoms: C_17  and  O_18
REMARK   12  A    between atoms: O_18  and  C_19
REMARK   13  A    between atoms: C_24  and  C_25
REMARK   14  A    between atoms: C_25  and  C_26
REMARK   15  A    between atoms: C_26  and  P_27
REMARK   16  A    between atoms: P_27  and  C_29
REMARK   17  A    between atoms: P_27  and  C_31
REMARK   18  A    between atoms: C_29  and  C_30
REMARK   19  A    between atoms: C_31  and  C_32
REMARK                            x       y       z     vdW  Elec       q    Type
REMARK                         _______ _______ _______ _____ _____    ______ ____
ROOT
ATOM      1  C   UNL     1       1.871   8.853  19.088  0.00  0.00    +0.000 C 
ENDROOT
BRANCH   1   2
ATOM      2  O   UNL     1       1.618   9.740  17.967  0.00  0.00    +0.000 OA
BRANCH   2   8
ATOM      3  C   UNL     1       0.407  11.589  18.991  0.00  0.00    +0.000 A 
ATOM      4  C   UNL     1       0.377  12.987  19.241  0.00  0.00    +0.000 A 
ATOM      5  C   UNL     1       1.415  13.833  18.848  0.00  0.00    +0.000 A 
ATOM      6  C   UNL     1       2.537  13.299  18.242  0.00  0.00    +0.000 A 
ATOM      7  C   UNL     1       2.596  11.932  17.987  0.00  0.00    +0.000 A 
ATOM      8  C   UNL     1       1.531  11.070  18.311  0.00  0.00    +0.000 A 
BRANCH   3   9
ATOM      9  C   UNL     1      -0.866  10.819  19.353  0.00  0.00    +0.000 C 
BRANCH   9  10
ATOM     10  C   UNL     1      -1.625  10.044  18.243  0.00  0.00    +0.000 C 
BRANCH  10  11
ATOM     11  P   UNL     1      -3.225  10.673  17.614  0.00  0.00    +0.000 P 
ATOM     12  O   UNL     1      -3.846   9.272  17.750  0.00  0.00    +0.000 OA
BRANCH  11  14
ATOM     13  C   UNL     1      -5.473  12.347  17.877  0.00  0.00    +0.000 C 
ATOM     14  C   UNL     1      -4.824  11.302  16.987  0.00  0.00    +0.000 C 
ENDBRANCH  11  14
BRANCH  11  15
ATOM     15  C   UNL     1      -2.568  10.802  15.760  0.00  0.00    +0.000 C 
ATOM     16  C   UNL     1      -3.566  10.294  14.736  0.00  0.00    +0.000 C 
ENDBRANCH  11  15
ENDBRANCH  10  11
ENDBRANCH   9  10
ENDBRANCH   3   9
ENDBRANCH   2   8
ENDBRANCH   1   2
BRANCH   1  17
ATOM     17  C   UNL     1       2.200   7.385  18.720  0.00  0.00    +0.000 C 
BRANCH  17  18
ATOM     18  O   UNL     1       2.721   6.715  19.889  0.00  0.00    +0.000 OA
BRANCH  18  19
ATOM     19  C   UNL     1       2.483   5.363  20.031  0.00  0.00    +0.000 A 
ATOM     20  C   UNL     1       1.254   4.816  20.442  0.00  0.00    +0.000 A 
ATOM     21  C   UNL     1       1.074   3.424  20.542  0.00  0.00    +0.000 A 
ATOM     22  C   UNL     1       2.123   2.567  20.237  0.00  0.00    +0.000 A 
ATOM     23  C   UNL     1       3.362   3.098  19.867  0.00  0.00    +0.000 A 
ATOM     24  C   UNL     1       3.561   4.490  19.773  0.00  0.00    +0.000 A 
BRANCH  24  25
ATOM     25  C   UNL     1       4.913   4.966  19.285  0.00  0.00    +0.000 C 
BRANCH  25  26
ATOM     26  C   UNL     1       5.638   4.092  18.255  0.00  0.00    +0.000 C 
BRANCH  26  27
ATOM     27  P   UNL     1       6.939   5.028  17.427  0.00  0.00    +0.000 P 
ATOM     28  O   UNL     1       8.154   4.183  17.140  0.00  0.00    +0.000 OA
BRANCH  27  29
ATOM     29  C   UNL     1       6.284   5.714  15.906  0.00  0.00    +0.000 C 
ATOM     30  C   UNL     1       4.999   6.508  15.995  0.00  0.00    +0.000 C 
ENDBRANCH  27  29
BRANCH  27  31
ATOM     31  C   UNL     1       7.376   6.444  18.445  0.00  0.00    +0.000 C 
ATOM     32  C   UNL     1       7.902   7.644  17.687  0.00  0.00    +0.000 C 
ENDBRANCH  27  31
ENDBRANCH  26  27
ENDBRANCH  25  26
ENDBRANCH  24  25
ENDBRANCH  18  19
ENDBRANCH  17  18
ENDBRANCH   1  17
TORSDOF 15
ENDMDL
MODEL 3
REMARK VINA RESULT:      -6.9      2.728      9.220
REMARK  Name = 
REMARK  19 active torsions:
REMARK  status: ('A' for Active; 'I' for Inactive)
REMARK    1  A    between atoms: C_1  and  C_2
REMARK    2  A    between atoms: C_2  and  P_3
REMARK    3  A    between atoms: P_3  and  C_5
REMARK    4  A    between atoms: P_3  and  C_7
REMARK    5  A    between atoms: C_5  and  C_6
REMARK    6  A    between atoms: C_7  and  C_8
REMARK    7  A    between atoms: C_8  and  C_9
REMARK    8  A    between atoms: C_14  and  O_15
REMARK    9  A    between atoms: O_15  and  C_16
REMARK   10  A    between atoms: C_16  and  C_17
REMARK   11  A    between atoms: C_17  and  O_18
REMARK   12  A    between atoms: O_18  and  C_19
REMARK   13  A    between atoms: C_24  and  C_25
REMARK   14  A    between atoms: C_25  and  C_26
REMARK   15  A    between atoms: C_26  and  P_27
REMARK   16  A    between atoms: P_27  and  C_29
REMARK   17  A    between atoms: P_27  and  C_31
REMARK   18  A    between atoms: C_29  and  C_30
REMARK   19  A    between atoms: C_31  and  C_32
REMARK                            x       y       z     vdW  Elec       q    Type
REMARK                         _______ _______ _______ _____ _____    ______ ____
ROOT
ATOM      1  C   UNL     1       2.018   9.004  18.831  0.00  0.00    +0.000 C 
ENDROOT
BRANCH   1   2
ATOM      2  O   UNL     1       0.603   9.330  18.888  0.00  0.00    +0.000 OA
BRANCH   2   8
ATOM      3  C   UNL     1      -0.170  11.087  20.388  0.00  0.00    +0.000 A 
ATOM      4  C   UNL     1      -0.538  11.428  21.717  0.00  0.00    +0.000 A 
ATOM      5  C   UNL     1      -0.578  10.481  22.741  0.00  0.00    +0.000 A 
ATOM      6  C   UNL     1      -0.305   9.156  22.456  0.00  0.00    +0.000 A 
ATOM      7  C   UNL     1       0.055   8.791  21.161  0.00  0.00    +0.000 A 
ATOM      8  C   UNL     1       0.171   9.740  20.128  0.00  0.00    +0.000 A 
BRANCH   3   9
ATOM      9  C   UNL     1      -0.033  12.259  19.412  0.00  0.00    +0.000 C 
BRANCH   9  10
ATOM     10  C   UNL     1       1.380  12.690  18.938  0.00  0.00    +0.000 C 
BRANCH  10  11
ATOM     11  P   UNL     1       1.811  14.467  18.835  0.00  0.00    +0.000 P 
ATOM     12  O   UNL     1       2.998  14.250  19.788  0.00  0.00    +0.000 OA
BRANCH  11  14
ATOM     13  C   UNL     1       3.032  16.617  17.490  0.00  0.00    +0.000 C 
ATOM     14  C   UNL     1       2.240  16.242  18.730  0.00  0.00    +0.000 C 
ENDBRANCH  11  14
BRANCH  11  15
ATOM     15  C   UNL     1       0.292  15.011  19.968  0.00  0.00    +0.000 C 
ATOM     16  C   UNL     1      -0.481  16.190  19.405  0.00  0.00    +0.000 C 
ENDBRANCH  11  15
ENDBRANCH  10  11
ENDBRANCH   9  10
ENDBRANCH   3   9
ENDBRANCH   2   8
ENDBRANCH   1   2
BRANCH   1  17
ATOM     17  C   UNL     1       2.361   7.615  18.241  0.00  0.00    +0.000 C 
BRANCH  17  18
ATOM     18  O   UNL     1       2.938   6.795  19.281  0.00  0.00    +0.000 OA
BRANCH  18  19
ATOM     19  C   UNL     1       2.432   5.525  19.472  0.00  0.00    +0.000 A 
ATOM     20  C   UNL     1       1.550   5.175  20.511  0.00  0.00    +0.000 A 
ATOM     21  C   UNL     1       1.053   3.864  20.632  0.00  0.00    +0.000 A 
ATOM     22  C   UNL     1       1.437   2.891  19.719  0.00  0.00    +0.000 A 
ATOM     23  C   UNL     1       2.344   3.215  18.707  0.00  0.00    +0.000 A 
ATOM     24  C   UNL     1       2.859   4.521  18.579  0.00  0.00    +0.000 A 
BRANCH  24  25
ATOM     25  C   UNL     1       3.772   4.793  17.401  0.00  0.00    +0.000 C 
BRANCH  25  26
ATOM     26  C   UNL     1       5.283   4.740  17.653  0.00  0.00    +0.000 C 
BRANCH  26  27
ATOM     27  P   UNL     1       6.166   5.748  16.446  0.00  0.00    +0.000 P 
ATOM     28  O   UNL     1       5.241   6.661  15.681  0.00  0.00    +0.000 OA
BRANCH  27  29
ATOM     29  C   UNL     1       7.423   6.704  17.293  0.00  0.00    +0.000 C 
ATOM     30  C   UNL     1       7.818   6.259  18.685  0.00  0.00    +0.000 C 
ENDBRANCH  27  29
BRANCH  27  31
ATOM     31  C   UNL     1       7.060   4.664  15.323  0.00  0.00    +0.000 C 
ATOM     32  C   UNL     1       6.243   4.115  14.172  0.00  0.00    +0.000 C 
ENDBRANCH  27  31
ENDBRANCH  26  27
ENDBRANCH  25  26
ENDBRANCH  24  25
ENDBRANCH  18  19
ENDBRANCH  17  18
ENDBRANCH   1  17
TORSDOF 15
ENDMDL
MODEL 4
REMARK VINA RESULT:      -6.8      1.308      1.937
REMARK  Name = 
REMARK  19 active torsions:
REMARK  status: ('A' for Active; 'I' for Inactive)
REMARK    1  A    between atoms: C_1  and  C_2
REMARK    2  A    between atoms: C_2  and  P_3
REMARK    3  A    between atoms: P_3  and  C_5
REMARK    4  A    between atoms: P_3  and  C_7
REMARK    5  A    between atoms: C_5  and  C_6
REMARK    6  A    between atoms: C_7  and  C_8
REMARK    7  A    between atoms: C_8  and  C_9
REMARK    8  A    between atoms: C_14  and  O_15
REMARK    9  A    between atoms: O_15  and  C_16
REMARK   10  A    between atoms: C_16  and  C_17
REMARK   11  A    between atoms: C_17  and  O_18
REMARK   12  A    between atoms: O_18  and  C_19
REMARK   13  A    between atoms: C_24  and  C_25
REMARK   14  A    between atoms: C_25  and  C_26
REMARK   15  A    between atoms: C_26  and  P_27
REMARK   16  A    between atoms: P_27  and  C_29
REMARK   17  A    between atoms: P_27  and  C_31
REMARK   18  A    between atoms: C_29  and  C_30
REMARK   19  A    between atoms: C_31  and  C_32
REMARK                            x       y       z     vdW  Elec       q    Type
REMARK                         _______ _______ _______ _____ _____    ______ ____
ROOT
ATOM      1  C   UNL     1       1.425   7.219  21.228  0.00  0.00    +0.000 C 
ENDROOT
BRANCH   1   2
ATOM      2  O   UNL     1       1.931   6.633  19.999  0.00  0.00    +0.000 OA
BRANCH   2   8
ATOM      3  C   UNL     1       3.422   4.718  19.791  0.00  0.00    +0.000 A 
ATOM      4  C   UNL     1       3.538   3.303  19.826  0.00  0.00    +0.000 A 
ATOM      5  C   UNL     1       2.457   2.477  20.137  0.00  0.00    +0.000 A 
ATOM      6  C   UNL     1       1.242   3.044  20.476  0.00  0.00    +0.000 A 
ATOM      7  C   UNL     1       1.099   4.429  20.453  0.00  0.00    +0.000 A 
ATOM      8  C   UNL     1       2.156   5.277  20.074  0.00  0.00    +0.000 A 
BRANCH   3   9
ATOM      9  C   UNL     1       4.655   5.476  19.294  0.00  0.00    +0.000 C 
BRANCH   9  10
ATOM     10  C   UNL     1       5.873   4.676  18.759  0.00  0.00    +0.000 C 
BRANCH  10  11
ATOM     11  P   UNL     1       6.367   4.823  17.002  0.00  0.00    +0.000 P 
ATOM     12  O   UNL     1       7.806   4.414  17.357  0.00  0.00    +0.000 OA
BRANCH  11  14
ATOM     13  C   UNL     1       6.082   4.067  14.306  0.00  0.00    +0.000 C 
ATOM     14  C   UNL     1       6.860   4.970  15.246  0.00  0.00    +0.000 C 
ENDBRANCH  11  14
BRANCH  11  15
ATOM     15  C   UNL     1       6.332   6.794  17.046  0.00  0.00    +0.000 C 
ATOM     16  C   UNL     1       7.611   7.402  17.593  0.00  0.00    +0.000 C 
ENDBRANCH  11  15
ENDBRANCH  10  11
ENDBRANCH   9  10
ENDBRANCH   3   9
ENDBRANCH   2   8
ENDBRANCH   1   2
BRANCH   1  17
ATOM     17  C   UNL     1       1.374   8.766  21.260  0.00  0.00    +0.000 C 
BRANCH  17  18
ATOM     18  O   UNL     1       0.433   9.224  20.264  0.00  0.00    +0.000 OA
BRANCH  18  19
ATOM     19  C   UNL     1      -0.306  10.359  20.532  0.00  0.00    +0.000 A 
ATOM     20  C   UNL     1      -0.246  11.073  21.742  0.00  0.00    +0.000 A 
ATOM     21  C   UNL     1      -1.011  12.238  21.938  0.00  0.00    +0.000 A 
ATOM     22  C   UNL     1      -1.847  12.695  20.928  0.00  0.00    +0.000 A 
ATOM     23  C   UNL     1      -1.946  11.972  19.736  0.00  0.00    +0.000 A 
ATOM     24  C   UNL     1      -1.195  10.798  19.529  0.00  0.00    +0.000 A 
BRANCH  24  25
ATOM     25  C   UNL     1      -1.310  10.132  18.174  0.00  0.00    +0.000 C 
BRANCH  25  26
ATOM     26  C   UNL     1      -2.712   9.727  17.704  0.00  0.00    +0.000 C 
BRANCH  26  27
ATOM     27  P   UNL     1      -3.345  10.907  16.496  0.00  0.00    +0.000 P 
ATOM     28  O   UNL     1      -2.310  11.933  16.107  0.00  0.00    +0.000 OA
BRANCH  27  29
ATOM     29  C   UNL     1      -3.910  10.014  15.049  0.00  0.00    +0.000 C 
ATOM     30  C   UNL     1      -2.938   9.864  13.898  0.00  0.00    +0.000 C 
ENDBRANCH  27  29
BRANCH  27  31
ATOM     31  C   UNL     1      -4.808  11.705  17.171  0.00  0.00    +0.000 C 
ATOM     32  C   UNL     1      -5.596  10.873  18.162  0.00  0.00    +0.000 C 
ENDBRANCH  27  31
ENDBRANCH  26  27
ENDBRANCH  25  26
ENDBRANCH  24  25
ENDBRANCH  18  19
ENDBRANCH  17  18
ENDBRANCH   1  17
TORSDOF 15
ENDMDL
MODEL 5
REMARK VINA RESULT:      -6.7      2.824      4.011
REMARK  Name = 
REMARK  19 active torsions:
REMARK  status: ('A' for Active; 'I' for Inactive)
REMARK    1  A    between atoms: C_1  and  C_2
REMARK    2  A    between atoms: C_2  and  P_3
REMARK    3  A    between atoms: P_3  and  C_5
REMARK    4  A    between atoms: P_3  and  C_7
REMARK    5  A    between atoms: C_5  and  C_6
REMARK    6  A    between atoms: C_7  and  C_8
REMARK    7  A    between atoms: C_8  and  C_9
REMARK    8  A    between atoms: C_14  and  O_15
REMARK    9  A    between atoms: O_15  and  C_16
REMARK   10  A    between atoms: C_16  and  C_17
REMARK   11  A    between atoms: C_17  and  O_18
REMARK   12  A    between atoms: O_18  and  C_19
REMARK   13  A    between atoms: C_24  and  C_25
REMARK   14  A    between atoms: C_25  and  C_26
REMARK   15  A    between atoms: C_26  and  P_27
REMARK   16  A    between atoms: P_27  and  C_29
REMARK   17  A    between atoms: P_27  and  C_31
REMARK   18  A    between atoms: C_29  and  C_30
REMARK   19  A    between atoms: C_31  and  C_32
REMARK                            x       y       z     vdW  Elec       q    Type
REMARK                         _______ _______ _______ _____ _____    ______ ____
ROOT
ATOM      1  C   UNL     1       2.138   7.417  18.463  0.00  0.00    +0.000 C 
ENDROOT
BRANCH   1   2
ATOM      2  O   UNL     1       2.853   6.490  19.321  0.00  0.00    +0.000 OA
BRANCH   2   8
ATOM      3  C   UNL     1       2.572   4.255  18.394  0.00  0.00    +0.000 A 
ATOM      4  C   UNL     1       1.896   3.009  18.497  0.00  0.00    +0.000 A 
ATOM      5  C   UNL     1       0.997   2.737  19.528  0.00  0.00    +0.000 A 
ATOM      6  C   UNL     1       0.788   3.681  20.518  0.00  0.00    +0.000 A 
ATOM      7  C   UNL     1       1.439   4.909  20.445  0.00  0.00    +0.000 A 
ATOM      8  C   UNL     1       2.296   5.232  19.376  0.00  0.00    +0.000 A 
BRANCH   3   9
ATOM      9  C   UNL     1       3.415   4.454  17.131  0.00  0.00    +0.000 C 
BRANCH   9  10
ATOM     10  C   UNL     1       4.883   3.951  17.112  0.00  0.00    +0.000 C 
BRANCH  10  11
ATOM     11  P   UNL     1       6.237   5.051  17.665  0.00  0.00    +0.000 P 
ATOM     12  O   UNL     1       5.369   6.289  17.380  0.00  0.00    +0.000 OA
BRANCH  11  14
ATOM     13  C   UNL     1       7.606   7.508  17.541  0.00  0.00    +0.000 C 
ATOM     14  C   UNL     1       7.591   6.150  18.220  0.00  0.00    +0.000 C 
ENDBRANCH  11  14
BRANCH  11  15
ATOM     15  C   UNL     1       7.300   4.741  16.035  0.00  0.00    +0.000 C 
ATOM     16  C   UNL     1       6.478   4.196  14.881  0.00  0.00    +0.000 C 
ENDBRANCH  11  15
ENDBRANCH  10  11
ENDBRANCH   9  10
ENDBRANCH   3   9
ENDBRANCH   2   8
ENDBRANCH   1   2
BRANCH   1  17
ATOM     17  C   UNL     1       2.084   8.883  18.959  0.00  0.00    +0.000 C 
BRANCH  17  18
ATOM     18  O   UNL     1       0.702   9.271  19.123  0.00  0.00    +0.000 OA
BRANCH  18  19
ATOM     19  C   UNL     1       0.259   9.603  20.388  0.00  0.00    +0.000 A 
ATOM     20  C   UNL     1      -0.046   8.664  21.390  0.00  0.00    +0.000 A 
ATOM     21  C   UNL     1      -0.470   9.076  22.667  0.00  0.00    +0.000 A 
ATOM     22  C   UNL     1      -0.598  10.429  22.951  0.00  0.00    +0.000 A 
ATOM     23  C   UNL     1      -0.337  11.371  21.952  0.00  0.00    +0.000 A 
ATOM     24  C   UNL     1       0.078  10.974  20.665  0.00  0.00    +0.000 A 
BRANCH  24  25
ATOM     25  C   UNL     1       0.415  12.072  19.677  0.00  0.00    +0.000 C 
BRANCH  25  26
ATOM     26  C   UNL     1       1.747  12.807  19.867  0.00  0.00    +0.000 C 
BRANCH  26  27
ATOM     27  P   UNL     1       1.632  14.500  19.257  0.00  0.00    +0.000 P 
ATOM     28  O   UNL     1       0.271  14.808  18.685  0.00  0.00    +0.000 OA
BRANCH  27  29
ATOM     29  C   UNL     1       2.015  15.629  20.596  0.00  0.00    +0.000 C 
ATOM     30  C   UNL     1       0.999  15.758  21.711  0.00  0.00    +0.000 C 
ENDBRANCH  27  29
BRANCH  27  31
ATOM     31  C   UNL     1       2.913  14.764  18.023  0.00  0.00    +0.000 C 
ATOM     32  C   UNL     1       3.206  16.214  17.699  0.00  0.00    +0.000 C 
ENDBRANCH  27  31
ENDBRANCH  26  27
ENDBRANCH  25  26
ENDBRANCH  24  25
ENDBRANCH  18  19
ENDBRANCH  17  18
ENDBRANCH   1  17
TORSDOF 15
ENDMDL
MODEL 6
REMARK VINA RESULT:      -6.7      2.792      9.430
REMARK  Name = 
REMARK  19 active torsions:
REMARK  status: ('A' for Active; 'I' for Inactive)
REMARK    1  A    between atoms: C_1  and  C_2
REMARK    2  A    between atoms: C_2  and  P_3
REMARK    3  A    between atoms: P_3  and  C_5
REMARK    4  A    between atoms: P_3  and  C_7
REMARK    5  A    between atoms: C_5  and  C_6
REMARK    6  A    between atoms: C_7  and  C_8
REMARK    7  A    between atoms: C_8  and  C_9
REMARK    8  A    between atoms: C_14  and  O_15
REMARK    9  A    between atoms: O_15  and  C_16
REMARK   10  A    between atoms: C_16  and  C_17
REMARK   11  A    between atoms: C_17  and  O_18
REMARK   12  A    between atoms: O_18  and  C_19
REMARK   13  A    between atoms: C_24  and  C_25
REMARK   14  A    between atoms: C_25  and  C_26
REMARK   15  A    between atoms: C_26  and  P_27
REMARK   16  A    between atoms: P_27  and  C_29
REMARK   17  A    between atoms: P_27  and  C_31
REMARK   18  A    between atoms: C_29  and  C_30
REMARK   19  A    between atoms: C_31  and  C_32
REMARK                            x       y       z     vdW  Elec       q    Type
REMARK                         _______ _______ _______ _____ _____    ______ ____
ROOT
ATOM      1  C   UNL     1       1.851   8.410  20.210  0.00  0.00    +0.000 C 
ENDROOT
BRANCH   1   2
ATOM      2  O   UNL     1       0.954   9.491  19.839  0.00  0.00    +0.000 OA
BRANCH   2   8
ATOM      3  C   UNL     1      -0.351  11.285  20.846  0.00  0.00    +0.000 A 
ATOM      4  C   UNL     1      -1.038  11.740  22.002  0.00  0.00    +0.000 A 
ATOM      5  C   UNL     1      -1.171  10.950  23.145  0.00  0.00    +0.000 A 
ATOM      6  C   UNL     1      -0.670   9.661  23.144  0.00  0.00    +0.000 A 
ATOM      7  C   UNL     1       0.006   9.187  22.023  0.00  0.00    +0.000 A 
ATOM      8  C   UNL     1       0.214   9.991  20.887  0.00  0.00    +0.000 A 
BRANCH   3   9
ATOM      9  C   UNL     1      -0.165  12.318  19.731  0.00  0.00    +0.000 C 
BRANCH   9  10
ATOM     10  C   UNL     1       1.268  12.784  19.360  0.00  0.00    +0.000 C 
BRANCH  10  11
ATOM     11  P   UNL     1       2.075  14.120  20.318  0.00  0.00    +0.000 P 
ATOM     12  O   UNL     1       2.423  13.127  21.440  0.00  0.00    +0.000 OA
BRANCH  11  14
ATOM     13  C   UNL     1       3.969  14.974  22.216  0.00  0.00    +0.000 C 
ATOM     14  C   UNL     1       2.882  15.456  21.273  0.00  0.00    +0.000 C 
ENDBRANCH  11  14
BRANCH  11  15
ATOM     15  C   UNL     1       0.356  14.940  20.826  0.00  0.00    +0.000 C 
ATOM     16  C   UNL     1       0.209  15.139  22.324  0.00  0.00    +0.000 C 
ENDBRANCH  11  15
ENDBRANCH  10  11
ENDBRANCH   9  10
ENDBRANCH   3   9
ENDBRANCH   2   8
ENDBRANCH   1   2
BRANCH   1  17
ATOM     17  C   UNL     1       2.228   7.433  19.070  0.00  0.00    +0.000 C 
BRANCH  17  18
ATOM     18  O   UNL     1       2.843   6.258  19.645  0.00  0.00    +0.000 OA
BRANCH  18  19
ATOM     19  C   UNL     1       2.218   5.039  19.474  0.00  0.00    +0.000 A 
ATOM     20  C   UNL     1       1.281   4.500  20.374  0.00  0.00    +0.000 A 
ATOM     21  C   UNL     1       0.663   3.260  20.124  0.00  0.00    +0.000 A 
ATOM     22  C   UNL     1       0.981   2.548  18.975  0.00  0.00    +0.000 A 
ATOM     23  C   UNL     1       1.939   3.054  18.093  0.00  0.00    +0.000 A 
ATOM     24  C   UNL     1       2.575   4.288  18.335  0.00  0.00    +0.000 A 
BRANCH  24  25
ATOM     25  C   UNL     1       3.538   4.790  17.280  0.00  0.00    +0.000 C 
BRANCH  25  26
ATOM     26  C   UNL     1       4.698   3.868  16.888  0.00  0.00    +0.000 C 
BRANCH  26  27
ATOM     27  P   UNL     1       5.985   4.793  16.026  0.00  0.00    +0.000 P 
ATOM     28  O   UNL     1       5.609   6.239  15.827  0.00  0.00    +0.000 OA
BRANCH  27  29
ATOM     29  C   UNL     1       7.512   4.669  16.956  0.00  0.00    +0.000 C 
ATOM     30  C   UNL     1       7.558   5.333  18.315  0.00  0.00    +0.000 C 
ENDBRANCH  27  29
BRANCH  27  31
ATOM     31  C   UNL     1       6.315   3.999  14.447  0.00  0.00    +0.000 C 
ATOM     32  C   UNL     1       7.172   4.802  13.490  0.00  0.00    +0.000 C 
ENDBRANCH  27  31
ENDBRANCH  26  27
ENDBRANCH  25  26
ENDBRANCH  24  25
ENDBRANCH  18  19
ENDBRANCH  17  18
ENDBRANCH   1  17
TORSDOF 15
ENDMDL
MODEL 7
REMARK VINA RESULT:      -6.7      1.171      9.573
REMARK  Name = 
REMARK  19 active torsions:
REMARK  status: ('A' for Active; 'I' for Inactive)
REMARK    1  A    between atoms: C_1  and  C_2
REMARK    2  A    between atoms: C_2  and  P_3
REMARK    3  A    between atoms: P_3  and  C_5
REMARK    4  A    between atoms: P_3  and  C_7
REMARK    5  A    between atoms: C_5  and  C_6
REMARK    6  A    between atoms: C_7  and  C_8
REMARK    7  A    between atoms: C_8  and  C_9
REMARK    8  A    between atoms: C_14  and  O_15
REMARK    9  A    between atoms: O_15  and  C_16
REMARK   10  A    between atoms: C_16  and  C_17
REMARK   11  A    between atoms: C_17  and  O_18
REMARK   12  A    between atoms: O_18  and  C_19
REMARK   13  A    between atoms: C_24  and  C_25
REMARK   14  A    between atoms: C_25  and  C_26
REMARK   15  A    between atoms: C_26  and  P_27
REMARK   16  A    between atoms: P_27  and  C_29
REMARK   17  A    between atoms: P_27  and  C_31
REMARK   18  A    between atoms: C_29  and  C_30
REMARK   19  A    between atoms: C_31  and  C_32
REMARK                            x       y       z     vdW  Elec       q    Type
REMARK                         _______ _______ _______ _____ _____    ______ ____
ROOT
ATOM      1  C   UNL     1       1.714   7.757  20.984  0.00  0.00    +0.000 C 
ENDROOT
BRANCH   1   2
ATOM      2  O   UNL     1       0.871   8.506  20.068  0.00  0.00    +0.000 OA
BRANCH   2   8
ATOM      3  C   UNL     1      -0.518  10.500  19.909  0.00  0.00    +0.000 A 
ATOM      4  C   UNL     1      -1.185  11.535  20.619  0.00  0.00    +0.000 A 
ATOM      5  C   UNL     1      -1.206  11.583  22.013  0.00  0.00    +0.000 A 
ATOM      6  C   UNL     1      -0.609  10.570  22.740  0.00  0.00    +0.000 A 
ATOM      7  C   UNL     1       0.050   9.541  22.072  0.00  0.00    +0.000 A 
ATOM      8  C   UNL     1       0.144   9.509  20.668  0.00  0.00    +0.000 A 
BRANCH   3   9
ATOM      9  C   UNL     1      -0.462  10.663  18.388  0.00  0.00    +0.000 C 
BRANCH   9  10
ATOM     10  C   UNL     1      -1.638  10.134  17.525  0.00  0.00    +0.000 C 
BRANCH  10  11
ATOM     11  P   UNL     1      -3.243  11.016  17.520  0.00  0.00    +0.000 P 
ATOM     12  O   UNL     1      -3.958   9.750  18.021  0.00  0.00    +0.000 OA
BRANCH  11  14
ATOM     13  C   UNL     1      -5.391  12.202  18.899  0.00  0.00    +0.000 C 
ATOM     14  C   UNL     1      -4.846  11.898  17.515  0.00  0.00    +0.000 C 
ENDBRANCH  11  14
BRANCH  11  15
ATOM     15  C   UNL     1      -3.378  10.979  15.554  0.00  0.00    +0.000 C 
ATOM     16  C   UNL     1      -2.768   9.733  14.936  0.00  0.00    +0.000 C 
ENDBRANCH  11  15
ENDBRANCH  10  11
ENDBRANCH   9  10
ENDBRANCH   3   9
ENDBRANCH   2   8
ENDBRANCH   1   2
BRANCH   1  17
ATOM     17  C   UNL     1       1.665   6.217  20.831  0.00  0.00    +0.000 C 
BRANCH  17  18
ATOM     18  O   UNL     1       1.561   5.889  19.428  0.00  0.00    +0.000 OA
BRANCH  18  19
ATOM     19  C   UNL     1       1.818   4.590  19.036  0.00  0.00    +0.000 A 
ATOM     20  C   UNL     1       0.901   3.531  19.163  0.00  0.00    +0.000 A 
ATOM     21  C   UNL     1       1.221   2.235  18.719  0.00  0.00    +0.000 A 
ATOM     22  C   UNL     1       2.462   1.986  18.149  0.00  0.00    +0.000 A 
ATOM     23  C   UNL     1       3.397   3.020  18.053  0.00  0.00    +0.000 A 
ATOM     24  C   UNL     1       3.095   4.321  18.503  0.00  0.00    +0.000 A 
BRANCH  24  25
ATOM     25  C   UNL     1       4.144   5.391  18.281  0.00  0.00    +0.000 C 
BRANCH  25  26
ATOM     26  C   UNL     1       5.571   4.926  17.970  0.00  0.00    +0.000 C 
BRANCH  26  27
ATOM     27  P   UNL     1       6.256   5.857  16.586  0.00  0.00    +0.000 P 
ATOM     28  O   UNL     1       5.191   6.590  15.809  0.00  0.00    +0.000 OA
BRANCH  27  29
ATOM     29  C   UNL     1       7.478   7.013  17.208  0.00  0.00    +0.000 C 
ATOM     30  C   UNL     1       8.010   6.779  18.605  0.00  0.00    +0.000 C 
ENDBRANCH  27  29
BRANCH  27  31
ATOM     31  C   UNL     1       7.161   4.730  15.516  0.00  0.00    +0.000 C 
ATOM     32  C   UNL     1       6.545   4.506  14.150  0.00  0.00    +0.000 C 
ENDBRANCH  27  31
ENDBRANCH  26  27
ENDBRANCH  25  26
ENDBRANCH  24  25
ENDBRANCH  18  19
ENDBRANCH  17  18
ENDBRANCH   1  17
TORSDOF 15
ENDMDL
MODEL 8
REMARK VINA RESULT:      -6.7      2.340     10.043
REMARK  Name = 
REMARK  19 active torsions:
REMARK  status: ('A' for Active; 'I' for Inactive)
REMARK    1  A    between atoms: C_1  and  C_2
REMARK    2  A    between atoms: C_2  and  P_3
REMARK    3  A    between atoms: P_3  and  C_5
REMARK    4  A    between atoms: P_3  and  C_7
REMARK    5  A    between atoms: C_5  and  C_6
REMARK    6  A    between atoms: C_7  and  C_8
REMARK    7  A    between atoms: C_8  and  C_9
REMARK    8  A    between atoms: C_14  and  O_15
REMARK    9  A    between atoms: O_15  and  C_16
REMARK   10  A    between atoms: C_16  and  C_17
REMARK   11  A    between atoms: C_17  and  O_18
REMARK   12  A    between atoms: O_18  and  C_19
REMARK   13  A    between atoms: C_24  and  C_25
REMARK   14  A    between atoms: C_25  and  C_26
REMARK   15  A    between atoms: C_26  and  P_27
REMARK   16  A    between atoms: P_27  and  C_29
REMARK   17  A    between atoms: P_27  and  C_31
REMARK   18  A    between atoms: C_29  and  C_30
REMARK   19  A    between atoms: C_31  and  C_32
REMARK                            x       y       z     vdW  Elec       q    Type
REMARK                         _______ _______ _______ _____ _____    ______ ____
ROOT
ATOM      1  C   UNL     1       1.679   9.529  18.044  0.00  0.00    +0.000 C 
ENDROOT
BRANCH   1   2
ATOM      2  O   UNL     1       0.636   9.566  19.054  0.00  0.00    +0.000 OA
BRANCH   2   8
ATOM      3  C   UNL     1      -1.065  11.277  19.395  0.00  0.00    +0.000 A 
ATOM      4  C   UNL     1      -2.290  11.832  18.939  0.00  0.00    +0.000 A 
ATOM      5  C   UNL     1      -2.936  11.362  17.795  0.00  0.00    +0.000 A 
ATOM      6  C   UNL     1      -2.349  10.361  17.043  0.00  0.00    +0.000 A 
ATOM      7  C   UNL     1      -1.146   9.800  17.463  0.00  0.00    +0.000 A 
ATOM      8  C   UNL     1      -0.513  10.210  18.652  0.00  0.00    +0.000 A 
BRANCH   3   9
ATOM      9  C   UNL     1      -0.555  11.801  20.740  0.00  0.00    +0.000 C 
BRANCH   9  10
ATOM     10  C   UNL     1      -0.406  13.331  20.950  0.00  0.00    +0.000 C 
BRANCH  10  11
ATOM     11  P   UNL     1      -1.040  14.114  22.479  0.00  0.00    +0.000 P 
ATOM     12  O   UNL     1      -0.428  12.988  23.328  0.00  0.00    +0.000 OA
BRANCH  11  14
ATOM     13  C   UNL     1      -0.802  16.022  24.535  0.00  0.00    +0.000 C 
ATOM     14  C   UNL     1      -1.674  14.898  24.006  0.00  0.00    +0.000 C 
ENDBRANCH  11  14
BRANCH  11  15
ATOM     15  C   UNL     1      -2.900  13.573  22.112  0.00  0.00    +0.000 C 
ATOM     16  C   UNL     1      -3.374  12.431  22.993  0.00  0.00    +0.000 C 
ENDBRANCH  11  15
ENDBRANCH  10  11
ENDBRANCH   9  10
ENDBRANCH   3   9
ENDBRANCH   2   8
ENDBRANCH   1   2
BRANCH   1  17
ATOM     17  C   UNL     1       2.746   8.422  18.223  0.00  0.00    +0.000 C 
BRANCH  17  18
ATOM     18  O   UNL     1       2.136   7.139  17.963  0.00  0.00    +0.000 OA
BRANCH  18  19
ATOM     19  C   UNL     1       2.410   6.094  18.823  0.00  0.00    +0.000 A 
ATOM     20  C   UNL     1       1.850   5.961  20.106  0.00  0.00    +0.000 A 
ATOM     21  C   UNL     1       2.155   4.856  20.922  0.00  0.00    +0.000 A 
ATOM     22  C   UNL     1       3.027   3.877  20.463  0.00  0.00    +0.000 A 
ATOM     23  C   UNL     1       3.622   4.018  19.207  0.00  0.00    +0.000 A 
ATOM     24  C   UNL     1       3.335   5.124  18.383  0.00  0.00    +0.000 A 
BRANCH  24  25
ATOM     25  C   UNL     1       3.965   5.145  17.006  0.00  0.00    +0.000 C 
BRANCH  25  26
ATOM     26  C   UNL     1       5.114   6.134  16.771  0.00  0.00    +0.000 C 
BRANCH  26  27
ATOM     27  P   UNL     1       6.655   5.255  16.447  0.00  0.00    +0.000 P 
ATOM     28  O   UNL     1       7.668   6.122  15.743  0.00  0.00    +0.000 OA
BRANCH  27  29
ATOM     29  C   UNL     1       7.320   4.654  17.999  0.00  0.00    +0.000 C 
ATOM     30  C   UNL     1       7.820   5.684  18.989  0.00  0.00    +0.000 C 
ENDBRANCH  27  29
BRANCH  27  31
ATOM     31  C   UNL     1       6.294   3.785  15.476  0.00  0.00    +0.000 C 
ATOM     32  C   UNL     1       6.000   4.037  14.012  0.00  0.00    +0.000 C 
ENDBRANCH  27  31
ENDBRANCH  26  27
ENDBRANCH  25  26
ENDBRANCH  24  25
ENDBRANCH  18  19
ENDBRANCH  17  18
ENDBRANCH   1  17
TORSDOF 15
ENDMDL
MODEL 9
REMARK VINA RESULT:      -6.7      1.357      9.525
REMARK  Name = 
REMARK  19 active torsions:
REMARK  status: ('A' for Active; 'I' for Inactive)
REMARK    1  A    between atoms: C_1  and  C_2
REMARK    2  A    between atoms: C_2  and  P_3
REMARK    3  A    between atoms: P_3  and  C_5
REMARK    4  A    between atoms: P_3  and  C_7
REMARK    5  A    between atoms: C_5  and  C_6
REMARK    6  A    between atoms: C_7  and  C_8
REMARK    7  A    between atoms: C_8  and  C_9
REMARK    8  A    between atoms: C_14  and  O_15
REMARK    9  A    between atoms: O_15  and  C_16
REMARK   10  A    between atoms: C_16  and  C_17
REMARK   11  A    between atoms: C_17  and  O_18
REMARK   12  A    between atoms: O_18  and  C_19
REMARK   13  A    between atoms: C_24  and  C_25
REMARK   14  A    between atoms: C_25  and  C_26
REMARK   15  A    between atoms: C_26  and  P_27
REMARK   16  A    between atoms: P_27  and  C_29
REMARK   17  A    between atoms: P_27  and  C_31
REMARK   18  A    between atoms: C_29  and  C_30
REMARK   19  A    between atoms: C_31  and  C_32
REMARK                            x       y       z     vdW  Elec       q    Type
REMARK                         _______ _______ _______ _____ _____    ______ ____
ROOT
ATOM      1  C   UNL     1       1.473   8.010  19.095  0.00  0.00    +0.000 C 
ENDROOT
BRANCH   1   2
ATOM      2  O   UNL     1       1.602   9.389  19.533  0.00  0.00    +0.000 OA
BRANCH   2   8
ATOM      3  C   UNL     1      -0.316  10.586  20.439  0.00  0.00    +0.000 A 
ATOM      4  C   UNL     1      -1.054  10.924  21.605  0.00  0.00    +0.000 A 
ATOM      5  C   UNL     1      -0.722  10.423  22.864  0.00  0.00    +0.000 A 
ATOM      6  C   UNL     1       0.323   9.525  22.987  0.00  0.00    +0.000 A 
ATOM      7  C   UNL     1       1.062   9.172  21.861  0.00  0.00    +0.000 A 
ATOM      8  C   UNL     1       0.790   9.720  20.593  0.00  0.00    +0.000 A 
BRANCH   3   9
ATOM      9  C   UNL     1      -0.713  11.327  19.160  0.00  0.00    +0.000 C 
BRANCH   9  10
ATOM     10  C   UNL     1      -1.439  10.551  18.028  0.00  0.00    +0.000 C 
BRANCH  10  11
ATOM     11  P   UNL     1      -3.175  10.949  17.609  0.00  0.00    +0.000 P 
ATOM     12  O   UNL     1      -3.586   9.487  17.852  0.00  0.00    +0.000 OA
BRANCH  11  14
ATOM     13  C   UNL     1      -5.914  10.958  18.262  0.00  0.00    +0.000 C 
ATOM     14  C   UNL     1      -4.911  11.349  17.191  0.00  0.00    +0.000 C 
ENDBRANCH  11  14
BRANCH  11  15
ATOM     15  C   UNL     1      -2.789  11.097  15.682  0.00  0.00    +0.000 C 
ATOM     16  C   UNL     1      -3.556  10.093  14.841  0.00  0.00    +0.000 C 
ENDBRANCH  11  15
ENDBRANCH  10  11
ENDBRANCH   9  10
ENDBRANCH   3   9
ENDBRANCH   2   8
ENDBRANCH   1   2
BRANCH   1  17
ATOM     17  C   UNL     1       2.540   7.030  19.643  0.00  0.00    +0.000 C 
BRANCH  17  18
ATOM     18  O   UNL     1       2.848   6.055  18.623  0.00  0.00    +0.000 OA
BRANCH  18  19
ATOM     19  C   UNL     1       2.381   4.766  18.784  0.00  0.00    +0.000 A 
ATOM     20  C   UNL     1       1.347   4.405  19.667  0.00  0.00    +0.000 A 
ATOM     21  C   UNL     1       0.905   3.073  19.763  0.00  0.00    +0.000 A 
ATOM     22  C   UNL     1       1.495   2.089  18.980  0.00  0.00    +0.000 A 
ATOM     23  C   UNL     1       2.550   2.427  18.129  0.00  0.00    +0.000 A 
ATOM     24  C   UNL     1       3.013   3.755  18.030  0.00  0.00    +0.000 A 
BRANCH  24  25
ATOM     25  C   UNL     1       4.105   4.035  17.019  0.00  0.00    +0.000 C 
BRANCH  25  26
ATOM     26  C   UNL     1       4.630   5.473  16.928  0.00  0.00    +0.000 C 
BRANCH  26  27
ATOM     27  P   UNL     1       6.420   5.485  16.710  0.00  0.00    +0.000 P 
ATOM     28  O   UNL     1       6.948   6.866  16.415  0.00  0.00    +0.000 OA
BRANCH  27  29
ATOM     29  C   UNL     1       7.192   4.826  18.187  0.00  0.00    +0.000 C 
ATOM     30  C   UNL     1       7.608   5.814  19.257  0.00  0.00    +0.000 C 
ENDBRANCH  27  29
BRANCH  27  31
ATOM     31  C   UNL     1       6.854   4.344  15.390  0.00  0.00    +0.000 C 
ATOM     32  C   UNL     1       5.976   4.420  14.158  0.00  0.00    +0.000 C 
ENDBRANCH  27  31
ENDBRANCH  26  27
ENDBRANCH  25  26
ENDBRANCH  24  25
ENDBRANCH  18  19
ENDBRANCH  17  18
ENDBRANCH   1  17
TORSDOF 15
ENDMDL
