MODEL 1
REMARK VINA RESULT:      -9.1      0.000      0.000
REMARK  Name = 
REMARK  4 active torsions:
REMARK  status: ('A' for Active; 'I' for Inactive)
REMARK    1  A    between atoms: C_1  and  N_2
REMARK    2  A    between atoms: N_5  and  C_6
REMARK    3  A    between atoms: C_6  and  C_7
REMARK    4  A    between atoms: C_20  and  C_21
REMARK                            x       y       z     vdW  Elec       q    Type
REMARK                         _______ _______ _______ _____ _____    ______ ____
ROOT
ATOM      1  C   UNL     1      -0.461   9.264  22.928  0.00  0.00    +0.000 C 
ATOM      2  N   UNL     1      -0.583  10.499  22.215  0.00  0.00    +0.000 N 
ATOM      3  C   UNL     1      -1.345  11.594  22.696  0.00  0.00    +0.000 A 
ATOM      4  O   UNL     1      -2.011  11.636  23.719  0.00  0.00    +0.000 OA
ATOM      5  N   UNL     1      -1.193  12.625  21.754  0.00  0.00    +0.000 N 
ATOM      6  C   UNL     1      -0.387  12.158  20.710  0.00  0.00    +0.000 A 
ATOM      7  C   UNL     1       0.035  12.782  19.570  0.00  0.00    +0.000 A 
ATOM      8  N   UNL     1       0.743  12.128  18.630  0.00  0.00    +0.000 NA
ATOM      9  C   UNL     1       1.065  10.837  18.844  0.00  0.00    +0.000 A 
ATOM     10  C   UNL     1       1.743  10.199  17.824  0.00  0.00    +0.000 A 
ATOM     11  C   UNL     1       2.158   8.871  17.935  0.00  0.00    +0.000 A 
ATOM     12  C   UNL     1       1.934   8.136  19.103  0.00  0.00    +0.000 A 
ATOM     13  C   UNL     1       1.209   8.774  20.132  0.00  0.00    +0.000 A 
ATOM     14  C   UNL     1       0.747  10.117  20.022  0.00  0.00    +0.000 A 
ATOM     15  C   UNL     1      -0.015  10.837  20.962  0.00  0.00    +0.000 A 
ENDROOT
BRANCH  12  16
ATOM     16  C   UNL     1       2.475   6.769  19.253  0.00  0.00    +0.000 A 
ATOM     17  C   UNL     1       3.546   6.308  18.483  0.00  0.00    +0.000 A 
ATOM     18  N   UNL     1       4.130   5.089  18.589  0.00  0.00    +0.000 NA
ATOM     19  C   UNL     1       3.663   4.256  19.528  0.00  0.00    +0.000 A 
ATOM     20  C   UNL     1       4.268   3.019  19.707  0.00  0.00    +0.000 A 
ATOM     21  C   UNL     1       3.838   2.131  20.697  0.00  0.00    +0.000 A 
ATOM     22  C   UNL     1       2.769   2.473  21.517  0.00  0.00    +0.000 A 
ATOM     23  C   UNL     1       2.134   3.700  21.347  0.00  0.00    +0.000 A 
ATOM     24  C   UNL     1       2.580   4.599  20.363  0.00  0.00    +0.000 A 
ATOM     25  C   UNL     1       1.984   5.859  20.196  0.00  0.00    +0.000 A 
ENDBRANCH  12  16
BRANCH   5  26
ATOM     26  C   UNL     1      -1.939  13.862  21.755  0.00  0.00    +0.000 C 
BRANCH  26  27
ATOM     27  C   UNL     1      -3.423  13.618  21.564  0.00  0.00    +0.000 A 
ATOM     28  C   UNL     1      -4.325  13.930  22.594  0.00  0.00    +0.000 A 
ATOM     29  C   UNL     1      -5.674  13.585  22.484  0.00  0.00    +0.000 A 
ATOM     30  C   UNL     1      -6.122  12.925  21.347  0.00  0.00    +0.000 A 
ATOM     31  F   UNL     1      -7.405  12.548  21.263  0.00  0.00    +0.000 F 
ATOM     32  C   UNL     1      -5.257  12.637  20.301  0.00  0.00    +0.000 A 
ATOM     33  C   UNL     1      -3.912  12.994  20.403  0.00  0.00    +0.000 A 
ENDBRANCH  26  27
ENDBRANCH   5  26
TORSDOF 3
ENDMDL
MODEL 2
REMARK VINA RESULT:      -8.8      1.027      1.470
REMARK  Name = 
REMARK  4 active torsions:
REMARK  status: ('A' for Active; 'I' for Inactive)
REMARK    1  A    between atoms: C_1  and  N_2
REMARK    2  A    between atoms: N_5  and  C_6
REMARK    3  A    between atoms: C_6  and  C_7
REMARK    4  A    between atoms: C_20  and  C_21
REMARK                            x       y       z     vdW  Elec       q    Type
REMARK                         _______ _______ _______ _____ _____    ______ ____
ROOT
ATOM      1  C   UNL     1      -0.389   9.327  22.945  0.00  0.00    +0.000 C 
ATOM      2  N   UNL     1      -0.365  10.573  22.241  0.00  0.00    +0.000 N 
ATOM      3  C   UNL     1      -1.004  11.744  22.725  0.00  0.00    +0.000 A 
ATOM      4  O   UNL     1      -1.668  11.852  23.744  0.00  0.00    +0.000 OA
ATOM      5  N   UNL     1      -0.729  12.757  21.793  0.00  0.00    +0.000 N 
ATOM      6  C   UNL     1       0.027  12.211  20.750  0.00  0.00    +0.000 A 
ATOM      7  C   UNL     1       0.526  12.791  19.619  0.00  0.00    +0.000 A 
ATOM      8  N   UNL     1       1.164  12.069  18.679  0.00  0.00    +0.000 NA
ATOM      9  C   UNL     1       1.337  10.749  18.884  0.00  0.00    +0.000 A 
ATOM     10  C   UNL     1       1.947  10.045  17.864  0.00  0.00    +0.000 A 
ATOM     11  C   UNL     1       2.209   8.678  17.967  0.00  0.00    +0.000 A 
ATOM     12  C   UNL     1       1.895   7.965  19.127  0.00  0.00    +0.000 A 
ATOM     13  C   UNL     1       1.238   8.673  20.156  0.00  0.00    +0.000 A 
ATOM     14  C   UNL     1       0.931  10.060  20.055  0.00  0.00    +0.000 A 
ATOM     15  C   UNL     1       0.247  10.854  20.995  0.00  0.00    +0.000 A 
ENDROOT
BRANCH  12  16
ATOM     16  C   UNL     1       2.278   6.544  19.270  0.00  0.00    +0.000 A 
ATOM     17  C   UNL     1       2.193   5.875  20.494  0.00  0.00    +0.000 A 
ATOM     18  N   UNL     1       2.479   4.566  20.701  0.00  0.00    +0.000 NA
ATOM     19  C   UNL     1       2.853   3.837  19.641  0.00  0.00    +0.000 A 
ATOM     20  C   UNL     1       3.102   2.480  19.800  0.00  0.00    +0.000 A 
ATOM     21  C   UNL     1       3.459   1.671  18.717  0.00  0.00    +0.000 A 
ATOM     22  C   UNL     1       3.589   2.228  17.450  0.00  0.00    +0.000 A 
ATOM     23  C   UNL     1       3.362   3.590  17.268  0.00  0.00    +0.000 A 
ATOM     24  C   UNL     1       2.985   4.397  18.355  0.00  0.00    +0.000 A 
ATOM     25  C   UNL     1       2.710   5.764  18.193  0.00  0.00    +0.000 A 
ENDBRANCH  12  16
BRANCH   5  26
ATOM     26  C   UNL     1      -1.332  14.070  21.798  0.00  0.00    +0.000 C 
BRANCH  26  27
ATOM     27  C   UNL     1      -2.833  13.996  21.600  0.00  0.00    +0.000 A 
ATOM     28  C   UNL     1      -3.697  14.515  22.576  0.00  0.00    +0.000 A 
ATOM     29  C   UNL     1      -5.078  14.332  22.470  0.00  0.00    +0.000 A 
ATOM     30  C   UNL     1      -5.596  13.626  21.392  0.00  0.00    +0.000 A 
ATOM     31  F   UNL     1      -6.915  13.406  21.316  0.00  0.00    +0.000 F 
ATOM     32  C   UNL     1      -4.764  13.134  20.396  0.00  0.00    +0.000 A 
ATOM     33  C   UNL     1      -3.385  13.329  20.493  0.00  0.00    +0.000 A 
ENDBRANCH  26  27
ENDBRANCH   5  26
TORSDOF 3
ENDMDL
MODEL 3
REMARK VINA RESULT:      -8.7      2.048      2.696
REMARK  Name = 
REMARK  4 active torsions:
REMARK  status: ('A' for Active; 'I' for Inactive)
REMARK    1  A    between atoms: C_1  and  N_2
REMARK    2  A    between atoms: N_5  and  C_6
REMARK    3  A    between atoms: C_6  and  C_7
REMARK    4  A    between atoms: C_20  and  C_21
REMARK                            x       y       z     vdW  Elec       q    Type
REMARK                         _______ _______ _______ _____ _____    ______ ____
ROOT
ATOM      1  C   UNL     1      -0.691   9.310  22.812  0.00  0.00    +0.000 C 
ATOM      2  N   UNL     1      -0.782  10.570  22.137  0.00  0.00    +0.000 N 
ATOM      3  C   UNL     1      -1.576  11.644  22.616  0.00  0.00    +0.000 A 
ATOM      4  O   UNL     1      -2.296  11.645  23.602  0.00  0.00    +0.000 OA
ATOM      5  N   UNL     1      -1.379  12.708  21.721  0.00  0.00    +0.000 N 
ATOM      6  C   UNL     1      -0.516  12.283  20.706  0.00  0.00    +0.000 A 
ATOM      7  C   UNL     1      -0.037  12.950  19.613  0.00  0.00    +0.000 A 
ATOM      8  N   UNL     1       0.725  12.334  18.691  0.00  0.00    +0.000 NA
ATOM      9  C   UNL     1       1.043  11.037  18.875  0.00  0.00    +0.000 A 
ATOM     10  C   UNL     1       1.778  10.439  17.871  0.00  0.00    +0.000 A 
ATOM     11  C   UNL     1       2.195   9.109  17.955  0.00  0.00    +0.000 A 
ATOM     12  C   UNL     1       1.914   8.332  19.082  0.00  0.00    +0.000 A 
ATOM     13  C   UNL     1       1.130   8.929  20.093  0.00  0.00    +0.000 A 
ATOM     14  C   UNL     1       0.666  10.273  20.008  0.00  0.00    +0.000 A 
ATOM     15  C   UNL     1      -0.149  10.956  20.930  0.00  0.00    +0.000 A 
ENDROOT
BRANCH  12  16
ATOM     16  C   UNL     1       2.454   6.962  19.212  0.00  0.00    +0.000 A 
ATOM     17  C   UNL     1       3.512   6.506  18.422  0.00  0.00    +0.000 A 
ATOM     18  N   UNL     1       4.095   5.285  18.508  0.00  0.00    +0.000 NA
ATOM     19  C   UNL     1       3.641   4.445  19.447  0.00  0.00    +0.000 A 
ATOM     20  C   UNL     1       4.246   3.206  19.605  0.00  0.00    +0.000 A 
ATOM     21  C   UNL     1       3.830   2.310  20.594  0.00  0.00    +0.000 A 
ATOM     22  C   UNL     1       2.775   2.646  21.434  0.00  0.00    +0.000 A 
ATOM     23  C   UNL     1       2.140   3.877  21.284  0.00  0.00    +0.000 A 
ATOM     24  C   UNL     1       2.572   4.783  20.301  0.00  0.00    +0.000 A 
ATOM     25  C   UNL     1       1.976   6.046  20.155  0.00  0.00    +0.000 A 
ENDBRANCH  12  16
BRANCH   5  26
ATOM     26  C   UNL     1      -2.132  13.941  21.726  0.00  0.00    +0.000 C 
BRANCH  26  27
ATOM     27  C   UNL     1      -1.969  14.690  23.034  0.00  0.00    +0.000 A 
ATOM     28  C   UNL     1      -0.711  15.196  23.402  0.00  0.00    +0.000 A 
ATOM     29  C   UNL     1      -0.518  15.767  24.662  0.00  0.00    +0.000 A 
ATOM     30  C   UNL     1      -1.578  15.828  25.557  0.00  0.00    +0.000 A 
ATOM     31  F   UNL     1      -1.380  16.329  26.783  0.00  0.00    +0.000 F 
ATOM     32  C   UNL     1      -2.838  15.367  25.204  0.00  0.00    +0.000 A 
ATOM     33  C   UNL     1      -3.037  14.810  23.939  0.00  0.00    +0.000 A 
ENDBRANCH  26  27
ENDBRANCH   5  26
TORSDOF 3
ENDMDL
MODEL 4
REMARK VINA RESULT:      -8.6      1.166      1.166
REMARK  Name = 
REMARK  4 active torsions:
REMARK  status: ('A' for Active; 'I' for Inactive)
REMARK    1  A    between atoms: C_1  and  N_2
REMARK    2  A    between atoms: N_5  and  C_6
REMARK    3  A    between atoms: C_6  and  C_7
REMARK    4  A    between atoms: C_20  and  C_21
REMARK                            x       y       z     vdW  Elec       q    Type
REMARK                         _______ _______ _______ _____ _____    ______ ____
ROOT
ATOM      1  C   UNL     1      -0.371   8.522  22.276  0.00  0.00    +0.000 C 
ATOM      2  N   UNL     1      -0.365   9.897  21.878  0.00  0.00    +0.000 N 
ATOM      3  C   UNL     1      -1.082  10.903  22.575  0.00  0.00    +0.000 A 
ATOM      4  O   UNL     1      -1.807  10.753  23.547  0.00  0.00    +0.000 OA
ATOM      5  N   UNL     1      -0.802  12.113  21.919  0.00  0.00    +0.000 N 
ATOM      6  C   UNL     1       0.034  11.846  20.830  0.00  0.00    +0.000 A 
ATOM      7  C   UNL     1       0.568  12.688  19.895  0.00  0.00    +0.000 A 
ATOM      8  N   UNL     1       1.290  12.223  18.859  0.00  0.00    +0.000 NA
ATOM      9  C   UNL     1       1.511  10.897  18.768  0.00  0.00    +0.000 A 
ATOM     10  C   UNL     1       2.208  10.467  17.655  0.00  0.00    +0.000 A 
ATOM     11  C   UNL     1       2.527   9.122  17.459  0.00  0.00    +0.000 A 
ATOM     12  C   UNL     1       2.181   8.151  18.403  0.00  0.00    +0.000 A 
ATOM     13  C   UNL     1       1.436   8.581  19.522  0.00  0.00    +0.000 A 
ATOM     14  C   UNL     1       1.072   9.943  19.721  0.00  0.00    +0.000 A 
ATOM     15  C   UNL     1       0.302  10.478  20.772  0.00  0.00    +0.000 A 
ENDROOT
BRANCH  12  16
ATOM     16  C   UNL     1       2.620   6.748  18.242  0.00  0.00    +0.000 A 
ATOM     17  C   UNL     1       3.893   6.421  17.770  0.00  0.00    +0.000 A 
ATOM     18  N   UNL     1       4.389   5.166  17.637  0.00  0.00    +0.000 NA
ATOM     19  C   UNL     1       3.606   4.146  18.011  0.00  0.00    +0.000 A 
ATOM     20  C   UNL     1       4.095   2.849  17.942  0.00  0.00    +0.000 A 
ATOM     21  C   UNL     1       3.329   1.755  18.354  0.00  0.00    +0.000 A 
ATOM     22  C   UNL     1       2.038   1.954  18.829  0.00  0.00    +0.000 A 
ATOM     23  C   UNL     1       1.517   3.245  18.892  0.00  0.00    +0.000 A 
ATOM     24  C   UNL     1       2.297   4.344  18.494  0.00  0.00    +0.000 A 
ATOM     25  C   UNL     1       1.813   5.659  18.585  0.00  0.00    +0.000 A 
ENDBRANCH  12  16
BRANCH   5  26
ATOM     26  C   UNL     1      -1.464  13.370  22.185  0.00  0.00    +0.000 C 
BRANCH  26  27
ATOM     27  C   UNL     1      -2.949  13.290  21.894  0.00  0.00    +0.000 A 
ATOM     28  C   UNL     1      -3.878  13.417  22.940  0.00  0.00    +0.000 A 
ATOM     29  C   UNL     1      -5.240  13.212  22.708  0.00  0.00    +0.000 A 
ATOM     30  C   UNL     1      -5.675  12.874  21.432  0.00  0.00    +0.000 A 
ATOM     31  F   UNL     1      -6.974  12.627  21.220  0.00  0.00    +0.000 F 
ATOM     32  C   UNL     1      -4.780  12.778  20.375  0.00  0.00    +0.000 A 
ATOM     33  C   UNL     1      -3.421  12.997  20.603  0.00  0.00    +0.000 A 
ENDBRANCH  26  27
ENDBRANCH   5  26
TORSDOF 3
ENDMDL
MODEL 5
REMARK VINA RESULT:      -8.6      2.250      3.694
REMARK  Name = 
REMARK  4 active torsions:
REMARK  status: ('A' for Active; 'I' for Inactive)
REMARK    1  A    between atoms: C_1  and  N_2
REMARK    2  A    between atoms: N_5  and  C_6
REMARK    3  A    between atoms: C_6  and  C_7
REMARK    4  A    between atoms: C_20  and  C_21
REMARK                            x       y       z     vdW  Elec       q    Type
REMARK                         _______ _______ _______ _____ _____    ______ ____
ROOT
ATOM      1  C   UNL     1       2.238  11.115  17.802  0.00  0.00    +0.000 C 
ATOM      2  N   UNL     1       1.401  11.234  18.958  0.00  0.00    +0.000 N 
ATOM      3  C   UNL     1       0.840  12.467  19.378  0.00  0.00    +0.000 A 
ATOM      4  O   UNL     1       1.007  13.564  18.869  0.00  0.00    +0.000 OA
ATOM      5  N   UNL     1       0.058  12.179  20.509  0.00  0.00    +0.000 N 
ATOM      6  C   UNL     1       0.167  10.813  20.790  0.00  0.00    +0.000 A 
ATOM      7  C   UNL     1      -0.396  10.065  21.785  0.00  0.00    +0.000 A 
ATOM      8  N   UNL     1      -0.096   8.763  21.943  0.00  0.00    +0.000 NA
ATOM      9  C   UNL     1       0.756   8.185  21.075  0.00  0.00    +0.000 A 
ATOM     10  C   UNL     1       1.073   6.862  21.315  0.00  0.00    +0.000 A 
ATOM     11  C   UNL     1       1.921   6.143  20.473  0.00  0.00    +0.000 A 
ATOM     12  C   UNL     1       2.463   6.724  19.322  0.00  0.00    +0.000 A 
ATOM     13  C   UNL     1       2.171   8.085  19.094  0.00  0.00    +0.000 A 
ATOM     14  C   UNL     1       1.336   8.845  19.962  0.00  0.00    +0.000 A 
ATOM     15  C   UNL     1       1.010  10.210  19.856  0.00  0.00    +0.000 A 
ENDROOT
BRANCH  12  16
ATOM     16  C   UNL     1       3.269   5.923  18.377  0.00  0.00    +0.000 A 
ATOM     17  C   UNL     1       2.841   4.677  17.911  0.00  0.00    +0.000 A 
ATOM     18  N   UNL     1       3.495   3.901  17.011  0.00  0.00    +0.000 NA
ATOM     19  C   UNL     1       4.640   4.373  16.500  0.00  0.00    +0.000 A 
ATOM     20  C   UNL     1       5.312   3.636  15.536  0.00  0.00    +0.000 A 
ATOM     21  C   UNL     1       6.491   4.103  14.948  0.00  0.00    +0.000 A 
ATOM     22  C   UNL     1       7.024   5.325  15.342  0.00  0.00    +0.000 A 
ATOM     23  C   UNL     1       6.377   6.076  16.320  0.00  0.00    +0.000 A 
ATOM     24  C   UNL     1       5.182   5.612  16.896  0.00  0.00    +0.000 A 
ATOM     25  C   UNL     1       4.488   6.367  17.855  0.00  0.00    +0.000 A 
ENDBRANCH  12  16
BRANCH   5  26
ATOM     26  C   UNL     1      -0.552  13.170  21.366  0.00  0.00    +0.000 C 
BRANCH  26  27
ATOM     27  C   UNL     1      -2.065  13.067  21.348  0.00  0.00    +0.000 A 
ATOM     28  C   UNL     1      -2.779  13.004  22.555  0.00  0.00    +0.000 A 
ATOM     29  C   UNL     1      -4.156  12.773  22.553  0.00  0.00    +0.000 A 
ATOM     30  C   UNL     1      -4.821  12.600  21.346  0.00  0.00    +0.000 A 
ATOM     31  F   UNL     1      -6.132  12.328  21.344  0.00  0.00    +0.000 F 
ATOM     32  C   UNL     1      -4.143  12.693  20.138  0.00  0.00    +0.000 A 
ATOM     33  C   UNL     1      -2.768  12.938  20.138  0.00  0.00    +0.000 A 
ENDBRANCH  26  27
ENDBRANCH   5  26
TORSDOF 3
ENDMDL
MODEL 6
REMARK VINA RESULT:      -8.4      2.740      3.669
REMARK  Name = 
REMARK  4 active torsions:
REMARK  status: ('A' for Active; 'I' for Inactive)
REMARK    1  A    between atoms: C_1  and  N_2
REMARK    2  A    between atoms: N_5  and  C_6
REMARK    3  A    between atoms: C_6  and  C_7
REMARK    4  A    between atoms: C_20  and  C_21
REMARK                            x       y       z     vdW  Elec       q    Type
REMARK                         _______ _______ _______ _____ _____    ______ ____
ROOT
ATOM      1  C   UNL     1      -0.398   9.542  22.941  0.00  0.00    +0.000 C 
ATOM      2  N   UNL     1      -0.322  10.777  22.221  0.00  0.00    +0.000 N 
ATOM      3  C   UNL     1      -0.917  11.978  22.687  0.00  0.00    +0.000 A 
ATOM      4  O   UNL     1      -1.582  12.125  23.701  0.00  0.00    +0.000 OA
ATOM      5  N   UNL     1      -0.599  12.968  21.743  0.00  0.00    +0.000 N 
ATOM      6  C   UNL     1       0.140  12.379  20.712  0.00  0.00    +0.000 A 
ATOM      7  C   UNL     1       0.667  12.925  19.575  0.00  0.00    +0.000 A 
ATOM      8  N   UNL     1       1.280  12.166  18.648  0.00  0.00    +0.000 NA
ATOM      9  C   UNL     1       1.401  10.843  18.872  0.00  0.00    +0.000 A 
ATOM     10  C   UNL     1       1.988  10.103  17.864  0.00  0.00    +0.000 A 
ATOM     11  C   UNL     1       2.197   8.728  17.985  0.00  0.00    +0.000 A 
ATOM     12  C   UNL     1       1.850   8.043  19.153  0.00  0.00    +0.000 A 
ATOM     13  C   UNL     1       1.216   8.789  20.169  0.00  0.00    +0.000 A 
ATOM     14  C   UNL     1       0.963  10.185  20.048  0.00  0.00    +0.000 A 
ATOM     15  C   UNL     1       0.306  11.018  20.975  0.00  0.00    +0.000 A 
ENDROOT
BRANCH  12  16
ATOM     16  C   UNL     1       2.176   6.611  19.316  0.00  0.00    +0.000 A 
ATOM     17  C   UNL     1       1.970   5.938  20.523  0.00  0.00    +0.000 A 
ATOM     18  N   UNL     1       2.198   4.619  20.744  0.00  0.00    +0.000 NA
ATOM     19  C   UNL     1       2.636   3.884  19.713  0.00  0.00    +0.000 A 
ATOM     20  C   UNL     1       2.831   2.520  19.881  0.00  0.00    +0.000 A 
ATOM     21  C   UNL     1       3.253   1.707  18.826  0.00  0.00    +0.000 A 
ATOM     22  C   UNL     1       3.505   2.265  17.578  0.00  0.00    +0.000 A 
ATOM     23  C   UNL     1       3.334   3.635  17.389  0.00  0.00    +0.000 A 
ATOM     24  C   UNL     1       2.892   4.447  18.447  0.00  0.00    +0.000 A 
ATOM     25  C   UNL     1       2.673   5.823  18.273  0.00  0.00    +0.000 A 
ENDBRANCH  12  16
BRANCH   5  26
ATOM     26  C   UNL     1      -1.150  14.303  21.728  0.00  0.00    +0.000 C 
BRANCH  26  27
ATOM     27  C   UNL     1      -0.369  15.239  22.629  0.00  0.00    +0.000 A 
ATOM     28  C   UNL     1      -0.936  15.697  23.828  0.00  0.00    +0.000 A 
ATOM     29  C   UNL     1      -0.284  16.663  24.598  0.00  0.00    +0.000 A 
ATOM     30  C   UNL     1       0.933  17.177  24.167  0.00  0.00    +0.000 A 
ATOM     31  F   UNL     1       1.534  18.140  24.878  0.00  0.00    +0.000 F 
ATOM     32  C   UNL     1       1.531  16.714  23.003  0.00  0.00    +0.000 A 
ATOM     33  C   UNL     1       0.887  15.738  22.240  0.00  0.00    +0.000 A 
ENDBRANCH  26  27
ENDBRANCH   5  26
TORSDOF 3
ENDMDL
MODEL 7
REMARK VINA RESULT:      -8.4      3.329      9.881
REMARK  Name = 
REMARK  4 active torsions:
REMARK  status: ('A' for Active; 'I' for Inactive)
REMARK    1  A    between atoms: C_1  and  N_2
REMARK    2  A    between atoms: N_5  and  C_6
REMARK    3  A    between atoms: C_6  and  C_7
REMARK    4  A    between atoms: C_20  and  C_21
REMARK                            x       y       z     vdW  Elec       q    Type
REMARK                         _______ _______ _______ _____ _____    ______ ____
ROOT
ATOM      1  C   UNL     1      -0.288  10.588  17.746  0.00  0.00    +0.000 C 
ATOM      2  N   UNL     1       0.451   9.820  18.703  0.00  0.00    +0.000 N 
ATOM      3  C   UNL     1       1.416   8.850  18.331  0.00  0.00    +0.000 A 
ATOM      4  O   UNL     1       1.721   8.511  17.198  0.00  0.00    +0.000 OA
ATOM      5  N   UNL     1       1.948   8.344  19.528  0.00  0.00    +0.000 N 
ATOM      6  C   UNL     1       1.299   8.965  20.601  0.00  0.00    +0.000 A 
ATOM      7  C   UNL     1       1.461   8.803  21.948  0.00  0.00    +0.000 A 
ATOM      8  N   UNL     1       0.671   9.436  22.834  0.00  0.00    +0.000 NA
ATOM      9  C   UNL     1      -0.279  10.272  22.371  0.00  0.00    +0.000 A 
ATOM     10  C   UNL     1      -1.099  10.853  23.319  0.00  0.00    +0.000 A 
ATOM     11  C   UNL     1      -2.102  11.759  22.970  0.00  0.00    +0.000 A 
ATOM     12  C   UNL     1      -2.298  12.147  21.642  0.00  0.00    +0.000 A 
ATOM     13  C   UNL     1      -1.487  11.527  20.667  0.00  0.00    +0.000 A 
ATOM     14  C   UNL     1      -0.483  10.574  21.001  0.00  0.00    +0.000 A 
ATOM     15  C   UNL     1       0.353   9.868  20.115  0.00  0.00    +0.000 A 
ENDROOT
BRANCH  12  16
ATOM     16  C   UNL     1      -3.286  13.190  21.295  0.00  0.00    +0.000 A 
ATOM     17  C   UNL     1      -2.958  14.548  21.293  0.00  0.00    +0.000 A 
ATOM     18  N   UNL     1      -3.788  15.562  20.944  0.00  0.00    +0.000 NA
ATOM     19  C   UNL     1      -5.025  15.242  20.542  0.00  0.00    +0.000 A 
ATOM     20  C   UNL     1      -5.889  16.245  20.125  0.00  0.00    +0.000 A 
ATOM     21  C   UNL     1      -7.176  15.956  19.663  0.00  0.00    +0.000 A 
ATOM     22  C   UNL     1      -7.622  14.640  19.633  0.00  0.00    +0.000 A 
ATOM     23  C   UNL     1      -6.781  13.617  20.063  0.00  0.00    +0.000 A 
ATOM     24  C   UNL     1      -5.481  13.909  20.509  0.00  0.00    +0.000 A 
ATOM     25  C   UNL     1      -4.597  12.893  20.910  0.00  0.00    +0.000 A 
ENDBRANCH  12  16
BRANCH   5  26
ATOM     26  C   UNL     1       2.836   7.208  19.623  0.00  0.00    +0.000 C 
BRANCH  26  27
ATOM     27  C   UNL     1       2.101   5.904  19.383  0.00  0.00    +0.000 A 
ATOM     28  C   UNL     1       1.492   5.233  20.456  0.00  0.00    +0.000 A 
ATOM     29  C   UNL     1       0.930   3.967  20.273  0.00  0.00    +0.000 A 
ATOM     30  C   UNL     1       0.980   3.369  19.020  0.00  0.00    +0.000 A 
ATOM     31  F   UNL     1       0.487   2.135  18.855  0.00  0.00    +0.000 F 
ATOM     32  C   UNL     1       1.545   4.028  17.936  0.00  0.00    +0.000 A 
ATOM     33  C   UNL     1       2.094   5.299  18.114  0.00  0.00    +0.000 A 
ENDBRANCH  26  27
ENDBRANCH   5  26
TORSDOF 3
ENDMDL
MODEL 8
REMARK VINA RESULT:      -8.3      2.446      3.168
REMARK  Name = 
REMARK  4 active torsions:
REMARK  status: ('A' for Active; 'I' for Inactive)
REMARK    1  A    between atoms: C_1  and  N_2
REMARK    2  A    between atoms: N_5  and  C_6
REMARK    3  A    between atoms: C_6  and  C_7
REMARK    4  A    between atoms: C_20  and  C_21
REMARK                            x       y       z     vdW  Elec       q    Type
REMARK                         _______ _______ _______ _____ _____    ______ ____
ROOT
ATOM      1  C   UNL     1      -0.452   8.894  22.574  0.00  0.00    +0.000 C 
ATOM      2  N   UNL     1      -0.518  10.203  21.998  0.00  0.00    +0.000 N 
ATOM      3  C   UNL     1      -1.289  11.253  22.560  0.00  0.00    +0.000 A 
ATOM      4  O   UNL     1      -2.006  11.195  23.547  0.00  0.00    +0.000 OA
ATOM      5  N   UNL     1      -1.073  12.379  21.748  0.00  0.00    +0.000 N 
ATOM      6  C   UNL     1      -0.221  12.015  20.700  0.00  0.00    +0.000 A 
ATOM      7  C   UNL     1       0.270  12.752  19.659  0.00  0.00    +0.000 A 
ATOM      8  N   UNL     1       1.016  12.193  18.689  0.00  0.00    +0.000 NA
ATOM      9  C   UNL     1       1.307  10.880  18.773  0.00  0.00    +0.000 A 
ATOM     10  C   UNL     1       2.028  10.345  17.724  0.00  0.00    +0.000 A 
ATOM     11  C   UNL     1       2.417   9.004  17.705  0.00  0.00    +0.000 A 
ATOM     12  C   UNL     1       2.122   8.149  18.771  0.00  0.00    +0.000 A 
ATOM     13  C   UNL     1       1.354   8.684  19.827  0.00  0.00    +0.000 A 
ATOM     14  C   UNL     1       0.918  10.039  19.846  0.00  0.00    +0.000 A 
ATOM     15  C   UNL     1       0.119  10.667  20.821  0.00  0.00    +0.000 A 
ENDROOT
BRANCH  12  16
ATOM     16  C   UNL     1       2.634   6.763  18.795  0.00  0.00    +0.000 A 
ATOM     17  C   UNL     1       3.850   6.433  19.400  0.00  0.00    +0.000 A 
ATOM     18  N   UNL     1       4.368   5.185  19.506  0.00  0.00    +0.000 NA
ATOM     19  C   UNL     1       3.648   4.169  19.011  0.00  0.00    +0.000 A 
ATOM     20  C   UNL     1       4.117   2.870  19.147  0.00  0.00    +0.000 A 
ATOM     21  C   UNL     1       3.384   1.776  18.679  0.00  0.00    +0.000 A 
ATOM     22  C   UNL     1       2.164   1.979  18.045  0.00  0.00    +0.000 A 
ATOM     23  C   UNL     1       1.680   3.275  17.881  0.00  0.00    +0.000 A 
ATOM     24  C   UNL     1       2.411   4.371  18.369  0.00  0.00    +0.000 A 
ATOM     25  C   UNL     1       1.927   5.685  18.253  0.00  0.00    +0.000 A 
ENDBRANCH  12  16
BRANCH   5  26
ATOM     26  C   UNL     1      -1.800  13.623  21.850  0.00  0.00    +0.000 C 
BRANCH  26  27
ATOM     27  C   UNL     1      -1.138  14.578  22.823  0.00  0.00    +0.000 A 
ATOM     28  C   UNL     1      -1.602  14.667  24.145  0.00  0.00    +0.000 A 
ATOM     29  C   UNL     1      -1.092  15.637  25.012  0.00  0.00    +0.000 A 
ATOM     30  C   UNL     1      -0.122  16.522  24.557  0.00  0.00    +0.000 A 
ATOM     31  F   UNL     1       0.330  17.484  25.371  0.00  0.00    +0.000 F 
ATOM     32  C   UNL     1       0.377  16.431  23.265  0.00  0.00    +0.000 A 
ATOM     33  C   UNL     1      -0.121  15.453  22.402  0.00  0.00    +0.000 A 
ENDBRANCH  26  27
ENDBRANCH   5  26
TORSDOF 3
ENDMDL
MODEL 9
REMARK VINA RESULT:      -8.3      2.020      3.148
REMARK  Name = 
REMARK  4 active torsions:
REMARK  status: ('A' for Active; 'I' for Inactive)
REMARK    1  A    between atoms: C_1  and  N_2
REMARK    2  A    between atoms: N_5  and  C_6
REMARK    3  A    between atoms: C_6  and  C_7
REMARK    4  A    between atoms: C_20  and  C_21
REMARK                            x       y       z     vdW  Elec       q    Type
REMARK                         _______ _______ _______ _____ _____    ______ ____
ROOT
ATOM      1  C   UNL     1      -1.611  10.011  17.771  0.00  0.00    +0.000 C 
ATOM      2  N   UNL     1      -1.829  10.815  18.934  0.00  0.00    +0.000 N 
ATOM      3  C   UNL     1      -2.748  11.896  18.961  0.00  0.00    +0.000 A 
ATOM      4  O   UNL     1      -3.428  12.308  18.035  0.00  0.00    +0.000 OA
ATOM      5  N   UNL     1      -2.714  12.410  20.268  0.00  0.00    +0.000 N 
ATOM      6  C   UNL     1      -1.773  11.684  21.008  0.00  0.00    +0.000 A 
ATOM      7  C   UNL     1      -1.381  11.811  22.310  0.00  0.00    +0.000 A 
ATOM      8  N   UNL     1      -0.385  11.064  22.822  0.00  0.00    +0.000 NA
ATOM      9  C   UNL     1       0.210  10.150  22.031  0.00  0.00    +0.000 A 
ATOM     10  C   UNL     1       1.263   9.451  22.589  0.00  0.00    +0.000 A 
ATOM     11  C   UNL     1       1.943   8.457  21.883  0.00  0.00    +0.000 A 
ATOM     12  C   UNL     1       1.564   8.101  20.585  0.00  0.00    +0.000 A 
ATOM     13  C   UNL     1       0.514   8.840  19.999  0.00  0.00    +0.000 A 
ATOM     14  C   UNL     1      -0.169   9.880  20.692  0.00  0.00    +0.000 A 
ATOM     15  C   UNL     1      -1.197  10.704  20.197  0.00  0.00    +0.000 A 
ENDROOT
BRANCH  12  16
ATOM     16  C   UNL     1       2.217   6.974  19.888  0.00  0.00    +0.000 A 
ATOM     17  C   UNL     1       1.977   5.644  20.245  0.00  0.00    +0.000 A 
ATOM     18  N   UNL     1       2.497   4.553  19.630  0.00  0.00    +0.000 NA
ATOM     19  C   UNL     1       3.291   4.757  18.571  0.00  0.00    +0.000 A 
ATOM     20  C   UNL     1       3.800   3.667  17.879  0.00  0.00    +0.000 A 
ATOM     21  C   UNL     1       4.604   3.829  16.747  0.00  0.00    +0.000 A 
ATOM     22  C   UNL     1       4.924   5.106  16.303  0.00  0.00    +0.000 A 
ATOM     23  C   UNL     1       4.440   6.217  16.990  0.00  0.00    +0.000 A 
ATOM     24  C   UNL     1       3.617   6.050  18.116  0.00  0.00    +0.000 A 
ATOM     25  C   UNL     1       3.083   7.152  18.804  0.00  0.00    +0.000 A 
ENDBRANCH  12  16
BRANCH   5  26
ATOM     26  C   UNL     1      -3.361  13.629  20.694  0.00  0.00    +0.000 C 
BRANCH  26  27
ATOM     27  C   UNL     1      -4.635  13.344  21.465  0.00  0.00    +0.000 A 
ATOM     28  C   UNL     1      -4.699  13.612  22.842  0.00  0.00    +0.000 A 
ATOM     29  C   UNL     1      -5.816  13.230  23.588  0.00  0.00    +0.000 A 
ATOM     30  C   UNL     1      -6.867  12.574  22.961  0.00  0.00    +0.000 A 
ATOM     31  F   UNL     1      -7.916  12.161  23.685  0.00  0.00    +0.000 F 
ATOM     32  C   UNL     1      -6.843  12.329  21.595  0.00  0.00    +0.000 A 
ATOM     33  C   UNL     1      -5.734  12.724  20.845  0.00  0.00    +0.000 A 
ENDBRANCH  26  27
ENDBRANCH   5  26
TORSDOF 3
ENDMDL
