MODEL 1
REMARK VINA RESULT:      -7.2      0.000      0.000
REMARK  Name = 
REMARK  6 active torsions:
REMARK  status: ('A' for Active; 'I' for Inactive)
REMARK    1  A    between atoms: C_1  and  C_2
REMARK    2  A    between atoms: C_3  and  C_4
REMARK    3  A    between atoms: C_4  and  N_5
REMARK    4  A    between atoms: C_8  and  N_9
REMARK    5  A    between atoms: C_12  and  O_13
REMARK    6  A    between atoms: C_16  and  O_17
REMARK                            x       y       z     vdW  Elec       q    Type
REMARK                         _______ _______ _______ _____ _____    ______ ____
ROOT
ATOM      1  N   UNL     1       1.443   3.581  18.514  0.00  0.00    +0.000 NA
ATOM      2  C   UNL     1       1.649   4.743  17.675  0.00  0.00    +0.000 C 
ATOM      3  C   UNL     1       2.430   5.902  18.286  0.00  0.00    +0.000 C 
ATOM      4  C   UNL     1       2.149   6.255  19.762  0.00  0.00    +0.000 C 
ATOM      5  C   UNL     1       1.611   5.087  20.632  0.00  0.00    +0.000 C 
ATOM      6  C   UNL     1       1.034   3.859  19.887  0.00  0.00    +0.000 C 
ENDROOT
BRANCH   4   7
ATOM      7  N   UNL     1       1.295   7.458  19.954  0.00  0.00    +0.000 NA
ATOM      8  C   UNL     1       1.845   8.653  19.309  0.00  0.00    +0.000 C 
ATOM      9  C   UNL     1       0.949   9.870  19.475  0.00  0.00    +0.000 C 
ATOM     10  C   UNL     1       0.588  10.104  20.934  0.00  0.00    +0.000 C 
ATOM     11  C   UNL     1      -0.040   8.852  21.525  0.00  0.00    +0.000 C 
ATOM     12  C   UNL     1       0.862   7.631  21.345  0.00  0.00    +0.000 C 
BRANCH  10  13
ATOM     13  O   UNL     1       1.745  10.482  21.684  0.00  0.00    +0.000 OA
ATOM     14  H   UNL     1       1.589  11.346  22.079  0.00  0.00    +0.000 HD
ENDBRANCH  10  13
ENDBRANCH   4   7
BRANCH   5  15
ATOM     15  O   UNL     1       2.575   4.717  21.624  0.00  0.00    +0.000 OA
ATOM     16  H   UNL     1       3.088   5.516  21.814  0.00  0.00    +0.000 HD
ENDBRANCH   5  15
BRANCH   1  17
ATOM     17  C   UNL     1       2.272   2.403  18.273  0.00  0.00    +0.000 C 
BRANCH  17  20
ATOM     18  C   UNL     1       4.633   2.758  20.471  0.00  0.00    +0.000 C 
ATOM     19  C   UNL     1       4.682   3.109  19.020  0.00  0.00    +0.000 A 
ATOM     20  C   UNL     1       3.690   2.802  18.098  0.00  0.00    +0.000 A 
ATOM     21  N   UNL     1       4.198   3.059  16.854  0.00  0.00    +0.000 N 
ATOM     22  C   UNL     1       5.155   4.036  16.980  0.00  0.00    +0.000 A 
ATOM     23  C   UNL     1       5.650   4.909  16.009  0.00  0.00    +0.000 A 
ATOM     24  C   UNL     1       6.493   5.928  16.439  0.00  0.00    +0.000 A 
ATOM     25  C   UNL     1       6.856   6.020  17.781  0.00  0.00    +0.000 A 
ATOM     26 CL   UNL     1       7.847   7.339  18.279  0.00  0.00    +0.000 Cl
ATOM     27  C   UNL     1       6.396   5.098  18.737  0.00  0.00    +0.000 A 
ATOM     28  C   UNL     1       5.500   4.081  18.332  0.00  0.00    +0.000 A 
ATOM     29  H   UNL     1       3.721   2.856  15.987  0.00  0.00    +0.000 HD
ENDBRANCH  17  20
ENDBRANCH   1  17
TORSDOF 5
ENDMDL
MODEL 2
REMARK VINA RESULT:      -7.1      0.948      1.359
REMARK  Name = 
REMARK  6 active torsions:
REMARK  status: ('A' for Active; 'I' for Inactive)
REMARK    1  A    between atoms: C_1  and  C_2
REMARK    2  A    between atoms: C_3  and  C_4
REMARK    3  A    between atoms: C_4  and  N_5
REMARK    4  A    between atoms: C_8  and  N_9
REMARK    5  A    between atoms: C_12  and  O_13
REMARK    6  A    between atoms: C_16  and  O_17
REMARK                            x       y       z     vdW  Elec       q    Type
REMARK                         _______ _______ _______ _____ _____    ______ ____
ROOT
ATOM      1  N   UNL     1       1.281   4.245  18.495  0.00  0.00    +0.000 NA
ATOM      2  C   UNL     1       1.589   5.435  17.728  0.00  0.00    +0.000 C 
ATOM      3  C   UNL     1       2.560   6.426  18.359  0.00  0.00    +0.000 C 
ATOM      4  C   UNL     1       2.429   6.692  19.873  0.00  0.00    +0.000 C 
ATOM      5  C   UNL     1       1.795   5.539  20.696  0.00  0.00    +0.000 C 
ATOM      6  C   UNL     1       1.007   4.462  19.911  0.00  0.00    +0.000 C 
ENDROOT
BRANCH   4   7
ATOM      7  N   UNL     1       1.763   7.978  20.217  0.00  0.00    +0.000 NA
ATOM      8  C   UNL     1       0.524   7.789  20.975  0.00  0.00    +0.000 C 
ATOM      9  C   UNL     1      -0.132   9.106  21.358  0.00  0.00    +0.000 C 
ATOM     10  C   UNL     1      -0.314  10.012  20.149  0.00  0.00    +0.000 C 
ATOM     11  C   UNL     1       1.017  10.224  19.448  0.00  0.00    +0.000 C 
ATOM     12  C   UNL     1       1.675   8.895  19.076  0.00  0.00    +0.000 C 
BRANCH  10  13
ATOM     13  O   UNL     1      -1.271   9.456  19.244  0.00  0.00    +0.000 OA
ATOM     14  H   UNL     1      -1.433   8.539  19.488  0.00  0.00    +0.000 HD
ENDBRANCH  10  13
ENDBRANCH   4   7
BRANCH   5  15
ATOM     15  O   UNL     1       2.763   4.965  21.581  0.00  0.00    +0.000 OA
ATOM     16  H   UNL     1       2.345   4.932  22.455  0.00  0.00    +0.000 HD
ENDBRANCH   5  15
BRANCH   1  17
ATOM     17  C   UNL     1       1.923   2.992  18.106  0.00  0.00    +0.000 C 
BRANCH  17  20
ATOM     18  C   UNL     1       4.371   2.601  20.201  0.00  0.00    +0.000 C 
ATOM     19  C   UNL     1       4.434   3.188  18.829  0.00  0.00    +0.000 A 
ATOM     20  C   UNL     1       3.381   3.198  17.924  0.00  0.00    +0.000 A 
ATOM     21  N   UNL     1       3.888   3.589  16.714  0.00  0.00    +0.000 N 
ATOM     22  C   UNL     1       4.989   4.374  16.950  0.00  0.00    +0.000 A 
ATOM     23  C   UNL     1       5.589   5.319  16.114  0.00  0.00    +0.000 A 
ATOM     24  C   UNL     1       6.593   6.109  16.662  0.00  0.00    +0.000 A 
ATOM     25  C   UNL     1       7.003   5.910  17.979  0.00  0.00    +0.000 A 
ATOM     26 CL   UNL     1       8.202   6.959  18.637  0.00  0.00    +0.000 Cl
ATOM     27  C   UNL     1       6.430   4.916  18.790  0.00  0.00    +0.000 A 
ATOM     28  C   UNL     1       5.375   4.131  18.270  0.00  0.00    +0.000 A 
ATOM     29  H   UNL     1       3.361   3.613  15.853  0.00  0.00    +0.000 HD
ENDBRANCH  17  20
ENDBRANCH   1  17
TORSDOF 5
ENDMDL
MODEL 3
REMARK VINA RESULT:      -6.9      4.155      8.753
REMARK  Name = 
REMARK  6 active torsions:
REMARK  status: ('A' for Active; 'I' for Inactive)
REMARK    1  A    between atoms: C_1  and  C_2
REMARK    2  A    between atoms: C_3  and  C_4
REMARK    3  A    between atoms: C_4  and  N_5
REMARK    4  A    between atoms: C_8  and  N_9
REMARK    5  A    between atoms: C_12  and  O_13
REMARK    6  A    between atoms: C_16  and  O_17
REMARK                            x       y       z     vdW  Elec       q    Type
REMARK                         _______ _______ _______ _____ _____    ______ ____
ROOT
ATOM      1  N   UNL     1       1.153   9.045  19.900  0.00  0.00    +0.000 NA
ATOM      2  C   UNL     1       1.770   9.208  18.599  0.00  0.00    +0.000 C 
ATOM      3  C   UNL     1       2.061   7.934  17.814  0.00  0.00    +0.000 C 
ATOM      4  C   UNL     1       2.596   6.716  18.596  0.00  0.00    +0.000 C 
ATOM      5  C   UNL     1       2.214   6.676  20.100  0.00  0.00    +0.000 C 
ATOM      6  C   UNL     1       1.720   7.996  20.740  0.00  0.00    +0.000 C 
ENDROOT
BRANCH   4   7
ATOM      7  N   UNL     1       4.057   6.482  18.444  0.00  0.00    +0.000 NA
ATOM      8  C   UNL     1       4.486   6.462  17.042  0.00  0.00    +0.000 C 
ATOM      9  C   UNL     1       5.986   6.262  16.894  0.00  0.00    +0.000 C 
ATOM     10  C   UNL     1       6.467   5.047  17.673  0.00  0.00    +0.000 C 
ATOM     11  C   UNL     1       6.052   5.161  19.131  0.00  0.00    +0.000 C 
ATOM     12  C   UNL     1       4.544   5.373  19.272  0.00  0.00    +0.000 C 
BRANCH  10  13
ATOM     13  O   UNL     1       5.949   3.844  17.100  0.00  0.00    +0.000 OA
ATOM     14  H   UNL     1       5.093   4.033  16.704  0.00  0.00    +0.000 HD
ENDBRANCH  10  13
ENDBRANCH   4   7
BRANCH   5  15
ATOM     15  O   UNL     1       1.328   5.581  20.361  0.00  0.00    +0.000 OA
ATOM     16  H   UNL     1       1.891   4.817  20.556  0.00  0.00    +0.000 HD
ENDBRANCH   5  15
BRANCH   1  17
ATOM     17  C   UNL     1      -0.276   9.321  20.023  0.00  0.00    +0.000 C 
BRANCH  17  20
ATOM     18  C   UNL     1      -0.310   9.683  23.248  0.00  0.00    +0.000 C 
ATOM     19  C   UNL     1      -0.665  10.702  22.215  0.00  0.00    +0.000 A 
ATOM     20  C   UNL     1      -0.495  10.535  20.847  0.00  0.00    +0.000 A 
ATOM     21  N   UNL     1      -0.697  11.755  20.260  0.00  0.00    +0.000 N 
ATOM     22  C   UNL     1      -1.544  12.476  21.064  0.00  0.00    +0.000 A 
ATOM     23  C   UNL     1      -2.357  13.562  20.731  0.00  0.00    +0.000 A 
ATOM     24  C   UNL     1      -3.257  14.003  21.695  0.00  0.00    +0.000 A 
ATOM     25  C   UNL     1      -3.290  13.404  22.953  0.00  0.00    +0.000 A 
ATOM     26 CL   UNL     1      -4.468  13.938  24.091  0.00  0.00    +0.000 Cl
ATOM     27  C   UNL     1      -2.424  12.350  23.292  0.00  0.00    +0.000 A 
ATOM     28  C   UNL     1      -1.533  11.853  22.314  0.00  0.00    +0.000 A 
ATOM     29  H   UNL     1      -0.564  11.947  19.278  0.00  0.00    +0.000 HD
ENDBRANCH  17  20
ENDBRANCH   1  17
TORSDOF 5
ENDMDL
MODEL 4
REMARK VINA RESULT:      -6.9      8.645     10.794
REMARK  Name = 
REMARK  6 active torsions:
REMARK  status: ('A' for Active; 'I' for Inactive)
REMARK    1  A    between atoms: C_1  and  C_2
REMARK    2  A    between atoms: C_3  and  C_4
REMARK    3  A    between atoms: C_4  and  N_5
REMARK    4  A    between atoms: C_8  and  N_9
REMARK    5  A    between atoms: C_12  and  O_13
REMARK    6  A    between atoms: C_16  and  O_17
REMARK                            x       y       z     vdW  Elec       q    Type
REMARK                         _______ _______ _______ _____ _____    ______ ____
ROOT
ATOM      1  N   UNL     1       9.489  16.516  18.924  0.00  0.00    +0.000 NA
ATOM      2  C   UNL     1       8.818  16.434  20.205  0.00  0.00    +0.000 C 
ATOM      3  C   UNL     1       7.954  15.202  20.450  0.00  0.00    +0.000 C 
ATOM      4  C   UNL     1       7.096  14.683  19.277  0.00  0.00    +0.000 C 
ATOM      5  C   UNL     1       7.628  15.037  17.862  0.00  0.00    +0.000 C 
ATOM      6  C   UNL     1       8.675  16.172  17.763  0.00  0.00    +0.000 C 
ENDROOT
BRANCH   4   7
ATOM      7  N   UNL     1       5.652  15.029  19.370  0.00  0.00    +0.000 NA
ATOM      8  C   UNL     1       4.903  14.666  18.164  0.00  0.00    +0.000 C 
ATOM      9  C   UNL     1       3.421  14.985  18.281  0.00  0.00    +0.000 C 
ATOM     10  C   UNL     1       3.192  16.429  18.704  0.00  0.00    +0.000 C 
ATOM     11  C   UNL     1       3.938  16.722  19.995  0.00  0.00    +0.000 C 
ATOM     12  C   UNL     1       5.425  16.388  19.874  0.00  0.00    +0.000 C 
BRANCH  10  13
ATOM     13  O   UNL     1       3.609  17.327  17.672  0.00  0.00    +0.000 OA
ATOM     14  H   UNL     1       3.183  18.179  17.812  0.00  0.00    +0.000 HD
ENDBRANCH  10  13
ENDBRANCH   4   7
BRANCH   5  15
ATOM     15  O   UNL     1       8.046  13.852  17.174  0.00  0.00    +0.000 OA
ATOM     16  H   UNL     1       8.272  13.206  17.860  0.00  0.00    +0.000 HD
ENDBRANCH   5  15
BRANCH   1  17
ATOM     17  C   UNL     1      10.916  16.207  18.875  0.00  0.00    +0.000 C 
BRANCH  17  20
ATOM     18  C   UNL     1      11.530  13.974  16.601  0.00  0.00    +0.000 C 
ATOM     19  C   UNL     1      11.242  13.742  18.048  0.00  0.00    +0.000 A 
ATOM     20  C   UNL     1      11.128  14.744  19.002  0.00  0.00    +0.000 A 
ATOM     21  N   UNL     1      11.109  14.138  20.229  0.00  0.00    +0.000 N 
ATOM     22  C   UNL     1      10.604  12.871  20.068  0.00  0.00    +0.000 A 
ATOM     23  C   UNL     1      10.015  12.034  21.019  0.00  0.00    +0.000 A 
ATOM     24  C   UNL     1       9.423  10.864  20.557  0.00  0.00    +0.000 A 
ATOM     25  C   UNL     1       9.474  10.537  19.204  0.00  0.00    +0.000 A 
ATOM     26 CL   UNL     1       8.667   9.112  18.668  0.00  0.00    +0.000 Cl
ATOM     27  C   UNL     1      10.122  11.361  18.267  0.00  0.00    +0.000 A 
ATOM     28  C   UNL     1      10.691  12.579  18.705  0.00  0.00    +0.000 A 
ATOM     29  H   UNL     1      11.109  14.629  21.111  0.00  0.00    +0.000 HD
ENDBRANCH  17  20
ENDBRANCH   1  17
TORSDOF 5
ENDMDL
MODEL 5
REMARK VINA RESULT:      -6.9      4.853      7.713
REMARK  Name = 
REMARK  6 active torsions:
REMARK  status: ('A' for Active; 'I' for Inactive)
REMARK    1  A    between atoms: C_1  and  C_2
REMARK    2  A    between atoms: C_3  and  C_4
REMARK    3  A    between atoms: C_4  and  N_5
REMARK    4  A    between atoms: C_8  and  N_9
REMARK    5  A    between atoms: C_12  and  O_13
REMARK    6  A    between atoms: C_16  and  O_17
REMARK                            x       y       z     vdW  Elec       q    Type
REMARK                         _______ _______ _______ _____ _____    ______ ____
ROOT
ATOM      1  N   UNL     1      -0.194  12.826  19.479  0.00  0.00    +0.000 NA
ATOM      2  C   UNL     1      -1.213  12.832  20.508  0.00  0.00    +0.000 C 
ATOM      3  C   UNL     1      -2.364  11.846  20.341  0.00  0.00    +0.000 C 
ATOM      4  C   UNL     1      -2.931  11.640  18.921  0.00  0.00    +0.000 C 
ATOM      5  C   UNL     1      -1.941  11.939  17.763  0.00  0.00    +0.000 C 
ATOM      6  C   UNL     1      -0.685  12.777  18.106  0.00  0.00    +0.000 C 
ENDROOT
BRANCH   4   7
ATOM      7  N   UNL     1      -4.222  12.333  18.667  0.00  0.00    +0.000 NA
ATOM      8  C   UNL     1      -5.010  12.528  19.888  0.00  0.00    +0.000 C 
ATOM      9  C   UNL     1      -6.310  13.273  19.629  0.00  0.00    +0.000 C 
ATOM     10  C   UNL     1      -7.112  12.625  18.509  0.00  0.00    +0.000 C 
ATOM     11  C   UNL     1      -6.262  12.515  17.254  0.00  0.00    +0.000 C 
ATOM     12  C   UNL     1      -4.952  11.775  17.524  0.00  0.00    +0.000 C 
BRANCH  10  13
ATOM     13  O   UNL     1      -7.582  11.336  18.908  0.00  0.00    +0.000 OA
ATOM     14  H   UNL     1      -7.097  11.057  19.691  0.00  0.00    +0.000 HD
ENDBRANCH  10  13
ENDBRANCH   4   7
BRANCH   5  15
ATOM     15  O   UNL     1      -1.615  10.735  17.060  0.00  0.00    +0.000 OA
ATOM     16  H   UNL     1      -1.719  10.013  17.696  0.00  0.00    +0.000 HD
ENDBRANCH   5  15
BRANCH   1  17
ATOM     17  C   UNL     1       1.077  12.170  19.774  0.00  0.00    +0.000 C 
BRANCH  17  20
ATOM     18  C   UNL     1       0.241   9.737  21.752  0.00  0.00    +0.000 C 
ATOM     19  C   UNL     1       0.770   9.635  20.359  0.00  0.00    +0.000 A 
ATOM     20  C   UNL     1       0.975  10.714  19.510  0.00  0.00    +0.000 A 
ATOM     21  N   UNL     1       1.225  10.208  18.263  0.00  0.00    +0.000 N 
ATOM     22  C   UNL     1       1.773   8.959  18.414  0.00  0.00    +0.000 A 
ATOM     23  C   UNL     1       2.554   8.228  17.515  0.00  0.00    +0.000 A 
ATOM     24  C   UNL     1       3.134   7.054  17.983  0.00  0.00    +0.000 A 
ATOM     25  C   UNL     1       2.886   6.618  19.283  0.00  0.00    +0.000 A 
ATOM     26 CL   UNL     1       3.681   5.194  19.841  0.00  0.00    +0.000 Cl
ATOM     27  C   UNL     1       2.050   7.334  20.157  0.00  0.00    +0.000 A 
ATOM     28  C   UNL     1       1.487   8.554  19.720  0.00  0.00    +0.000 A 
ATOM     29  H   UNL     1       1.337  10.768  17.430  0.00  0.00    +0.000 HD
ENDBRANCH  17  20
ENDBRANCH   1  17
TORSDOF 5
ENDMDL
MODEL 6
REMARK VINA RESULT:      -6.9      5.076      9.739
REMARK  Name = 
REMARK  6 active torsions:
REMARK  status: ('A' for Active; 'I' for Inactive)
REMARK    1  A    between atoms: C_1  and  C_2
REMARK    2  A    between atoms: C_3  and  C_4
REMARK    3  A    between atoms: C_4  and  N_5
REMARK    4  A    between atoms: C_8  and  N_9
REMARK    5  A    between atoms: C_12  and  O_13
REMARK    6  A    between atoms: C_16  and  O_17
REMARK                            x       y       z     vdW  Elec       q    Type
REMARK                         _______ _______ _______ _____ _____    ______ ____
ROOT
ATOM      1  N   UNL     1      -0.565  10.532  19.647  0.00  0.00    +0.000 NA
ATOM      2  C   UNL     1      -0.162   9.674  20.743  0.00  0.00    +0.000 C 
ATOM      3  C   UNL     1       1.265   9.140  20.707  0.00  0.00    +0.000 C 
ATOM      4  C   UNL     1       1.830   8.694  19.342  0.00  0.00    +0.000 C 
ATOM      5  C   UNL     1       1.184   9.374  18.105  0.00  0.00    +0.000 C 
ATOM      6  C   UNL     1      -0.178  10.079  18.316  0.00  0.00    +0.000 C 
ENDROOT
BRANCH   4   7
ATOM      7  N   UNL     1       1.865   7.220  19.143  0.00  0.00    +0.000 NA
ATOM      8  C   UNL     1       1.986   6.480  20.402  0.00  0.00    +0.000 C 
ATOM      9  C   UNL     1       1.981   4.974  20.196  0.00  0.00    +0.000 C 
ATOM     10  C   UNL     1       3.012   4.548  19.161  0.00  0.00    +0.000 C 
ATOM     11  C   UNL     1       2.789   5.299  17.859  0.00  0.00    +0.000 C 
ATOM     12  C   UNL     1       2.785   6.813  18.076  0.00  0.00    +0.000 C 
BRANCH  10  13
ATOM     13  O   UNL     1       4.337   4.776  19.648  0.00  0.00    +0.000 OA
ATOM     14  H   UNL     1       4.662   3.966  20.053  0.00  0.00    +0.000 HD
ENDBRANCH  10  13
ENDBRANCH   4   7
BRANCH   5  15
ATOM     15  O   UNL     1       2.135  10.217  17.444  0.00  0.00    +0.000 OA
ATOM     16  H   UNL     1       2.474   9.707  16.693  0.00  0.00    +0.000 HD
ENDBRANCH   5  15
BRANCH   1  17
ATOM     17  C   UNL     1      -0.626  11.972  19.888  0.00  0.00    +0.000 C 
BRANCH  17  20
ATOM     18  C   UNL     1      -2.388  13.571  22.094  0.00  0.00    +0.000 C 
ATOM     19  C   UNL     1      -2.860  12.990  20.802  0.00  0.00    +0.000 A 
ATOM     20  C   UNL     1      -2.031  12.442  19.832  0.00  0.00    +0.000 A 
ATOM     21  N   UNL     1      -2.791  12.248  18.710  0.00  0.00    +0.000 N 
ATOM     22  C   UNL     1      -4.093  12.069  19.106  0.00  0.00    +0.000 A 
ATOM     23  C   UNL     1      -5.142  11.450  18.420  0.00  0.00    +0.000 A 
ATOM     24  C   UNL     1      -6.325  11.243  19.120  0.00  0.00    +0.000 A 
ATOM     25  C   UNL     1      -6.453  11.692  20.433  0.00  0.00    +0.000 A 
ATOM     26 CL   UNL     1      -7.914  11.351  21.283  0.00  0.00    +0.000 Cl
ATOM     27  C   UNL     1      -5.409  12.365  21.090  0.00  0.00    +0.000 A 
ATOM     28  C   UNL     1      -4.180  12.547  20.415  0.00  0.00    +0.000 A 
ATOM     29  H   UNL     1      -2.431  11.931  17.822  0.00  0.00    +0.000 HD
ENDBRANCH  17  20
ENDBRANCH   1  17
TORSDOF 5
ENDMDL
MODEL 7
REMARK VINA RESULT:      -6.8      4.329      8.591
REMARK  Name = 
REMARK  6 active torsions:
REMARK  status: ('A' for Active; 'I' for Inactive)
REMARK    1  A    between atoms: C_1  and  C_2
REMARK    2  A    between atoms: C_3  and  C_4
REMARK    3  A    between atoms: C_4  and  N_5
REMARK    4  A    between atoms: C_8  and  N_9
REMARK    5  A    between atoms: C_12  and  O_13
REMARK    6  A    between atoms: C_16  and  O_17
REMARK                            x       y       z     vdW  Elec       q    Type
REMARK                         _______ _______ _______ _____ _____    ______ ____
ROOT
ATOM      1  N   UNL     1       0.566   9.300  19.390  0.00  0.00    +0.000 NA
ATOM      2  C   UNL     1       0.573   8.516  20.609  0.00  0.00    +0.000 C 
ATOM      3  C   UNL     1       1.841   7.723  20.908  0.00  0.00    +0.000 C 
ATOM      4  C   UNL     1       2.543   7.022  19.726  0.00  0.00    +0.000 C 
ATOM      5  C   UNL     1       2.292   7.660  18.333  0.00  0.00    +0.000 C 
ATOM      6  C   UNL     1       1.091   8.628  18.206  0.00  0.00    +0.000 C 
ENDROOT
BRANCH   4   7
ATOM      7  N   UNL     1       2.308   5.554  19.655  0.00  0.00    +0.000 NA
ATOM      8  C   UNL     1       1.222   5.110  20.533  0.00  0.00    +0.000 C 
ATOM      9  C   UNL     1       0.960   3.616  20.426  0.00  0.00    +0.000 C 
ATOM     10  C   UNL     1       2.236   2.810  20.615  0.00  0.00    +0.000 C 
ATOM     11  C   UNL     1       3.297   3.271  19.629  0.00  0.00    +0.000 C 
ATOM     12  C   UNL     1       3.548   4.776  19.735  0.00  0.00    +0.000 C 
BRANCH  10  13
ATOM     13  O   UNL     1       2.715   2.932  21.956  0.00  0.00    +0.000 OA
ATOM     14  H   UNL     1       3.652   2.713  21.972  0.00  0.00    +0.000 HD
ENDBRANCH  10  13
ENDBRANCH   4   7
BRANCH   5  15
ATOM     15  O   UNL     1       3.502   8.226  17.817  0.00  0.00    +0.000 OA
ATOM     16  H   UNL     1       3.578   7.915  16.903  0.00  0.00    +0.000 HD
ENDBRANCH   5  15
BRANCH   1  17
ATOM     17  C   UNL     1       0.762  10.743  19.500  0.00  0.00    +0.000 C 
BRANCH  17  20
ATOM     18  C   UNL     1      -1.512  12.306  21.209  0.00  0.00    +0.000 C 
ATOM     19  C   UNL     1      -1.520  12.007  19.745  0.00  0.00    +0.000 A 
ATOM     20  C   UNL     1      -0.454  11.461  19.044  0.00  0.00    +0.000 A 
ATOM     21  N   UNL     1      -0.747  11.566  17.711  0.00  0.00    +0.000 N 
ATOM     22  C   UNL     1      -2.113  11.570  17.577  0.00  0.00    +0.000 A 
ATOM     23  C   UNL     1      -2.886  11.251  16.457  0.00  0.00    +0.000 A 
ATOM     24  C   UNL     1      -4.262  11.163  16.637  0.00  0.00    +0.000 A 
ATOM     25  C   UNL     1      -4.827  11.438  17.881  0.00  0.00    +0.000 A 
ATOM     26 CL   UNL     1      -6.529  11.249  18.074  0.00  0.00    +0.000 Cl
ATOM     27  C   UNL     1      -4.041  11.814  18.984  0.00  0.00    +0.000 A 
ATOM     28  C   UNL     1      -2.636  11.866  18.838  0.00  0.00    +0.000 A 
ATOM     29  H   UNL     1      -0.115  11.317  16.964  0.00  0.00    +0.000 HD
ENDBRANCH  17  20
ENDBRANCH   1  17
TORSDOF 5
ENDMDL
MODEL 8
REMARK VINA RESULT:      -6.8      3.106      4.949
REMARK  Name = 
REMARK  6 active torsions:
REMARK  status: ('A' for Active; 'I' for Inactive)
REMARK    1  A    between atoms: C_1  and  C_2
REMARK    2  A    between atoms: C_3  and  C_4
REMARK    3  A    between atoms: C_4  and  N_5
REMARK    4  A    between atoms: C_8  and  N_9
REMARK    5  A    between atoms: C_12  and  O_13
REMARK    6  A    between atoms: C_16  and  O_17
REMARK                            x       y       z     vdW  Elec       q    Type
REMARK                         _______ _______ _______ _____ _____    ______ ____
ROOT
ATOM      1  N   UNL     1       0.637   8.563  20.692  0.00  0.00    +0.000 NA
ATOM      2  C   UNL     1       0.614   9.818  19.969  0.00  0.00    +0.000 C 
ATOM      3  C   UNL     1       0.609  11.092  20.805  0.00  0.00    +0.000 C 
ATOM      4  C   UNL     1      -0.256  11.108  22.083  0.00  0.00    +0.000 C 
ATOM      5  C   UNL     1      -0.524   9.716  22.718  0.00  0.00    +0.000 C 
ATOM      6  C   UNL     1      -0.272   8.474  21.829  0.00  0.00    +0.000 C 
ENDROOT
BRANCH   4   7
ATOM      7  N   UNL     1      -1.538  11.852  21.949  0.00  0.00    +0.000 NA
ATOM      8  C   UNL     1      -1.380  13.131  21.252  0.00  0.00    +0.000 C 
ATOM      9  C   UNL     1      -2.699  13.869  21.082  0.00  0.00    +0.000 C 
ATOM     10  C   UNL     1      -3.435  14.008  22.407  0.00  0.00    +0.000 C 
ATOM     11  C   UNL     1      -3.628  12.643  23.045  0.00  0.00    +0.000 C 
ATOM     12  C   UNL     1      -2.299  11.902  23.202  0.00  0.00    +0.000 C 
BRANCH  10  13
ATOM     13  O   UNL     1      -2.721  14.875  23.291  0.00  0.00    +0.000 OA
ATOM     14  H   UNL     1      -3.351  15.448  23.739  0.00  0.00    +0.000 HD
ENDBRANCH  10  13
ENDBRANCH   4   7
BRANCH   5  15
ATOM     15  O   UNL     1       0.125   9.614  23.990  0.00  0.00    +0.000 OA
ATOM     16  H   UNL     1       0.838  10.270  23.984  0.00  0.00    +0.000 HD
ENDBRANCH   5  15
BRANCH   1  17
ATOM     17  C   UNL     1       1.903   7.839  20.771  0.00  0.00    +0.000 C 
BRANCH  17  20
ATOM     18  C   UNL     1       1.554   4.695  20.043  0.00  0.00    +0.000 C 
ATOM     19  C   UNL     1       2.168   5.762  19.196  0.00  0.00    +0.000 A 
ATOM     20  C   UNL     1       2.160   7.116  19.501  0.00  0.00    +0.000 A 
ATOM     21  N   UNL     1       2.589   7.787  18.388  0.00  0.00    +0.000 N 
ATOM     22  C   UNL     1       3.406   6.945  17.674  0.00  0.00    +0.000 A 
ATOM     23  C   UNL     1       4.384   7.263  16.730  0.00  0.00    +0.000 A 
ATOM     24  C   UNL     1       5.196   6.228  16.281  0.00  0.00    +0.000 A 
ATOM     25  C   UNL     1       4.988   4.926  16.729  0.00  0.00    +0.000 A 
ATOM     26 CL   UNL     1       6.063   3.688  16.198  0.00  0.00    +0.000 Cl
ATOM     27  C   UNL     1       3.960   4.611  17.636  0.00  0.00    +0.000 A 
ATOM     28  C   UNL     1       3.151   5.654  18.142  0.00  0.00    +0.000 A 
ATOM     29  H   UNL     1       2.612   8.793  18.298  0.00  0.00    +0.000 HD
ENDBRANCH  17  20
ENDBRANCH   1  17
TORSDOF 5
ENDMDL
MODEL 9
REMARK VINA RESULT:      -6.8      4.148      8.683
REMARK  Name = 
REMARK  6 active torsions:
REMARK  status: ('A' for Active; 'I' for Inactive)
REMARK    1  A    between atoms: C_1  and  C_2
REMARK    2  A    between atoms: C_3  and  C_4
REMARK    3  A    between atoms: C_4  and  N_5
REMARK    4  A    between atoms: C_8  and  N_9
REMARK    5  A    between atoms: C_12  and  O_13
REMARK    6  A    between atoms: C_16  and  O_17
REMARK                            x       y       z     vdW  Elec       q    Type
REMARK                         _______ _______ _______ _____ _____    ______ ____
ROOT
ATOM      1  N   UNL     1       1.002   9.431  18.898  0.00  0.00    +0.000 NA
ATOM      2  C   UNL     1       0.771   8.747  20.154  0.00  0.00    +0.000 C 
ATOM      3  C   UNL     1       1.841   7.758  20.604  0.00  0.00    +0.000 C 
ATOM      4  C   UNL     1       2.484   6.859  19.527  0.00  0.00    +0.000 C 
ATOM      5  C   UNL     1       2.461   7.433  18.085  0.00  0.00    +0.000 C 
ATOM      6  C   UNL     1       1.476   8.594  17.802  0.00  0.00    +0.000 C 
ENDROOT
BRANCH   4   7
ATOM      7  N   UNL     1       1.983   5.458  19.516  0.00  0.00    +0.000 NA
ATOM      8  C   UNL     1       1.986   4.844  20.847  0.00  0.00    +0.000 C 
ATOM      9  C   UNL     1       1.436   3.427  20.837  0.00  0.00    +0.000 C 
ATOM     10  C   UNL     1       2.128   2.566  19.791  0.00  0.00    +0.000 C 
ATOM     11  C   UNL     1       2.029   3.223  18.424  0.00  0.00    +0.000 C 
ATOM     12  C   UNL     1       2.574   4.651  18.444  0.00  0.00    +0.000 C 
BRANCH  10  13
ATOM     13  O   UNL     1       3.497   2.351  20.142  0.00  0.00    +0.000 OA
ATOM     14  H   UNL     1       3.980   2.080  19.355  0.00  0.00    +0.000 HD
ENDBRANCH  10  13
ENDBRANCH   4   7
BRANCH   5  15
ATOM     15  O   UNL     1       3.790   7.730  17.644  0.00  0.00    +0.000 OA
ATOM     16  H   UNL     1       3.739   8.581  17.184  0.00  0.00    +0.000 HD
ENDBRANCH   5  15
BRANCH   1  17
ATOM     17  C   UNL     1       1.457  10.818  18.945  0.00  0.00    +0.000 C 
BRANCH  17  20
ATOM     18  C   UNL     1       0.783  13.330  20.886  0.00  0.00    +0.000 C 
ATOM     19  C   UNL     1      -0.102  12.721  19.848  0.00  0.00    +0.000 A 
ATOM     20  C   UNL     1       0.293  11.739  18.949  0.00  0.00    +0.000 A 
ATOM     21  N   UNL     1      -0.700  11.619  18.015  0.00  0.00    +0.000 N 
ATOM     22  C   UNL     1      -1.882  11.995  18.603  0.00  0.00    +0.000 A 
ATOM     23  C   UNL     1      -3.189  11.672  18.230  0.00  0.00    +0.000 A 
ATOM     24  C   UNL     1      -4.208  12.038  19.101  0.00  0.00    +0.000 A 
ATOM     25  C   UNL     1      -3.918  12.744  20.267  0.00  0.00    +0.000 A 
ATOM     26 CL   UNL     1      -5.205  13.115  21.350  0.00  0.00    +0.000 Cl
ATOM     27  C   UNL     1      -2.603  13.113  20.599  0.00  0.00    +0.000 A 
ATOM     28  C   UNL     1      -1.544  12.712  19.753  0.00  0.00    +0.000 A 
ATOM     29  H   UNL     1      -0.648  11.031  17.196  0.00  0.00    +0.000 HD
ENDBRANCH  17  20
ENDBRANCH   1  17
TORSDOF 5
ENDMDL
