MODEL 1
REMARK VINA RESULT:      -8.1      0.000      0.000
REMARK  Name = 
REMARK  7 active torsions:
REMARK  status: ('A' for Active; 'I' for Inactive)
REMARK    1  A    between atoms: C_1  and  C_2
REMARK    2  A    between atoms: C_2  and  C_3
REMARK    3  A    between atoms: C_3  and  N_4
REMARK    4  A    between atoms: C_3  and  C_29
REMARK    5  A    between atoms: C_5  and  C_7
REMARK    6  A    between atoms: C_9  and  C_10
REMARK    7  A    between atoms: C_16  and  C_17
REMARK                            x       y       z     vdW  Elec       q    Type
REMARK                         _______ _______ _______ _____ _____    ______ ____
ROOT
ATOM      1  C   UNL     1       1.446  10.301  18.579  0.00  0.00    +0.000 A 
ATOM      2  C   UNL     1       2.200   9.428  17.809  0.00  0.00    +0.000 A 
ATOM      3  C   UNL     1       2.353   8.160  18.472  0.00  0.00    +0.000 A 
ATOM      4  C   UNL     1       1.710   8.323  19.711  0.00  0.00    +0.000 A 
ATOM      5  N   UNL     1       1.046   9.544  19.661  0.00  0.00    +0.000 N 
ATOM      6  C   UNL     1       0.141  10.003  20.715  0.00  0.00    +0.000 C 
ATOM      7  C   UNL     1      -0.177   8.864  21.656  0.00  0.00    +0.000 C 
ATOM      8  O   UNL     1       1.076   8.308  22.059  0.00  0.00    +0.000 OA
ATOM      9  C   UNL     1       1.617   7.518  20.989  0.00  0.00    +0.000 C 
ENDROOT
BRANCH   3  10
ATOM     10  C   UNL     1       3.158   7.071  17.852  0.00  0.00    +0.000 C 
ATOM     11  O   UNL     1       4.089   7.373  17.104  0.00  0.00    +0.000 OA
ATOM     12  N   UNL     1       2.833   5.736  18.031  0.00  0.00    +0.000 N 
ATOM     13  C   UNL     1       1.576   5.207  18.467  0.00  0.00    +0.000 C 
ATOM     14  C   UNL     1       1.936   3.824  18.934  0.00  0.00    +0.000 C 
ATOM     15  C   UNL     1       2.809   3.359  17.778  0.00  0.00    +0.000 C 
ATOM     16  C   UNL     1       3.524   4.653  17.301  0.00  0.00    +0.000 C 
BRANCH  16  17
ATOM     17  C   UNL     1       5.020   4.521  17.469  0.00  0.00    +0.000 A 
ATOM     18  C   UNL     1       5.564   4.598  18.753  0.00  0.00    +0.000 A 
ATOM     19  N   UNL     1       6.893   4.664  18.994  0.00  0.00    +0.000 NA
ATOM     20  C   UNL     1       7.673   4.624  17.893  0.00  0.00    +0.000 A 
ATOM     21  C   UNL     1       7.150   4.530  16.617  0.00  0.00    +0.000 A 
ATOM     22  N   UNL     1       5.819   4.486  16.369  0.00  0.00    +0.000 NA
ENDBRANCH  16  17
ENDBRANCH   3  10
BRANCH   1  24
ATOM     23  N   UNL     1       2.144  12.592  18.415  0.00  0.00    +0.000 N 
ATOM     24  C   UNL     1       1.091  11.699  18.393  0.00  0.00    +0.000 C 
ATOM     25  O   UNL     1      -0.066  12.079  18.252  0.00  0.00    +0.000 OA
ATOM     26  H   UNL     1       3.069  12.250  18.615  0.00  0.00    +0.000 HD
BRANCH  23  27
ATOM     27  C   UNL     1       1.919  14.031  18.338  0.00  0.00    +0.000 C 
BRANCH  27  28
ATOM     28  C   UNL     1       1.406  14.553  19.672  0.00  0.00    +0.000 A 
ATOM     29  C   UNL     1       2.149  14.401  20.857  0.00  0.00    +0.000 A 
ATOM     30  C   UNL     1       1.687  14.949  22.056  0.00  0.00    +0.000 A 
ATOM     31  C   UNL     1       0.480  15.638  22.080  0.00  0.00    +0.000 A 
ATOM     32  F   UNL     1       0.051  16.174  23.229  0.00  0.00    +0.000 F 
ATOM     33  C   UNL     1      -0.283  15.783  20.930  0.00  0.00    +0.000 A 
ATOM     34  C   UNL     1       0.186  15.241  19.738  0.00  0.00    +0.000 A 
ATOM     35  F   UNL     1      -0.553  15.406  18.632  0.00  0.00    +0.000 F 
ENDBRANCH  27  28
BRANCH  27  37
ATOM     36  C   UNL     1       2.961  16.269  17.573  0.00  0.00    +0.000 C 
ATOM     37  C   UNL     1       3.192  14.807  17.929  0.00  0.00    +0.000 C 
ENDBRANCH  27  37
ENDBRANCH  23  27
ENDBRANCH   1  24
TORSDOF 6
ENDMDL
MODEL 2
REMARK VINA RESULT:      -8.0      1.873      2.189
REMARK  Name = 
REMARK  7 active torsions:
REMARK  status: ('A' for Active; 'I' for Inactive)
REMARK    1  A    between atoms: C_1  and  C_2
REMARK    2  A    between atoms: C_2  and  C_3
REMARK    3  A    between atoms: C_3  and  N_4
REMARK    4  A    between atoms: C_3  and  C_29
REMARK    5  A    between atoms: C_5  and  C_7
REMARK    6  A    between atoms: C_9  and  C_10
REMARK    7  A    between atoms: C_16  and  C_17
REMARK                            x       y       z     vdW  Elec       q    Type
REMARK                         _______ _______ _______ _____ _____    ______ ____
ROOT
ATOM      1  C   UNL     1       0.379  10.089  18.758  0.00  0.00    +0.000 A 
ATOM      2  C   UNL     1       1.266   9.353  17.986  0.00  0.00    +0.000 A 
ATOM      3  C   UNL     1       1.899   8.326  18.770  0.00  0.00    +0.000 A 
ATOM      4  C   UNL     1       1.402   8.512  20.072  0.00  0.00    +0.000 A 
ATOM      5  N   UNL     1       0.384   9.454  19.983  0.00  0.00    +0.000 N 
ATOM      6  C   UNL     1      -0.476   9.808  21.112  0.00  0.00    +0.000 C 
ATOM      7  C   UNL     1      -0.291   8.813  22.235  0.00  0.00    +0.000 C 
ATOM      8  O   UNL     1       1.116   8.731  22.477  0.00  0.00    +0.000 OA
ATOM      9  C   UNL     1       1.737   7.956  21.439  0.00  0.00    +0.000 C 
ENDROOT
BRANCH   3  10
ATOM     10  C   UNL     1       2.922   7.429  18.164  0.00  0.00    +0.000 C 
ATOM     11  O   UNL     1       3.907   7.933  17.623  0.00  0.00    +0.000 OA
ATOM     12  N   UNL     1       2.749   6.055  18.120  0.00  0.00    +0.000 N 
ATOM     13  C   UNL     1       1.519   5.337  18.274  0.00  0.00    +0.000 C 
ATOM     14  C   UNL     1       1.981   3.949  18.621  0.00  0.00    +0.000 C 
ATOM     15  C   UNL     1       3.070   3.749  17.578  0.00  0.00    +0.000 C 
ATOM     16  C   UNL     1       3.676   5.167  17.389  0.00  0.00    +0.000 C 
BRANCH  16  17
ATOM     17  C   UNL     1       5.134   5.176  17.785  0.00  0.00    +0.000 A 
ATOM     18  C   UNL     1       5.464   5.150  19.141  0.00  0.00    +0.000 A 
ATOM     19  N   UNL     1       6.723   5.327  19.603  0.00  0.00    +0.000 NA
ATOM     20  C   UNL     1       7.659   5.507  18.648  0.00  0.00    +0.000 A 
ATOM     21  C   UNL     1       7.351   5.517  17.299  0.00  0.00    +0.000 A 
ATOM     22  N   UNL     1       6.088   5.362  16.834  0.00  0.00    +0.000 NA
ENDBRANCH  16  17
ENDBRANCH   3  10
BRANCH   1  24
ATOM     23  N   UNL     1      -0.126  12.395  19.192  0.00  0.00    +0.000 N 
ATOM     24  C   UNL     1      -0.423  11.265  18.458  0.00  0.00    +0.000 C 
ATOM     25  O   UNL     1      -1.326  11.260  17.629  0.00  0.00    +0.000 OA
ATOM     26  H   UNL     1       0.565  12.336  19.920  0.00  0.00    +0.000 HD
BRANCH  23  27
ATOM     27  C   UNL     1      -0.918  13.614  19.061  0.00  0.00    +0.000 C 
BRANCH  27  28
ATOM     28  C   UNL     1      -1.714  13.862  20.334  0.00  0.00    +0.000 A 
ATOM     29  C   UNL     1      -1.276  14.775  21.310  0.00  0.00    +0.000 A 
ATOM     30  C   UNL     1      -2.058  15.034  22.438  0.00  0.00    +0.000 A 
ATOM     31  C   UNL     1      -3.271  14.376  22.601  0.00  0.00    +0.000 A 
ATOM     32  F   UNL     1      -4.024  14.641  23.676  0.00  0.00    +0.000 F 
ATOM     33  C   UNL     1      -3.716  13.453  21.664  0.00  0.00    +0.000 A 
ATOM     34  C   UNL     1      -2.935  13.205  20.540  0.00  0.00    +0.000 A 
ATOM     35  F   UNL     1      -3.387  12.326  19.636  0.00  0.00    +0.000 F 
ENDBRANCH  27  28
BRANCH  27  37
ATOM     36  C   UNL     1       1.453  14.599  18.771  0.00  0.00    +0.000 C 
ATOM     37  C   UNL     1      -0.048  14.851  18.740  0.00  0.00    +0.000 C 
ENDBRANCH  27  37
ENDBRANCH  23  27
ENDBRANCH   1  24
TORSDOF 6
ENDMDL
MODEL 3
REMARK VINA RESULT:      -8.0      0.921      1.004
REMARK  Name = 
REMARK  7 active torsions:
REMARK  status: ('A' for Active; 'I' for Inactive)
REMARK    1  A    between atoms: C_1  and  C_2
REMARK    2  A    between atoms: C_2  and  C_3
REMARK    3  A    between atoms: C_3  and  N_4
REMARK    4  A    between atoms: C_3  and  C_29
REMARK    5  A    between atoms: C_5  and  C_7
REMARK    6  A    between atoms: C_9  and  C_10
REMARK    7  A    between atoms: C_16  and  C_17
REMARK                            x       y       z     vdW  Elec       q    Type
REMARK                         _______ _______ _______ _____ _____    ______ ____
ROOT
ATOM      1  C   UNL     1       1.025  10.257  18.685  0.00  0.00    +0.000 A 
ATOM      2  C   UNL     1       1.848   9.451  17.914  0.00  0.00    +0.000 A 
ATOM      3  C   UNL     1       2.172   8.234  18.610  0.00  0.00    +0.000 A 
ATOM      4  C   UNL     1       1.558   8.366  19.868  0.00  0.00    +0.000 A 
ATOM      5  N   UNL     1       0.754   9.498  19.805  0.00  0.00    +0.000 N 
ATOM      6  C   UNL     1      -0.161   9.887  20.878  0.00  0.00    +0.000 C 
ATOM      7  C   UNL     1      -0.311   8.753  21.867  0.00  0.00    +0.000 C 
ATOM      8  O   UNL     1       1.013   8.361  22.238  0.00  0.00    +0.000 OA
ATOM      9  C   UNL     1       1.605   7.601  21.173  0.00  0.00    +0.000 C 
ENDROOT
BRANCH   3  10
ATOM     10  C   UNL     1       3.078   7.224  17.995  0.00  0.00    +0.000 C 
ATOM     11  O   UNL     1       4.064   7.615  17.368  0.00  0.00    +0.000 OA
ATOM     12  N   UNL     1       2.791   5.869  18.039  0.00  0.00    +0.000 N 
ATOM     13  C   UNL     1       1.520   5.266  18.306  0.00  0.00    +0.000 C 
ATOM     14  C   UNL     1       1.890   3.864  18.701  0.00  0.00    +0.000 C 
ATOM     15  C   UNL     1       2.889   3.520  17.608  0.00  0.00    +0.000 C 
ATOM     16  C   UNL     1       3.594   4.871  17.303  0.00  0.00    +0.000 C 
BRANCH  16  17
ATOM     17  C   UNL     1       5.070   4.776  17.609  0.00  0.00    +0.000 A 
ATOM     18  C   UNL     1       5.490   4.864  18.938  0.00  0.00    +0.000 A 
ATOM     19  N   UNL     1       6.789   4.963  19.302  0.00  0.00    +0.000 NA
ATOM     20  C   UNL     1       7.669   4.944  18.279  0.00  0.00    +0.000 A 
ATOM     21  C   UNL     1       7.270   4.839  16.959  0.00  0.00    +0.000 A 
ATOM     22  N   UNL     1       5.969   4.763  16.589  0.00  0.00    +0.000 NA
ENDBRANCH  16  17
ENDBRANCH   3  10
BRANCH   1  24
ATOM     23  N   UNL     1       1.271  12.628  18.972  0.00  0.00    +0.000 N 
ATOM     24  C   UNL     1       0.502  11.598  18.469  0.00  0.00    +0.000 C 
ATOM     25  O   UNL     1      -0.564  11.813  17.904  0.00  0.00    +0.000 OA
ATOM     26  H   UNL     1       2.096  12.407  19.502  0.00  0.00    +0.000 HD
BRANCH  23  27
ATOM     27  C   UNL     1       0.815  14.013  18.911  0.00  0.00    +0.000 C 
BRANCH  27  28
ATOM     28  C   UNL     1       0.038  14.366  20.171  0.00  0.00    +0.000 A 
ATOM     29  C   UNL     1       0.220  13.656  21.372  0.00  0.00    +0.000 A 
ATOM     30  C   UNL     1      -0.455  14.042  22.531  0.00  0.00    +0.000 A 
ATOM     31  C   UNL     1      -1.321  15.129  22.495  0.00  0.00    +0.000 A 
ATOM     32  F   UNL     1      -1.953  15.504  23.614  0.00  0.00    +0.000 F 
ATOM     33  C   UNL     1      -1.536  15.832  21.318  0.00  0.00    +0.000 A 
ATOM     34  C   UNL     1      -0.855  15.446  20.169  0.00  0.00    +0.000 A 
ATOM     35  F   UNL     1      -1.059  16.148  19.045  0.00  0.00    +0.000 F 
ENDBRANCH  27  28
BRANCH  27  37
ATOM     36  C   UNL     1       3.248  14.403  18.133  0.00  0.00    +0.000 C 
ATOM     37  C   UNL     1       1.982  15.010  18.721  0.00  0.00    +0.000 C 
ENDBRANCH  27  37
ENDBRANCH  23  27
ENDBRANCH   1  24
TORSDOF 6
ENDMDL
MODEL 4
REMARK VINA RESULT:      -7.9      1.869      2.343
REMARK  Name = 
REMARK  7 active torsions:
REMARK  status: ('A' for Active; 'I' for Inactive)
REMARK    1  A    between atoms: C_1  and  C_2
REMARK    2  A    between atoms: C_2  and  C_3
REMARK    3  A    between atoms: C_3  and  N_4
REMARK    4  A    between atoms: C_3  and  C_29
REMARK    5  A    between atoms: C_5  and  C_7
REMARK    6  A    between atoms: C_9  and  C_10
REMARK    7  A    between atoms: C_16  and  C_17
REMARK                            x       y       z     vdW  Elec       q    Type
REMARK                         _______ _______ _______ _____ _____    ______ ____
ROOT
ATOM      1  C   UNL     1       0.260  10.417  19.196  0.00  0.00    +0.000 A 
ATOM      2  C   UNL     1       0.998   9.491  18.472  0.00  0.00    +0.000 A 
ATOM      3  C   UNL     1       1.590   8.513  19.345  0.00  0.00    +0.000 A 
ATOM      4  C   UNL     1       1.230   8.923  20.640  0.00  0.00    +0.000 A 
ATOM      5  N   UNL     1       0.308   9.953  20.494  0.00  0.00    +0.000 N 
ATOM      6  C   UNL     1      -0.410  10.546  21.622  0.00  0.00    +0.000 C 
ATOM      7  C   UNL     1      -0.228   9.694  22.857  0.00  0.00    +0.000 C 
ATOM      8  O   UNL     1       1.178   9.488  23.005  0.00  0.00    +0.000 OA
ATOM      9  C   UNL     1       1.625   8.519  22.044  0.00  0.00    +0.000 C 
ENDROOT
BRANCH   3  10
ATOM     10  C   UNL     1       2.460   7.435  18.798  0.00  0.00    +0.000 C 
ATOM     11  O   UNL     1       3.086   7.648  17.758  0.00  0.00    +0.000 OA
ATOM     12  N   UNL     1       2.515   6.179  19.381  0.00  0.00    +0.000 N 
ATOM     13  C   UNL     1       1.561   5.607  20.283  0.00  0.00    +0.000 C 
ATOM     14  C   UNL     1       2.341   4.504  20.942  0.00  0.00    +0.000 C 
ATOM     15  C   UNL     1       2.999   3.865  19.729  0.00  0.00    +0.000 C 
ATOM     16  C   UNL     1       3.251   5.056  18.765  0.00  0.00    +0.000 C 
BRANCH  16  17
ATOM     17  C   UNL     1       4.730   5.226  18.510  0.00  0.00    +0.000 A 
ATOM     18  C   UNL     1       5.238   4.905  17.250  0.00  0.00    +0.000 A 
ATOM     19  N   UNL     1       6.562   4.857  16.972  0.00  0.00    +0.000 NA
ATOM     20  C   UNL     1       7.371   5.171  18.006  0.00  0.00    +0.000 A 
ATOM     21  C   UNL     1       6.882   5.508  19.255  0.00  0.00    +0.000 A 
ATOM     22  N   UNL     1       5.559   5.535  19.543  0.00  0.00    +0.000 NA
ENDBRANCH  16  17
ENDBRANCH   3  10
BRANCH   1  24
ATOM     23  N   UNL     1      -0.067  12.782  19.445  0.00  0.00    +0.000 N 
ATOM     24  C   UNL     1      -0.442  11.626  18.793  0.00  0.00    +0.000 C 
ATOM     25  O   UNL     1      -1.332  11.627  17.949  0.00  0.00    +0.000 OA
ATOM     26  H   UNL     1       0.609  12.725  20.189  0.00  0.00    +0.000 HD
BRANCH  23  27
ATOM     27  C   UNL     1      -0.758  14.045  19.207  0.00  0.00    +0.000 C 
BRANCH  27  28
ATOM     28  C   UNL     1      -1.518  14.470  20.455  0.00  0.00    +0.000 A 
ATOM     29  C   UNL     1      -1.011  15.450  21.328  0.00  0.00    +0.000 A 
ATOM     30  C   UNL     1      -1.760  15.870  22.430  0.00  0.00    +0.000 A 
ATOM     31  C   UNL     1      -3.008  15.308  22.671  0.00  0.00    +0.000 A 
ATOM     32  F   UNL     1      -3.727  15.727  23.719  0.00  0.00    +0.000 F 
ATOM     33  C   UNL     1      -3.521  14.323  21.837  0.00  0.00    +0.000 A 
ATOM     34  C   UNL     1      -2.773  13.914  20.739  0.00  0.00    +0.000 A 
ATOM     35  F   UNL     1      -3.291  12.977  19.933  0.00  0.00    +0.000 F 
ENDBRANCH  27  28
BRANCH  27  37
ATOM     36  C   UNL     1       1.671  14.763  18.691  0.00  0.00    +0.000 C 
ATOM     37  C   UNL     1       0.207  15.173  18.774  0.00  0.00    +0.000 C 
ENDBRANCH  27  37
ENDBRANCH  23  27
ENDBRANCH   1  24
TORSDOF 6
ENDMDL
MODEL 5
REMARK VINA RESULT:      -7.9      4.054      9.999
REMARK  Name = 
REMARK  7 active torsions:
REMARK  status: ('A' for Active; 'I' for Inactive)
REMARK    1  A    between atoms: C_1  and  C_2
REMARK    2  A    between atoms: C_2  and  C_3
REMARK    3  A    between atoms: C_3  and  N_4
REMARK    4  A    between atoms: C_3  and  C_29
REMARK    5  A    between atoms: C_5  and  C_7
REMARK    6  A    between atoms: C_9  and  C_10
REMARK    7  A    between atoms: C_16  and  C_17
REMARK                            x       y       z     vdW  Elec       q    Type
REMARK                         _______ _______ _______ _____ _____    ______ ____
ROOT
ATOM      1  C   UNL     1       0.857  10.015  19.173  0.00  0.00    +0.000 A 
ATOM      2  C   UNL     1       1.015  10.845  20.273  0.00  0.00    +0.000 A 
ATOM      3  C   UNL     1      -0.091  11.758  20.390  0.00  0.00    +0.000 A 
ATOM      4  C   UNL     1      -0.899  11.488  19.272  0.00  0.00    +0.000 A 
ATOM      5  N   UNL     1      -0.388  10.341  18.675  0.00  0.00    +0.000 N 
ATOM      6  C   UNL     1      -1.048   9.660  17.561  0.00  0.00    +0.000 C 
ATOM      7  C   UNL     1      -2.451  10.195  17.385  0.00  0.00    +0.000 C 
ATOM      8  O   UNL     1      -2.335  11.618  17.314  0.00  0.00    +0.000 OA
ATOM      9  C   UNL     1      -2.099  12.147  18.628  0.00  0.00    +0.000 C 
ENDROOT
BRANCH   3  10
ATOM     10  C   UNL     1      -0.125  12.775  21.478  0.00  0.00    +0.000 C 
ATOM     11  O   UNL     1       0.901  13.407  21.732  0.00  0.00    +0.000 OA
ATOM     12  N   UNL     1      -1.253  12.963  22.261  0.00  0.00    +0.000 N 
ATOM     13  C   UNL     1      -2.348  12.056  22.425  0.00  0.00    +0.000 C 
ATOM     14  C   UNL     1      -3.444  12.942  22.948  0.00  0.00    +0.000 C 
ATOM     15  C   UNL     1      -2.689  13.718  24.016  0.00  0.00    +0.000 C 
ATOM     16  C   UNL     1      -1.253  13.855  23.439  0.00  0.00    +0.000 C 
BRANCH  16  17
ATOM     17  C   UNL     1      -0.904  15.310  23.233  0.00  0.00    +0.000 A 
ATOM     18  C   UNL     1      -1.565  16.027  22.234  0.00  0.00    +0.000 A 
ATOM     19  N   UNL     1      -1.208  17.276  21.855  0.00  0.00    +0.000 NA
ATOM     20  C   UNL     1      -0.170  17.802  22.539  0.00  0.00    +0.000 A 
ATOM     21  C   UNL     1       0.483  17.112  23.544  0.00  0.00    +0.000 A 
ATOM     22  N   UNL     1       0.144  15.852  23.910  0.00  0.00    +0.000 NA
ENDBRANCH  16  17
ENDBRANCH   3  10
BRANCH   1  24
ATOM     23  N   UNL     1       2.018   7.926  19.398  0.00  0.00    +0.000 N 
ATOM     24  C   UNL     1       1.725   9.004  18.589  0.00  0.00    +0.000 C 
ATOM     25  O   UNL     1       2.195   9.104  17.461  0.00  0.00    +0.000 OA
ATOM     26  H   UNL     1       1.681   7.922  20.346  0.00  0.00    +0.000 HD
BRANCH  23  27
ATOM     27  C   UNL     1       2.954   6.891  18.972  0.00  0.00    +0.000 C 
BRANCH  27  28
ATOM     28  C   UNL     1       2.256   5.540  18.927  0.00  0.00    +0.000 A 
ATOM     29  C   UNL     1       2.074   4.843  17.718  0.00  0.00    +0.000 A 
ATOM     30  C   UNL     1       1.490   3.575  17.714  0.00  0.00    +0.000 A 
ATOM     31  C   UNL     1       1.075   3.002  18.910  0.00  0.00    +0.000 A 
ATOM     32  F   UNL     1       0.531   1.779  18.901  0.00  0.00    +0.000 F 
ATOM     33  C   UNL     1       1.223   3.677  20.114  0.00  0.00    +0.000 A 
ATOM     34  C   UNL     1       1.811   4.937  20.113  0.00  0.00    +0.000 A 
ATOM     35  F   UNL     1       1.963   5.568  21.285  0.00  0.00    +0.000 F 
ENDBRANCH  27  28
BRANCH  27  37
ATOM     36  C   UNL     1       5.041   6.775  17.453  0.00  0.00    +0.000 C 
ATOM     37  C   UNL     1       3.585   7.197  17.594  0.00  0.00    +0.000 C 
ENDBRANCH  27  37
ENDBRANCH  23  27
ENDBRANCH   1  24
TORSDOF 6
ENDMDL
MODEL 6
REMARK VINA RESULT:      -7.8      4.704      9.969
REMARK  Name = 
REMARK  7 active torsions:
REMARK  status: ('A' for Active; 'I' for Inactive)
REMARK    1  A    between atoms: C_1  and  C_2
REMARK    2  A    between atoms: C_2  and  C_3
REMARK    3  A    between atoms: C_3  and  N_4
REMARK    4  A    between atoms: C_3  and  C_29
REMARK    5  A    between atoms: C_5  and  C_7
REMARK    6  A    between atoms: C_9  and  C_10
REMARK    7  A    between atoms: C_16  and  C_17
REMARK                            x       y       z     vdW  Elec       q    Type
REMARK                         _______ _______ _______ _____ _____    ______ ____
ROOT
ATOM      1  C   UNL     1       0.531   9.950  19.263  0.00  0.00    +0.000 A 
ATOM      2  C   UNL     1      -0.856   9.960  19.280  0.00  0.00    +0.000 A 
ATOM      3  C   UNL     1      -1.364  11.255  18.911  0.00  0.00    +0.000 A 
ATOM      4  C   UNL     1      -0.219  12.051  18.730  0.00  0.00    +0.000 A 
ATOM      5  N   UNL     1       0.877  11.197  18.784  0.00  0.00    +0.000 N 
ATOM      6  C   UNL     1       2.242  11.633  18.494  0.00  0.00    +0.000 C 
ATOM      7  C   UNL     1       2.224  13.005  17.858  0.00  0.00    +0.000 C 
ATOM      8  O   UNL     1       1.433  13.836  18.710  0.00  0.00    +0.000 OA
ATOM      9  C   UNL     1       0.042  13.527  18.525  0.00  0.00    +0.000 C 
ENDROOT
BRANCH   3  10
ATOM     10  C   UNL     1      -2.829  11.519  18.894  0.00  0.00    +0.000 C 
ATOM     11  O   UNL     1      -3.521  10.974  18.033  0.00  0.00    +0.000 OA
ATOM     12  N   UNL     1      -3.414  12.424  19.766  0.00  0.00    +0.000 N 
ATOM     13  C   UNL     1      -2.754  13.458  20.504  0.00  0.00    +0.000 C 
ATOM     14  C   UNL     1      -3.737  13.773  21.596  0.00  0.00    +0.000 C 
ATOM     15  C   UNL     1      -5.026  13.858  20.794  0.00  0.00    +0.000 C 
ATOM     16  C   UNL     1      -4.836  12.812  19.661  0.00  0.00    +0.000 C 
BRANCH  16  17
ATOM     17  C   UNL     1      -5.881  11.726  19.764  0.00  0.00    +0.000 A 
ATOM     18  C   UNL     1      -6.586  11.581  20.960  0.00  0.00    +0.000 A 
ATOM     19  N   UNL     1      -7.414  10.541  21.214  0.00  0.00    +0.000 NA
ATOM     20  C   UNL     1      -7.535   9.652  20.205  0.00  0.00    +0.000 A 
ATOM     21  C   UNL     1      -6.858   9.792  19.007  0.00  0.00    +0.000 A 
ATOM     22  N   UNL     1      -6.011  10.820  18.758  0.00  0.00    +0.000 NA
ENDBRANCH  16  17
ENDBRANCH   3  10
BRANCH   1  24
ATOM     23  N   UNL     1       2.028   8.197  18.592  0.00  0.00    +0.000 N 
ATOM     24  C   UNL     1       1.498   8.928  19.635  0.00  0.00    +0.000 C 
ATOM     25  O   UNL     1       1.811   8.702  20.799  0.00  0.00    +0.000 OA
ATOM     26  H   UNL     1       1.685   8.357  17.660  0.00  0.00    +0.000 HD
BRANCH  23  27
ATOM     27  C   UNL     1       2.934   7.078  18.833  0.00  0.00    +0.000 C 
BRANCH  27  28
ATOM     28  C   UNL     1       2.158   5.770  18.848  0.00  0.00    +0.000 A 
ATOM     29  C   UNL     1       1.870   5.071  17.661  0.00  0.00    +0.000 A 
ATOM     30  C   UNL     1       1.215   3.838  17.708  0.00  0.00    +0.000 A 
ATOM     31  C   UNL     1       0.835   3.305  18.934  0.00  0.00    +0.000 A 
ATOM     32  F   UNL     1       0.222   2.115  18.972  0.00  0.00    +0.000 F 
ATOM     33  C   UNL     1       1.087   3.985  20.117  0.00  0.00    +0.000 A 
ATOM     34  C   UNL     1       1.745   5.209  20.064  0.00  0.00    +0.000 A 
ATOM     35  F   UNL     1       1.998   5.843  21.217  0.00  0.00    +0.000 F 
ENDBRANCH  27  28
BRANCH  27  37
ATOM     36  C   UNL     1       5.202   6.051  18.144  0.00  0.00    +0.000 C 
ATOM     37  C   UNL     1       4.068   7.001  17.786  0.00  0.00    +0.000 C 
ENDBRANCH  27  37
ENDBRANCH  23  27
ENDBRANCH   1  24
TORSDOF 6
ENDMDL
MODEL 7
REMARK VINA RESULT:      -7.8      0.788      1.126
REMARK  Name = 
REMARK  7 active torsions:
REMARK  status: ('A' for Active; 'I' for Inactive)
REMARK    1  A    between atoms: C_1  and  C_2
REMARK    2  A    between atoms: C_2  and  C_3
REMARK    3  A    between atoms: C_3  and  N_4
REMARK    4  A    between atoms: C_3  and  C_29
REMARK    5  A    between atoms: C_5  and  C_7
REMARK    6  A    between atoms: C_9  and  C_10
REMARK    7  A    between atoms: C_16  and  C_17
REMARK                            x       y       z     vdW  Elec       q    Type
REMARK                         _______ _______ _______ _____ _____    ______ ____
ROOT
ATOM      1  C   UNL     1       1.398  10.294  18.585  0.00  0.00    +0.000 A 
ATOM      2  C   UNL     1       2.150   9.423  17.811  0.00  0.00    +0.000 A 
ATOM      3  C   UNL     1       2.323   8.161  18.480  0.00  0.00    +0.000 A 
ATOM      4  C   UNL     1       1.693   8.327  19.726  0.00  0.00    +0.000 A 
ATOM      5  N   UNL     1       1.018   9.541  19.676  0.00  0.00    +0.000 N 
ATOM      6  C   UNL     1       0.121   9.999  20.738  0.00  0.00    +0.000 C 
ATOM      7  C   UNL     1      -0.175   8.863  21.691  0.00  0.00    +0.000 C 
ATOM      8  O   UNL     1       1.088   8.321  22.082  0.00  0.00    +0.000 OA
ATOM      9  C   UNL     1       1.623   7.529  21.010  0.00  0.00    +0.000 C 
ENDROOT
BRANCH   3  10
ATOM     10  C   UNL     1       3.130   7.075  17.858  0.00  0.00    +0.000 C 
ATOM     11  O   UNL     1       4.067   7.382  17.119  0.00  0.00    +0.000 OA
ATOM     12  N   UNL     1       2.801   5.740  18.023  0.00  0.00    +0.000 N 
ATOM     13  C   UNL     1       1.540   5.210  18.446  0.00  0.00    +0.000 C 
ATOM     14  C   UNL     1       1.894   3.823  18.904  0.00  0.00    +0.000 C 
ATOM     15  C   UNL     1       2.774   3.365  17.752  0.00  0.00    +0.000 C 
ATOM     16  C   UNL     1       3.496   4.661  17.290  0.00  0.00    +0.000 C 
BRANCH  16  17
ATOM     17  C   UNL     1       4.990   4.525  17.468  0.00  0.00    +0.000 A 
ATOM     18  C   UNL     1       5.524   4.587  18.757  0.00  0.00    +0.000 A 
ATOM     19  N   UNL     1       6.851   4.648  19.009  0.00  0.00    +0.000 NA
ATOM     20  C   UNL     1       7.640   4.619  17.914  0.00  0.00    +0.000 A 
ATOM     21  C   UNL     1       7.127   4.539  16.632  0.00  0.00    +0.000 A 
ATOM     22  N   UNL     1       5.798   4.500  16.374  0.00  0.00    +0.000 NA
ENDBRANCH  16  17
ENDBRANCH   3  10
BRANCH   1  24
ATOM     23  N   UNL     1       2.072  12.592  18.411  0.00  0.00    +0.000 N 
ATOM     24  C   UNL     1       1.029  11.689  18.394  0.00  0.00    +0.000 C 
ATOM     25  O   UNL     1      -0.133  12.055  18.254  0.00  0.00    +0.000 OA
ATOM     26  H   UNL     1       3.000  12.261  18.611  0.00  0.00    +0.000 HD
BRANCH  23  27
ATOM     27  C   UNL     1       1.831  14.029  18.329  0.00  0.00    +0.000 C 
BRANCH  27  28
ATOM     28  C   UNL     1       1.315  14.550  19.662  0.00  0.00    +0.000 A 
ATOM     29  C   UNL     1       0.049  15.154  19.776  0.00  0.00    +0.000 A 
ATOM     30  C   UNL     1      -0.429  15.563  21.023  0.00  0.00    +0.000 A 
ATOM     31  C   UNL     1       0.356  15.383  22.156  0.00  0.00    +0.000 A 
ATOM     32  F   UNL     1      -0.116  15.762  23.350  0.00  0.00    +0.000 F 
ATOM     33  C   UNL     1       1.617  14.810  22.067  0.00  0.00    +0.000 A 
ATOM     34  C   UNL     1       2.084  14.399  20.824  0.00  0.00    +0.000 A 
ATOM     35  F   UNL     1       3.296  13.831  20.758  0.00  0.00    +0.000 F 
ENDBRANCH  27  28
BRANCH  27  37
ATOM     36  C   UNL     1       2.878  16.308  17.706  0.00  0.00    +0.000 C 
ATOM     37  C   UNL     1       3.096  14.816  17.916  0.00  0.00    +0.000 C 
ENDBRANCH  27  37
ENDBRANCH  23  27
ENDBRANCH   1  24
TORSDOF 6
ENDMDL
MODEL 8
REMARK VINA RESULT:      -7.7      3.377      4.115
REMARK  Name = 
REMARK  7 active torsions:
REMARK  status: ('A' for Active; 'I' for Inactive)
REMARK    1  A    between atoms: C_1  and  C_2
REMARK    2  A    between atoms: C_2  and  C_3
REMARK    3  A    between atoms: C_3  and  N_4
REMARK    4  A    between atoms: C_3  and  C_29
REMARK    5  A    between atoms: C_5  and  C_7
REMARK    6  A    between atoms: C_9  and  C_10
REMARK    7  A    between atoms: C_16  and  C_17
REMARK                            x       y       z     vdW  Elec       q    Type
REMARK                         _______ _______ _______ _____ _____    ______ ____
ROOT
ATOM      1  C   UNL     1      -0.111  10.637  19.448  0.00  0.00    +0.000 A 
ATOM      2  C   UNL     1       0.625   9.827  18.595  0.00  0.00    +0.000 A 
ATOM      3  C   UNL     1       1.381   8.855  19.338  0.00  0.00    +0.000 A 
ATOM      4  C   UNL     1       1.120   9.152  20.687  0.00  0.00    +0.000 A 
ATOM      5  N   UNL     1       0.105  10.101  20.701  0.00  0.00    +0.000 N 
ATOM      6  C   UNL     1      -0.544  10.558  21.930  0.00  0.00    +0.000 C 
ATOM      7  C   UNL     1      -0.168   9.652  23.080  0.00  0.00    +0.000 C 
ATOM      8  O   UNL     1       1.258   9.565  23.080  0.00  0.00    +0.000 OA
ATOM      9  C   UNL     1       1.686   8.700  22.016  0.00  0.00    +0.000 C 
ENDROOT
BRANCH   3  10
ATOM     10  C   UNL     1       2.280   7.895  18.638  0.00  0.00    +0.000 C 
ATOM     11  O   UNL     1       2.820   8.246  17.588  0.00  0.00    +0.000 OA
ATOM     12  N   UNL     1       2.453   6.598  19.093  0.00  0.00    +0.000 N 
ATOM     13  C   UNL     1       1.600   5.880  19.992  0.00  0.00    +0.000 C 
ATOM     14  C   UNL     1       2.492   4.778  20.493  0.00  0.00    +0.000 C 
ATOM     15  C   UNL     1       3.106   4.301  19.187  0.00  0.00    +0.000 C 
ATOM     16  C   UNL     1       3.216   5.590  18.328  0.00  0.00    +0.000 C 
BRANCH  16  17
ATOM     17  C   UNL     1       4.661   5.886  18.002  0.00  0.00    +0.000 A 
ATOM     18  C   UNL     1       5.008   6.176  16.681  0.00  0.00    +0.000 A 
ATOM     19  N   UNL     1       6.288   6.284  16.255  0.00  0.00    +0.000 NA
ATOM     20  C   UNL     1       7.222   6.115  17.214  0.00  0.00    +0.000 A 
ATOM     21  C   UNL     1       6.894   5.845  18.530  0.00  0.00    +0.000 A 
ATOM     22  N   UNL     1       5.615   5.714  18.956  0.00  0.00    +0.000 NA
ENDBRANCH  16  17
ENDBRANCH   3  10
BRANCH   1  24
ATOM     23  N   UNL     1      -1.697  12.241  20.270  0.00  0.00    +0.000 N 
ATOM     24  C   UNL     1      -0.950  11.800  19.198  0.00  0.00    +0.000 C 
ATOM     25  O   UNL     1      -1.019  12.346  18.102  0.00  0.00    +0.000 OA
ATOM     26  H   UNL     1      -1.676  11.716  21.128  0.00  0.00    +0.000 HD
BRANCH  23  27
ATOM     27  C   UNL     1      -2.653  13.335  20.130  0.00  0.00    +0.000 C 
BRANCH  27  28
ATOM     28  C   UNL     1      -4.046  12.868  20.525  0.00  0.00    +0.000 A 
ATOM     29  C   UNL     1      -4.565  13.104  21.812  0.00  0.00    +0.000 A 
ATOM     30  C   UNL     1      -5.871  12.726  22.128  0.00  0.00    +0.000 A 
ATOM     31  C   UNL     1      -6.659  12.101  21.168  0.00  0.00    +0.000 A 
ATOM     32  F   UNL     1      -7.916  11.755  21.473  0.00  0.00    +0.000 F 
ATOM     33  C   UNL     1      -6.164  11.836  19.899  0.00  0.00    +0.000 A 
ATOM     34  C   UNL     1      -4.865  12.222  19.589  0.00  0.00    +0.000 A 
ATOM     35  F   UNL     1      -4.408  11.977  18.353  0.00  0.00    +0.000 F 
ENDBRANCH  27  28
BRANCH  27  37
ATOM     36  C   UNL     1      -1.059  14.367  21.883  0.00  0.00    +0.000 C 
ATOM     37  C   UNL     1      -2.259  14.573  20.969  0.00  0.00    +0.000 C 
ENDBRANCH  27  37
ENDBRANCH  23  27
ENDBRANCH   1  24
TORSDOF 6
ENDMDL
MODEL 9
REMARK VINA RESULT:      -7.7      2.665      3.175
REMARK  Name = 
REMARK  7 active torsions:
REMARK  status: ('A' for Active; 'I' for Inactive)
REMARK    1  A    between atoms: C_1  and  C_2
REMARK    2  A    between atoms: C_2  and  C_3
REMARK    3  A    between atoms: C_3  and  N_4
REMARK    4  A    between atoms: C_3  and  C_29
REMARK    5  A    between atoms: C_5  and  C_7
REMARK    6  A    between atoms: C_9  and  C_10
REMARK    7  A    between atoms: C_16  and  C_17
REMARK                            x       y       z     vdW  Elec       q    Type
REMARK                         _______ _______ _______ _____ _____    ______ ____
ROOT
ATOM      1  C   UNL     1       0.086  10.304  19.381  0.00  0.00    +0.000 A 
ATOM      2  C   UNL     1       0.844   9.432  18.614  0.00  0.00    +0.000 A 
ATOM      3  C   UNL     1       1.563   8.506  19.449  0.00  0.00    +0.000 A 
ATOM      4  C   UNL     1       1.256   8.897  20.764  0.00  0.00    +0.000 A 
ATOM      5  N   UNL     1       0.251   9.853  20.675  0.00  0.00    +0.000 N 
ATOM      6  C   UNL     1      -0.437  10.399  21.845  0.00  0.00    +0.000 C 
ATOM      7  C   UNL     1      -0.114   9.570  23.068  0.00  0.00    +0.000 C 
ATOM      8  O   UNL     1       1.311   9.472  23.126  0.00  0.00    +0.000 OA
ATOM      9  C   UNL     1       1.768   8.533  22.140  0.00  0.00    +0.000 C 
ENDROOT
BRANCH   3  10
ATOM     10  C   UNL     1       2.476   7.493  18.849  0.00  0.00    +0.000 C 
ATOM     11  O   UNL     1       3.110   7.792  17.837  0.00  0.00    +0.000 OA
ATOM     12  N   UNL     1       2.562   6.205  19.353  0.00  0.00    +0.000 N 
ATOM     13  C   UNL     1       1.614   5.547  20.200  0.00  0.00    +0.000 C 
ATOM     14  C   UNL     1       2.419   4.429  20.801  0.00  0.00    +0.000 C 
ATOM     15  C   UNL     1       3.115   3.889  19.561  0.00  0.00    +0.000 C 
ATOM     16  C   UNL     1       3.343   5.147  18.679  0.00  0.00    +0.000 C 
BRANCH  16  17
ATOM     17  C   UNL     1       4.820   5.379  18.462  0.00  0.00    +0.000 A 
ATOM     18  C   UNL     1       5.331   5.297  17.165  0.00  0.00    +0.000 A 
ATOM     19  N   UNL     1       6.655   5.317  16.885  0.00  0.00    +0.000 NA
ATOM     20  C   UNL     1       7.461   5.451  17.960  0.00  0.00    +0.000 A 
ATOM     21  C   UNL     1       6.969   5.551  19.248  0.00  0.00    +0.000 A 
ATOM     22  N   UNL     1       5.645   5.509  19.535  0.00  0.00    +0.000 NA
ENDBRANCH  16  17
ENDBRANCH   3  10
BRANCH   1  24
ATOM     23  N   UNL     1      -0.774  12.471  19.952  0.00  0.00    +0.000 N 
ATOM     24  C   UNL     1      -0.730  11.454  19.021  0.00  0.00    +0.000 C 
ATOM     25  O   UNL     1      -1.365  11.516  17.974  0.00  0.00    +0.000 OA
ATOM     26  H   UNL     1      -0.306  12.346  20.834  0.00  0.00    +0.000 HD
BRANCH  23  27
ATOM     27  C   UNL     1      -1.632  13.637  19.761  0.00  0.00    +0.000 C 
BRANCH  27  28
ATOM     28  C   UNL     1      -2.801  13.592  20.732  0.00  0.00    +0.000 A 
ATOM     29  C   UNL     1      -2.757  14.259  21.971  0.00  0.00    +0.000 A 
ATOM     30  C   UNL     1      -3.870  14.258  22.815  0.00  0.00    +0.000 A 
ATOM     31  C   UNL     1      -5.024  13.583  22.434  0.00  0.00    +0.000 A 
ATOM     32  F   UNL     1      -6.092  13.600  23.240  0.00  0.00    +0.000 F 
ATOM     33  C   UNL     1      -5.086  12.899  21.227  0.00  0.00    +0.000 A 
ATOM     34  C   UNL     1      -3.977  12.909  20.389  0.00  0.00    +0.000 A 
ATOM     35  F   UNL     1      -4.060  12.260  19.220  0.00  0.00    +0.000 F 
ENDBRANCH  27  28
BRANCH  27  37
ATOM     36  C   UNL     1       0.101  15.295  18.798  0.00  0.00    +0.000 C 
ATOM     37  C   UNL     1      -0.863  14.968  19.930  0.00  0.00    +0.000 C 
ENDBRANCH  27  37
ENDBRANCH  23  27
ENDBRANCH   1  24
TORSDOF 6
ENDMDL
