MODEL 1
REMARK VINA RESULT:      -8.5      0.000      0.000
REMARK  Name = 
REMARK  4 active torsions:
REMARK  status: ('A' for Active; 'I' for Inactive)
REMARK    1  A    between atoms: C_1  and  C_2
REMARK    2  A    between atoms: C_13  and  C_15
REMARK    3  A    between atoms: C_15  and  S_16
REMARK    4  A    between atoms: S_16  and  C_17
REMARK                            x       y       z     vdW  Elec       q    Type
REMARK                         _______ _______ _______ _____ _____    ______ ____
ROOT
ATOM      1  C   UNL     1       0.629  10.581  19.192  0.00  0.00    +0.000 C 
ENDROOT
BRANCH   1  14
ATOM      2  C   UNL     1      -0.154  12.479  21.204  0.00  0.00    +0.000 C 
ATOM      3  C   UNL     1      -1.457  12.535  20.407  0.00  0.00    +0.000 C 
ATOM      4  C   UNL     1      -2.591  12.392  21.431  0.00  0.00    +0.000 C 
ATOM      5  C   UNL     1      -3.875  12.915  20.835  0.00  0.00    +0.000 C 
ATOM      6  C   UNL     1      -4.107  12.360  19.461  0.00  0.00    +0.000 A 
ATOM      7  C   UNL     1      -5.419  12.492  18.956  0.00  0.00    +0.000 A 
ATOM      8  C   UNL     1      -5.735  12.019  17.695  0.00  0.00    +0.000 A 
ATOM      9  F   UNL     1      -6.984  12.138  17.233  0.00  0.00    +0.000 F 
ATOM     10  C   UNL     1      -4.758  11.436  16.914  0.00  0.00    +0.000 A 
ATOM     11  C   UNL     1      -3.447  11.317  17.403  0.00  0.00    +0.000 A 
ATOM     12  C   UNL     1      -3.080  11.753  18.693  0.00  0.00    +0.000 A 
ATOM     13  N   UNL     1      -1.711  11.611  19.242  0.00  0.00    +0.000 N 
ATOM     14  C   UNL     1      -0.798  10.702  18.639  0.00  0.00    +0.000 C 
ATOM     15  O   UNL     1      -1.122   9.958  17.707  0.00  0.00    +0.000 OA
ENDBRANCH   1  14
BRANCH   1  16
ATOM     16  S   UNL     1       1.833  10.063  17.936  0.00  0.00    +0.000 S 
BRANCH  16  17
ATOM     17  C   UNL     1       2.299   8.457  18.480  0.00  0.00    +0.000 A 
ATOM     18  N   UNL     1       3.191   7.875  17.719  0.00  0.00    +0.000 NA
ATOM     19  N   UNL     1       3.614   6.619  18.030  0.00  0.00    +0.000 N 
ATOM     20  C   UNL     1       3.098   5.944  19.079  0.00  0.00    +0.000 A 
ATOM     21  C   UNL     1       3.196   4.739  19.619  0.00  0.00    +0.000 A 
ATOM     22  C   UNL     1       3.931   3.558  19.298  0.00  0.00    +0.000 A 
ATOM     23  C   UNL     1       3.762   2.471  20.069  0.00  0.00    +0.000 A 
ATOM     24  C   UNL     1       2.873   2.490  21.221  0.00  0.00    +0.000 A 
ATOM     25  C   UNL     1       2.166   3.576  21.584  0.00  0.00    +0.000 A 
ATOM     26  C   UNL     1       2.277   4.805  20.767  0.00  0.00    +0.000 A 
ATOM     27  N   UNL     1       1.666   5.937  20.920  0.00  0.00    +0.000 NA
ATOM     28  C   UNL     1       2.116   6.707  19.874  0.00  0.00    +0.000 A 
ATOM     29  N   UNL     1       1.722   7.907  19.613  0.00  0.00    +0.000 NA
ATOM     30  H   UNL     1       4.259   6.143  17.406  0.00  0.00    +0.000 HD
ENDBRANCH  16  17
ENDBRANCH   1  16
TORSDOF 3
ENDMDL
MODEL 2
REMARK VINA RESULT:      -8.4      1.765      3.227
REMARK  Name = 
REMARK  4 active torsions:
REMARK  status: ('A' for Active; 'I' for Inactive)
REMARK    1  A    between atoms: C_1  and  C_2
REMARK    2  A    between atoms: C_13  and  C_15
REMARK    3  A    between atoms: C_15  and  S_16
REMARK    4  A    between atoms: S_16  and  C_17
REMARK                            x       y       z     vdW  Elec       q    Type
REMARK                         _______ _______ _______ _____ _____    ______ ____
ROOT
ATOM      1  C   UNL     1      -0.305  11.146  19.629  0.00  0.00    +0.000 C 
ENDROOT
BRANCH   1  14
ATOM      2  C   UNL     1      -1.127   9.744  17.257  0.00  0.00    +0.000 C 
ATOM      3  C   UNL     1      -2.491  10.358  17.569  0.00  0.00    +0.000 C 
ATOM      4  C   UNL     1      -2.996  10.968  16.255  0.00  0.00    +0.000 C 
ATOM      5  C   UNL     1      -4.492  11.151  16.328  0.00  0.00    +0.000 C 
ATOM      6  C   UNL     1      -4.900  11.822  17.606  0.00  0.00    +0.000 A 
ATOM      7  C   UNL     1      -6.206  12.357  17.632  0.00  0.00    +0.000 A 
ATOM      8  C   UNL     1      -6.682  12.989  18.766  0.00  0.00    +0.000 A 
ATOM      9  F   UNL     1      -7.916  13.504  18.774  0.00  0.00    +0.000 F 
ATOM     10  C   UNL     1      -5.884  13.078  19.890  0.00  0.00    +0.000 A 
ATOM     11  C   UNL     1      -4.591  12.534  19.876  0.00  0.00    +0.000 A 
ATOM     12  C   UNL     1      -4.047  11.908  18.736  0.00  0.00    +0.000 A 
ATOM     13  N   UNL     1      -2.674  11.352  18.689  0.00  0.00    +0.000 N 
ATOM     14  C   UNL     1      -1.717  11.748  19.664  0.00  0.00    +0.000 C 
ATOM     15  O   UNL     1      -1.959  12.605  20.520  0.00  0.00    +0.000 OA
ENDBRANCH   1  14
BRANCH   1  16
ATOM     16  S   UNL     1       0.080  10.158  21.102  0.00  0.00    +0.000 S 
BRANCH  16  17
ATOM     17  C   UNL     1       1.032   8.833  20.446  0.00  0.00    +0.000 A 
ATOM     18  N   UNL     1       1.119   7.795  21.240  0.00  0.00    +0.000 NA
ATOM     19  N   UNL     1       1.849   6.715  20.846  0.00  0.00    +0.000 N 
ATOM     20  C   UNL     1       2.521   6.711  19.676  0.00  0.00    +0.000 A 
ATOM     21  C   UNL     1       3.357   5.917  19.023  0.00  0.00    +0.000 A 
ATOM     22  C   UNL     1       3.949   4.648  19.299  0.00  0.00    +0.000 A 
ATOM     23  C   UNL     1       4.803   4.133  18.400  0.00  0.00    +0.000 A 
ATOM     24  C   UNL     1       5.108   4.829  17.159  0.00  0.00    +0.000 A 
ATOM     25  C   UNL     1       4.571   6.020  16.835  0.00  0.00    +0.000 A 
ATOM     26  C   UNL     1       3.642   6.665  17.789  0.00  0.00    +0.000 A 
ATOM     27  N   UNL     1       3.046   7.812  17.688  0.00  0.00    +0.000 NA
ATOM     28  C   UNL     1       2.333   7.924  18.858  0.00  0.00    +0.000 A 
ATOM     29  N   UNL     1       1.625   8.947  19.198  0.00  0.00    +0.000 NA
ATOM     30  H   UNL     1       1.968   5.936  21.487  0.00  0.00    +0.000 HD
ENDBRANCH  16  17
ENDBRANCH   1  16
TORSDOF 3
ENDMDL
MODEL 3
REMARK VINA RESULT:      -8.4      0.676      1.542
REMARK  Name = 
REMARK  4 active torsions:
REMARK  status: ('A' for Active; 'I' for Inactive)
REMARK    1  A    between atoms: C_1  and  C_2
REMARK    2  A    between atoms: C_13  and  C_15
REMARK    3  A    between atoms: C_15  and  S_16
REMARK    4  A    between atoms: S_16  and  C_17
REMARK                            x       y       z     vdW  Elec       q    Type
REMARK                         _______ _______ _______ _____ _____    ______ ____
ROOT
ATOM      1  C   UNL     1       0.330  10.859  19.642  0.00  0.00    +0.000 C 
ENDROOT
BRANCH   1  14
ATOM      2  C   UNL     1      -0.641  12.731  21.596  0.00  0.00    +0.000 C 
ATOM      3  C   UNL     1      -1.892  12.743  20.718  0.00  0.00    +0.000 C 
ATOM      4  C   UNL     1      -3.083  12.564  21.669  0.00  0.00    +0.000 C 
ATOM      5  C   UNL     1      -4.343  13.044  20.992  0.00  0.00    +0.000 C 
ATOM      6  C   UNL     1      -4.469  12.481  19.607  0.00  0.00    +0.000 A 
ATOM      7  C   UNL     1      -5.751  12.569  19.020  0.00  0.00    +0.000 A 
ATOM      8  C   UNL     1      -5.971  12.086  17.744  0.00  0.00    +0.000 A 
ATOM      9  F   UNL     1      -7.192  12.163  17.203  0.00  0.00    +0.000 F 
ATOM     10  C   UNL     1      -4.927  11.535  17.027  0.00  0.00    +0.000 A 
ATOM     11  C   UNL     1      -3.647  11.459  17.598  0.00  0.00    +0.000 A 
ATOM     12  C   UNL     1      -3.377  11.907  18.907  0.00  0.00    +0.000 A 
ATOM     13  N   UNL     1      -2.041  11.811  19.542  0.00  0.00    +0.000 N 
ATOM     14  C   UNL     1      -1.063  10.933  19.000  0.00  0.00    +0.000 C 
ATOM     15  O   UNL     1      -1.303  10.177  18.051  0.00  0.00    +0.000 OA
ENDBRANCH   1  14
BRANCH   1  16
ATOM     16  S   UNL     1       1.614  10.302  18.486  0.00  0.00    +0.000 S 
BRANCH  16  17
ATOM     17  C   UNL     1       1.854   8.622  18.948  0.00  0.00    +0.000 A 
ATOM     18  N   UNL     1       1.535   8.361  20.191  0.00  0.00    +0.000 NA
ATOM     19  N   UNL     1       1.698   7.096  20.668  0.00  0.00    +0.000 N 
ATOM     20  C   UNL     1       2.225   6.119  19.901  0.00  0.00    +0.000 A 
ATOM     21  C   UNL     1       2.590   4.852  20.033  0.00  0.00    +0.000 A 
ATOM     22  C   UNL     1       2.591   3.922  21.116  0.00  0.00    +0.000 A 
ATOM     23  C   UNL     1       3.077   2.689  20.897  0.00  0.00    +0.000 A 
ATOM     24  C   UNL     1       3.572   2.290  19.588  0.00  0.00    +0.000 A 
ATOM     25  C   UNL     1       3.583   3.116  18.525  0.00  0.00    +0.000 A 
ATOM     26  C   UNL     1       3.090   4.502  18.695  0.00  0.00    +0.000 A 
ATOM     27  N   UNL     1       3.044   5.457  17.820  0.00  0.00    +0.000 NA
ATOM     28  C   UNL     1       2.527   6.524  18.516  0.00  0.00    +0.000 A 
ATOM     29  N   UNL     1       2.356   7.709  18.034  0.00  0.00    +0.000 NA
ATOM     30  H   UNL     1       1.509   6.908  21.649  0.00  0.00    +0.000 HD
ENDBRANCH  16  17
ENDBRANCH   1  16
TORSDOF 3
ENDMDL
MODEL 4
REMARK VINA RESULT:      -8.3      1.717      2.420
REMARK  Name = 
REMARK  4 active torsions:
REMARK  status: ('A' for Active; 'I' for Inactive)
REMARK    1  A    between atoms: C_1  and  C_2
REMARK    2  A    between atoms: C_13  and  C_15
REMARK    3  A    between atoms: C_15  and  S_16
REMARK    4  A    between atoms: S_16  and  C_17
REMARK                            x       y       z     vdW  Elec       q    Type
REMARK                         _______ _______ _______ _____ _____    ______ ____
ROOT
ATOM      1  C   UNL     1       0.283  10.726  19.835  0.00  0.00    +0.000 C 
ENDROOT
BRANCH   1  14
ATOM      2  C   UNL     1      -0.687  12.635  21.754  0.00  0.00    +0.000 C 
ATOM      3  C   UNL     1      -1.904  12.693  20.831  0.00  0.00    +0.000 C 
ATOM      4  C   UNL     1      -3.135  12.559  21.738  0.00  0.00    +0.000 C 
ATOM      5  C   UNL     1      -4.351  13.085  21.016  0.00  0.00    +0.000 C 
ATOM      6  C   UNL     1      -4.447  12.526  19.627  0.00  0.00    +0.000 A 
ATOM      7  C   UNL     1      -5.702  12.662  18.994  0.00  0.00    +0.000 A 
ATOM      8  C   UNL     1      -5.894  12.187  17.710  0.00  0.00    +0.000 A 
ATOM      9  F   UNL     1      -7.091  12.310  17.126  0.00  0.00    +0.000 F 
ATOM     10  C   UNL     1      -4.846  11.596  17.032  0.00  0.00    +0.000 A 
ATOM     11  C   UNL     1      -3.592  11.473  17.649  0.00  0.00    +0.000 A 
ATOM     12  C   UNL     1      -3.353  11.912  18.967  0.00  0.00    +0.000 A 
ATOM     13  N   UNL     1      -2.045  11.766  19.650  0.00  0.00    +0.000 N 
ATOM     14  C   UNL     1      -1.081  10.851  19.143  0.00  0.00    +0.000 C 
ATOM     15  O   UNL     1      -1.315  10.105  18.186  0.00  0.00    +0.000 OA
ENDBRANCH   1  14
BRANCH   1  16
ATOM     16  S   UNL     1       0.518   9.121  20.651  0.00  0.00    +0.000 S 
BRANCH  16  17
ATOM     17  C   UNL     1       1.704   8.329  19.622  0.00  0.00    +0.000 A 
ATOM     18  N   UNL     1       2.026   9.016  18.555  0.00  0.00    +0.000 NA
ATOM     19  N   UNL     1       2.921   8.494  17.672  0.00  0.00    +0.000 N 
ATOM     20  C   UNL     1       3.447   7.263  17.850  0.00  0.00    +0.000 A 
ATOM     21  C   UNL     1       4.246   6.430  17.200  0.00  0.00    +0.000 A 
ATOM     22  C   UNL     1       4.929   6.476  15.949  0.00  0.00    +0.000 A 
ATOM     23  C   UNL     1       5.652   5.406  15.576  0.00  0.00    +0.000 A 
ATOM     24  C   UNL     1       5.762   4.232  16.429  0.00  0.00    +0.000 A 
ATOM     25  C   UNL     1       5.154   4.135  17.626  0.00  0.00    +0.000 A 
ATOM     26  C   UNL     1       4.317   5.263  18.093  0.00  0.00    +0.000 A 
ATOM     27  N   UNL     1       3.627   5.360  19.185  0.00  0.00    +0.000 NA
ATOM     28  C   UNL     1       3.027   6.593  19.095  0.00  0.00    +0.000 A 
ATOM     29  N   UNL     1       2.202   7.080  19.959  0.00  0.00    +0.000 NA
ATOM     30  H   UNL     1       3.124   8.998  16.814  0.00  0.00    +0.000 HD
ENDBRANCH  16  17
ENDBRANCH   1  16
TORSDOF 3
ENDMDL
MODEL 5
REMARK VINA RESULT:      -8.2      1.525      2.470
REMARK  Name = 
REMARK  4 active torsions:
REMARK  status: ('A' for Active; 'I' for Inactive)
REMARK    1  A    between atoms: C_1  and  C_2
REMARK    2  A    between atoms: C_13  and  C_15
REMARK    3  A    between atoms: C_15  and  S_16
REMARK    4  A    between atoms: S_16  and  C_17
REMARK                            x       y       z     vdW  Elec       q    Type
REMARK                         _______ _______ _______ _____ _____    ______ ____
ROOT
ATOM      1  C   UNL     1       0.073  10.909  20.102  0.00  0.00    +0.000 C 
ENDROOT
BRANCH   1  14
ATOM      2  C   UNL     1      -0.973  12.891  21.903  0.00  0.00    +0.000 C 
ATOM      3  C   UNL     1      -2.168  12.885  20.949  0.00  0.00    +0.000 C 
ATOM      4  C   UNL     1      -3.418  12.774  21.831  0.00  0.00    +0.000 C 
ATOM      5  C   UNL     1      -4.624  13.245  21.056  0.00  0.00    +0.000 C 
ATOM      6  C   UNL     1      -4.677  12.619  19.694  0.00  0.00    +0.000 A 
ATOM      7  C   UNL     1      -5.918  12.704  19.025  0.00  0.00    +0.000 A 
ATOM      8  C   UNL     1      -6.070  12.165  17.761  0.00  0.00    +0.000 A 
ATOM      9  F   UNL     1      -7.254  12.240  17.142  0.00  0.00    +0.000 F 
ATOM     10  C   UNL     1      -4.997  11.560  17.137  0.00  0.00    +0.000 A 
ATOM     11  C   UNL     1      -3.757  11.487  17.789  0.00  0.00    +0.000 A 
ATOM     12  C   UNL     1      -3.557  11.992  19.090  0.00  0.00    +0.000 A 
ATOM     13  N   UNL     1      -2.265  11.900  19.811  0.00  0.00    +0.000 N 
ATOM     14  C   UNL     1      -1.275  10.979  19.372  0.00  0.00    +0.000 C 
ATOM     15  O   UNL     1      -1.473  10.184  18.447  0.00  0.00    +0.000 OA
ENDBRANCH   1  14
BRANCH   1  16
ATOM     16  S   UNL     1       0.161   9.546  21.299  0.00  0.00    +0.000 S 
BRANCH  16  17
ATOM     17  C   UNL     1       1.176   8.369  20.477  0.00  0.00    +0.000 A 
ATOM     18  N   UNL     1       1.329   7.247  21.135  0.00  0.00    +0.000 NA
ATOM     19  N   UNL     1       2.112   6.266  20.605  0.00  0.00    +0.000 N 
ATOM     20  C   UNL     1       2.770   6.446  19.440  0.00  0.00    +0.000 A 
ATOM     21  C   UNL     1       3.639   5.787  18.689  0.00  0.00    +0.000 A 
ATOM     22  C   UNL     1       4.303   4.529  18.801  0.00  0.00    +0.000 A 
ATOM     23  C   UNL     1       5.173   4.178  17.840  0.00  0.00    +0.000 A 
ATOM     24  C   UNL     1       5.425   5.039  16.695  0.00  0.00    +0.000 A 
ATOM     25  C   UNL     1       4.820   6.229  16.524  0.00  0.00    +0.000 A 
ATOM     26  C   UNL     1       3.868   6.698  17.557  0.00  0.00    +0.000 A 
ATOM     27  N   UNL     1       3.210   7.813  17.603  0.00  0.00    +0.000 NA
ATOM     28  C   UNL     1       2.506   7.739  18.781  0.00  0.00    +0.000 A 
ATOM     29  N   UNL     1       1.747   8.670  19.251  0.00  0.00    +0.000 NA
ATOM     30  H   UNL     1       2.281   5.422  21.143  0.00  0.00    +0.000 HD
ENDBRANCH  16  17
ENDBRANCH   1  16
TORSDOF 3
ENDMDL
MODEL 6
REMARK VINA RESULT:      -8.2      2.062      3.268
REMARK  Name = 
REMARK  4 active torsions:
REMARK  status: ('A' for Active; 'I' for Inactive)
REMARK    1  A    between atoms: C_1  and  C_2
REMARK    2  A    between atoms: C_13  and  C_15
REMARK    3  A    between atoms: C_15  and  S_16
REMARK    4  A    between atoms: S_16  and  C_17
REMARK                            x       y       z     vdW  Elec       q    Type
REMARK                         _______ _______ _______ _____ _____    ______ ____
ROOT
ATOM      1  C   UNL     1      -0.341  10.927  19.205  0.00  0.00    +0.000 C 
ENDROOT
BRANCH   1  14
ATOM      2  C   UNL     1      -1.907   9.824  17.060  0.00  0.00    +0.000 C 
ATOM      3  C   UNL     1      -3.057  10.562  17.745  0.00  0.00    +0.000 C 
ATOM      4  C   UNL     1      -3.792  11.330  16.638  0.00  0.00    +0.000 C 
ATOM      5  C   UNL     1      -5.184  11.675  17.105  0.00  0.00    +0.000 C 
ATOM      6  C   UNL     1      -5.167  12.282  18.476  0.00  0.00    +0.000 A 
ATOM      7  C   UNL     1      -6.344  12.959  18.866  0.00  0.00    +0.000 A 
ATOM      8  C   UNL     1      -6.433  13.547  20.114  0.00  0.00    +0.000 A 
ATOM      9  F   UNL     1      -7.548  14.196  20.466  0.00  0.00    +0.000 F 
ATOM     10  C   UNL     1      -5.375  13.454  20.995  0.00  0.00    +0.000 A 
ATOM     11  C   UNL     1      -4.208  12.768  20.621  0.00  0.00    +0.000 A 
ATOM     12  C   UNL     1      -4.054  12.179  19.350  0.00  0.00    +0.000 A 
ATOM     13  N   UNL     1      -2.822  11.477  18.921  0.00  0.00    +0.000 N 
ATOM     14  C   UNL     1      -1.608  11.680  19.633  0.00  0.00    +0.000 C 
ATOM     15  O   UNL     1      -1.513  12.488  20.564  0.00  0.00    +0.000 OA
ENDBRANCH   1  14
BRANCH   1  16
ATOM     16  S   UNL     1       0.185   9.680  20.415  0.00  0.00    +0.000 S 
BRANCH  16  17
ATOM     17  C   UNL     1       1.414   8.778  19.538  0.00  0.00    +0.000 A 
ATOM     18  N   UNL     1       1.784   9.338  18.414  0.00  0.00    +0.000 NA
ATOM     19  N   UNL     1       2.717   8.719  17.638  0.00  0.00    +0.000 N 
ATOM     20  C   UNL     1       3.231   7.519  17.981  0.00  0.00    +0.000 A 
ATOM     21  C   UNL     1       4.057   6.619  17.468  0.00  0.00    +0.000 A 
ATOM     22  C   UNL     1       4.795   6.522  16.251  0.00  0.00    +0.000 A 
ATOM     23  C   UNL     1       5.531   5.418  16.037  0.00  0.00    +0.000 A 
ATOM     24  C   UNL     1       5.601   4.351  17.024  0.00  0.00    +0.000 A 
ATOM     25  C   UNL     1       4.940   4.391  18.196  0.00  0.00    +0.000 A 
ATOM     26  C   UNL     1       4.085   5.563  18.492  0.00  0.00    +0.000 A 
ATOM     27  N   UNL     1       3.348   5.783  19.534  0.00  0.00    +0.000 NA
ATOM     28  C   UNL     1       2.755   6.996  19.275  0.00  0.00    +0.000 A 
ATOM     29  N   UNL     1       1.893   7.578  20.039  0.00  0.00    +0.000 NA
ATOM     30  H   UNL     1       2.959   9.121  16.737  0.00  0.00    +0.000 HD
ENDBRANCH  16  17
ENDBRANCH   1  16
TORSDOF 3
ENDMDL
MODEL 7
REMARK VINA RESULT:      -8.1      1.195      1.553
REMARK  Name = 
REMARK  4 active torsions:
REMARK  status: ('A' for Active; 'I' for Inactive)
REMARK    1  A    between atoms: C_1  and  C_2
REMARK    2  A    between atoms: C_13  and  C_15
REMARK    3  A    between atoms: C_15  and  S_16
REMARK    4  A    between atoms: S_16  and  C_17
REMARK                            x       y       z     vdW  Elec       q    Type
REMARK                         _______ _______ _______ _____ _____    ______ ____
ROOT
ATOM      1  C   UNL     1       0.477  10.850  19.970  0.00  0.00    +0.000 C 
ENDROOT
BRANCH   1  14
ATOM      2  C   UNL     1      -0.541  12.830  21.791  0.00  0.00    +0.000 C 
ATOM      3  C   UNL     1      -1.761  12.807  20.870  0.00  0.00    +0.000 C 
ATOM      4  C   UNL     1      -2.986  12.688  21.786  0.00  0.00    +0.000 C 
ATOM      5  C   UNL     1      -4.216  13.143  21.041  0.00  0.00    +0.000 C 
ATOM      6  C   UNL     1      -4.300  12.510  19.684  0.00  0.00    +0.000 A 
ATOM      7  C   UNL     1      -5.560  12.579  19.048  0.00  0.00    +0.000 A 
ATOM      8  C   UNL     1      -5.740  12.033  17.791  0.00  0.00    +0.000 A 
ATOM      9  F   UNL     1      -6.941  12.093  17.205  0.00  0.00    +0.000 F 
ATOM     10  C   UNL     1      -4.679  11.436  17.141  0.00  0.00    +0.000 A 
ATOM     11  C   UNL     1      -3.420  11.379  17.760  0.00  0.00    +0.000 A 
ATOM     12  C   UNL     1      -3.191  11.892  19.053  0.00  0.00    +0.000 A 
ATOM     13  N   UNL     1      -1.879  11.816  19.738  0.00  0.00    +0.000 N 
ATOM     14  C   UNL     1      -0.891  10.903  19.277  0.00  0.00    +0.000 C 
ATOM     15  O   UNL     1      -1.106  10.102  18.361  0.00  0.00    +0.000 OA
ENDBRANCH   1  14
BRANCH   1  16
ATOM     16  S   UNL     1       0.572   9.567  21.252  0.00  0.00    +0.000 S 
BRANCH  16  17
ATOM     17  C   UNL     1       1.384   8.246  20.422  0.00  0.00    +0.000 A 
ATOM     18  N   UNL     1       1.913   8.584  19.273  0.00  0.00    +0.000 NA
ATOM     19  N   UNL     1       2.552   7.637  18.531  0.00  0.00    +0.000 N 
ATOM     20  C   UNL     1       2.608   6.350  18.932  0.00  0.00    +0.000 A 
ATOM     21  C   UNL     1       3.050   5.192  18.466  0.00  0.00    +0.000 A 
ATOM     22  C   UNL     1       3.687   4.781  17.256  0.00  0.00    +0.000 A 
ATOM     23  C   UNL     1       3.976   3.478  17.098  0.00  0.00    +0.000 A 
ATOM     24  C   UNL     1       3.675   2.504  18.136  0.00  0.00    +0.000 A 
ATOM     25  C   UNL     1       3.090   2.831  19.302  0.00  0.00    +0.000 A 
ATOM     26  C   UNL     1       2.714   4.243  19.539  0.00  0.00    +0.000 A 
ATOM     27  N   UNL     1       2.120   4.761  20.568  0.00  0.00    +0.000 NA
ATOM     28  C   UNL     1       1.996   6.092  20.249  0.00  0.00    +0.000 A 
ATOM     29  N   UNL     1       1.410   6.978  20.982  0.00  0.00    +0.000 NA
ATOM     30  H   UNL     1       2.908   7.885  17.612  0.00  0.00    +0.000 HD
ENDBRANCH  16  17
ENDBRANCH   1  16
TORSDOF 3
ENDMDL
MODEL 8
REMARK VINA RESULT:      -8.1      1.610      2.817
REMARK  Name = 
REMARK  4 active torsions:
REMARK  status: ('A' for Active; 'I' for Inactive)
REMARK    1  A    between atoms: C_1  and  C_2
REMARK    2  A    between atoms: C_13  and  C_15
REMARK    3  A    between atoms: C_15  and  S_16
REMARK    4  A    between atoms: S_16  and  C_17
REMARK                            x       y       z     vdW  Elec       q    Type
REMARK                         _______ _______ _______ _____ _____    ______ ____
ROOT
ATOM      1  C   UNL     1      -0.734  10.869  18.258  0.00  0.00    +0.000 C 
ENDROOT
BRANCH   1  14
ATOM      2  C   UNL     1      -2.866   9.933  16.570  0.00  0.00    +0.000 C 
ATOM      3  C   UNL     1      -3.756  10.675  17.567  0.00  0.00    +0.000 C 
ATOM      4  C   UNL     1      -4.721  11.524  16.729  0.00  0.00    +0.000 C 
ATOM      5  C   UNL     1      -5.921  11.894  17.565  0.00  0.00    +0.000 C 
ATOM      6  C   UNL     1      -5.510  12.429  18.904  0.00  0.00    +0.000 A 
ATOM      7  C   UNL     1      -6.507  13.126  19.622  0.00  0.00    +0.000 A 
ATOM      8  C   UNL     1      -6.232  13.653  20.871  0.00  0.00    +0.000 A 
ATOM      9  F   UNL     1      -7.181  14.322  21.535  0.00  0.00    +0.000 F 
ATOM     10  C   UNL     1      -4.983  13.477  21.432  0.00  0.00    +0.000 A 
ATOM     11  C   UNL     1      -3.993  12.771  20.731  0.00  0.00    +0.000 A 
ATOM     12  C   UNL     1      -4.211  12.243  19.443  0.00  0.00    +0.000 A 
ATOM     13  N   UNL     1      -3.172  11.519  18.672  0.00  0.00    +0.000 N 
ATOM     14  C   UNL     1      -1.804  11.643  19.040  0.00  0.00    +0.000 C 
ATOM     15  O   UNL     1      -1.426  12.398  19.943  0.00  0.00    +0.000 OA
ENDBRANCH   1  14
BRANCH   1  16
ATOM     16  S   UNL     1       0.934  11.077  18.943  0.00  0.00    +0.000 S 
BRANCH  16  17
ATOM     17  C   UNL     1       1.623   9.466  18.792  0.00  0.00    +0.000 A 
ATOM     18  N   UNL     1       2.188   9.235  17.634  0.00  0.00    +0.000 NA
ATOM     19  N   UNL     1       2.739   8.013  17.394  0.00  0.00    +0.000 N 
ATOM     20  C   UNL     1       2.672   7.021  18.308  0.00  0.00    +0.000 A 
ATOM     21  C   UNL     1       3.005   5.743  18.399  0.00  0.00    +0.000 A 
ATOM     22  C   UNL     1       3.608   4.803  17.510  0.00  0.00    +0.000 A 
ATOM     23  C   UNL     1       3.774   3.539  17.934  0.00  0.00    +0.000 A 
ATOM     24  C   UNL     1       3.377   3.131  19.273  0.00  0.00    +0.000 A 
ATOM     25  C   UNL     1       2.818   3.973  20.161  0.00  0.00    +0.000 A 
ATOM     26  C   UNL     1       2.576   5.376  19.757  0.00  0.00    +0.000 A 
ATOM     27  N   UNL     1       2.027   6.331  20.440  0.00  0.00    +0.000 NA
ATOM     28  C   UNL     1       2.030   7.404  19.580  0.00  0.00    +0.000 A 
ATOM     29  N   UNL     1       1.527   8.563  19.839  0.00  0.00    +0.000 NA
ATOM     30  H   UNL     1       3.122   7.813  16.475  0.00  0.00    +0.000 HD
ENDBRANCH  16  17
ENDBRANCH   1  16
TORSDOF 3
ENDMDL
MODEL 9
REMARK VINA RESULT:      -8.1      1.562      2.621
REMARK  Name = 
REMARK  4 active torsions:
REMARK  status: ('A' for Active; 'I' for Inactive)
REMARK    1  A    between atoms: C_1  and  C_2
REMARK    2  A    between atoms: C_13  and  C_15
REMARK    3  A    between atoms: C_15  and  S_16
REMARK    4  A    between atoms: S_16  and  C_17
REMARK                            x       y       z     vdW  Elec       q    Type
REMARK                         _______ _______ _______ _____ _____    ______ ____
ROOT
ATOM      1  C   UNL     1       0.027  10.988  19.316  0.00  0.00    +0.000 C 
ENDROOT
BRANCH   1  14
ATOM      2  C   UNL     1      -1.300   9.628  17.158  0.00  0.00    +0.000 C 
ATOM      3  C   UNL     1      -2.537  10.358  17.681  0.00  0.00    +0.000 C 
ATOM      4  C   UNL     1      -3.210  10.990  16.456  0.00  0.00    +0.000 C 
ATOM      5  C   UNL     1      -4.651  11.299  16.777  0.00  0.00    +0.000 C 
ATOM      6  C   UNL     1      -4.778  12.019  18.087  0.00  0.00    +0.000 A 
ATOM      7  C   UNL     1      -6.013  12.662  18.320  0.00  0.00    +0.000 A 
ATOM      8  C   UNL     1      -6.234  13.347  19.500  0.00  0.00    +0.000 A 
ATOM      9  F   UNL     1      -7.404  13.963  19.704  0.00  0.00    +0.000 F 
ATOM     10  C   UNL     1      -5.251  13.385  20.469  0.00  0.00    +0.000 A 
ATOM     11  C   UNL     1      -4.027  12.734  20.251  0.00  0.00    +0.000 A 
ATOM     12  C   UNL     1      -3.739  12.049  19.052  0.00  0.00    +0.000 A 
ATOM     13  N   UNL     1      -2.444  11.379  18.787  0.00  0.00    +0.000 N 
ATOM     14  C   UNL     1      -1.305  11.706  19.574  0.00  0.00    +0.000 C 
ATOM     15  O   UNL     1      -1.327  12.593  20.435  0.00  0.00    +0.000 OA
ENDBRANCH   1  14
BRANCH   1  16
ATOM     16  S   UNL     1       0.682  10.160  20.793  0.00  0.00    +0.000 S 
BRANCH  16  17
ATOM     17  C   UNL     1       1.395   8.693  20.135  0.00  0.00    +0.000 A 
ATOM     18  N   UNL     1       1.806   8.810  18.897  0.00  0.00    +0.000 NA
ATOM     19  N   UNL     1       2.358   7.732  18.275  0.00  0.00    +0.000 N 
ATOM     20  C   UNL     1       2.446   6.535  18.891  0.00  0.00    +0.000 A 
ATOM     21  C   UNL     1       2.829   5.302  18.595  0.00  0.00    +0.000 A 
ATOM     22  C   UNL     1       3.336   4.668  17.421  0.00  0.00    +0.000 A 
ATOM     23  C   UNL     1       3.598   3.351  17.469  0.00  0.00    +0.000 A 
ATOM     24  C   UNL     1       3.397   2.582  18.687  0.00  0.00    +0.000 A 
ATOM     25  C   UNL     1       2.937   3.125  19.830  0.00  0.00    +0.000 A 
ATOM     26  C   UNL     1       2.598   4.566  19.848  0.00  0.00    +0.000 A 
ATOM     27  N   UNL     1       2.116   5.271  20.823  0.00  0.00    +0.000 NA
ATOM     28  C   UNL     1       1.970   6.528  20.287  0.00  0.00    +0.000 A 
ATOM     29  N   UNL     1       1.469   7.544  20.905  0.00  0.00    +0.000 NA
ATOM     30  H   UNL     1       2.620   7.805  17.296  0.00  0.00    +0.000 HD
ENDBRANCH  16  17
ENDBRANCH   1  16
TORSDOF 3
ENDMDL
