MODEL 1
REMARK VINA RESULT:      -9.3      0.000      0.000
REMARK  Name = 
REMARK  8 active torsions:
REMARK  status: ('A' for Active; 'I' for Inactive)
REMARK    1  A    between atoms: C_1  and  C_2
REMARK    2  A    between atoms: C_2  and  C_3
REMARK    3  A    between atoms: N_5  and  C_6
REMARK    4  A    between atoms: C_10  and  N_11
REMARK    5  A    between atoms: C_14  and  C_15
REMARK    6  A    between atoms: C_17  and  S_18
REMARK    7  A    between atoms: S_18  and  C_19
REMARK    8  A    between atoms: C_21  and  C_22
REMARK                            x       y       z     vdW  Elec       q    Type
REMARK                         _______ _______ _______ _____ _____    ______ ____
ROOT
ATOM      1  N   UNL     1       8.125   9.612  17.921  0.00  0.00    +0.000 N 
ATOM      2  C   UNL     1       7.995   8.200  17.994  0.00  0.00    +0.000 A 
ATOM      3  C   UNL     1       7.389   7.511  16.942  0.00  0.00    +0.000 A 
ATOM      4  C   UNL     1       7.248   6.120  17.015  0.00  0.00    +0.000 A 
ATOM      5  C   UNL     1       7.705   5.471  18.162  0.00  0.00    +0.000 A 
ATOM      6  C   UNL     1       8.242   6.227  19.183  0.00  0.00    +0.000 A 
ATOM      7  N   UNL     1       8.393   7.561  19.115  0.00  0.00    +0.000 NA
ATOM      8  H   UNL     1       8.146   9.892  16.942  0.00  0.00    +0.000 HD
ENDROOT
BRANCH   1  13
ATOM      9  C   UNL     1       9.993  11.538  20.511  0.00  0.00    +0.000 A 
ATOM     10  C   UNL     1      11.081  11.990  19.760  0.00  0.00    +0.000 A 
ATOM     11  C   UNL     1      11.218  11.640  18.419  0.00  0.00    +0.000 A 
ATOM     12  C   UNL     1      10.262  10.829  17.820  0.00  0.00    +0.000 A 
ATOM     13  C   UNL     1       9.187  10.319  18.561  0.00  0.00    +0.000 A 
ATOM     14  C   UNL     1       9.056  10.689  19.909  0.00  0.00    +0.000 A 
BRANCH   9  17
ATOM     15  C   UNL     1       8.851  12.839  22.295  0.00  0.00    +0.000 C 
ATOM     16  O   UNL     1       8.034  13.409  21.584  0.00  0.00    +0.000 OA
ATOM     17  N   UNL     1       9.798  11.918  21.862  0.00  0.00    +0.000 N 
ATOM     18  H   UNL     1      10.284  11.378  22.563  0.00  0.00    +0.000 HD
BRANCH  15  20
ATOM     19  C   UNL     1       8.117  11.991  24.526  0.00  0.00    +0.000 C 
ATOM     20  C   UNL     1       8.896  13.075  23.791  0.00  0.00    +0.000 C 
ENDBRANCH  15  20
ENDBRANCH   9  17
ENDBRANCH   1  13
BRANCH   4  21
ATOM     21  C   UNL     1       6.623   5.354  15.930  0.00  0.00    +0.000 A 
ATOM     22  N   UNL     1       7.236   5.133  14.713  0.00  0.00    +0.000 N 
ATOM     23  C   UNL     1       6.435   4.323  13.967  0.00  0.00    +0.000 A 
ATOM     24  N   UNL     1       5.334   4.007  14.596  0.00  0.00    +0.000 NA
ATOM     25  C   UNL     1       5.415   4.666  15.807  0.00  0.00    +0.000 A 
ATOM     26  H   UNL     1       8.138   5.472  14.417  0.00  0.00    +0.000 HD
BRANCH  25  27
ATOM     27  C   UNL     1       4.338   4.605  16.786  0.00  0.00    +0.000 A 
ATOM     28  C   UNL     1       3.813   5.791  17.320  0.00  0.00    +0.000 A 
ATOM     29  C   UNL     1       2.772   5.746  18.252  0.00  0.00    +0.000 A 
ATOM     30  C   UNL     1       2.249   4.518  18.640  0.00  0.00    +0.000 A 
ATOM     31  F   UNL     1       1.251   4.475  19.530  0.00  0.00    +0.000 F 
ATOM     32  C   UNL     1       2.754   3.332  18.124  0.00  0.00    +0.000 A 
ATOM     33  C   UNL     1       3.812   3.376  17.216  0.00  0.00    +0.000 A 
ENDBRANCH  25  27
BRANCH  23  34
ATOM     34  S   UNL     1       6.942   3.851  12.390  0.00  0.00    +0.000 S 
ATOM     35  C   UNL     1       5.518   2.885  11.844  0.00  0.00    +0.000 C 
ENDBRANCH  23  34
ENDBRANCH   4  21
TORSDOF 6
ENDMDL
MODEL 2
REMARK VINA RESULT:      -8.4      6.004      8.848
REMARK  Name = 
REMARK  8 active torsions:
REMARK  status: ('A' for Active; 'I' for Inactive)
REMARK    1  A    between atoms: C_1  and  C_2
REMARK    2  A    between atoms: C_2  and  C_3
REMARK    3  A    between atoms: N_5  and  C_6
REMARK    4  A    between atoms: C_10  and  N_11
REMARK    5  A    between atoms: C_14  and  C_15
REMARK    6  A    between atoms: C_17  and  S_18
REMARK    7  A    between atoms: S_18  and  C_19
REMARK    8  A    between atoms: C_21  and  C_22
REMARK                            x       y       z     vdW  Elec       q    Type
REMARK                         _______ _______ _______ _____ _____    ______ ____
ROOT
ATOM      1  N   UNL     1       0.998   9.404  20.321  0.00  0.00    +0.000 N 
ATOM      2  C   UNL     1       1.793   8.641  19.426  0.00  0.00    +0.000 A 
ATOM      3  C   UNL     1       2.156   7.338  19.771  0.00  0.00    +0.000 A 
ATOM      4  C   UNL     1       2.951   6.586  18.898  0.00  0.00    +0.000 A 
ATOM      5  C   UNL     1       3.373   7.185  17.711  0.00  0.00    +0.000 A 
ATOM      6  C   UNL     1       3.020   8.495  17.467  0.00  0.00    +0.000 A 
ATOM      7  N   UNL     1       2.246   9.220  18.293  0.00  0.00    +0.000 NA
ATOM      8  H   UNL     1       0.445   8.771  20.895  0.00  0.00    +0.000 HD
ENDROOT
BRANCH   1  13
ATOM      9  C   UNL     1      -1.387  11.262  18.137  0.00  0.00    +0.000 A 
ATOM     10  C   UNL     1      -1.408  12.504  18.778  0.00  0.00    +0.000 A 
ATOM     11  C   UNL     1      -0.669  12.722  19.937  0.00  0.00    +0.000 A 
ATOM     12  C   UNL     1       0.099  11.691  20.466  0.00  0.00    +0.000 A 
ATOM     13  C   UNL     1       0.101  10.421  19.874  0.00  0.00    +0.000 A 
ATOM     14  C   UNL     1      -0.642  10.218  18.700  0.00  0.00    +0.000 A 
BRANCH   9  17
ATOM     15  C   UNL     1      -3.472  10.960  16.819  0.00  0.00    +0.000 C 
ATOM     16  O   UNL     1      -4.270  11.143  17.729  0.00  0.00    +0.000 OA
ATOM     17  N   UNL     1      -2.088  11.024  16.930  0.00  0.00    +0.000 N 
ATOM     18  H   UNL     1      -1.549  11.042  16.077  0.00  0.00    +0.000 HD
BRANCH  15  20
ATOM     19  C   UNL     1      -2.819  10.007  14.605  0.00  0.00    +0.000 C 
ATOM     20  C   UNL     1      -3.940  10.653  15.410  0.00  0.00    +0.000 C 
ENDBRANCH  15  20
ENDBRANCH   9  17
ENDBRANCH   1  13
BRANCH   4  21
ATOM     21  C   UNL     1       3.351   5.210  19.216  0.00  0.00    +0.000 A 
ATOM     22  N   UNL     1       2.823   4.496  20.273  0.00  0.00    +0.000 N 
ATOM     23  C   UNL     1       3.336   3.236  20.242  0.00  0.00    +0.000 A 
ATOM     24  N   UNL     1       4.174   3.071  19.253  0.00  0.00    +0.000 NA
ATOM     25  C   UNL     1       4.225   4.298  18.622  0.00  0.00    +0.000 A 
ATOM     26  H   UNL     1       2.144   4.819  20.945  0.00  0.00    +0.000 HD
BRANCH  25  27
ATOM     27  C   UNL     1       5.100   4.538  17.483  0.00  0.00    +0.000 A 
ATOM     28  C   UNL     1       4.705   4.128  16.202  0.00  0.00    +0.000 A 
ATOM     29  C   UNL     1       5.532   4.363  15.099  0.00  0.00    +0.000 A 
ATOM     30  C   UNL     1       6.745   5.018  15.276  0.00  0.00    +0.000 A 
ATOM     31  F   UNL     1       7.535   5.245  14.219  0.00  0.00    +0.000 F 
ATOM     32  C   UNL     1       7.155   5.433  16.535  0.00  0.00    +0.000 A 
ATOM     33  C   UNL     1       6.344   5.172  17.640  0.00  0.00    +0.000 A 
ENDBRANCH  25  27
BRANCH  23  34
ATOM     34  S   UNL     1       2.848   2.094  21.436  0.00  0.00    +0.000 S 
ATOM     35  C   UNL     1       1.188   2.688  21.825  0.00  0.00    +0.000 C 
ENDBRANCH  23  34
ENDBRANCH   4  21
TORSDOF 6
ENDMDL
MODEL 3
REMARK VINA RESULT:      -8.3      4.824      6.205
REMARK  Name = 
REMARK  8 active torsions:
REMARK  status: ('A' for Active; 'I' for Inactive)
REMARK    1  A    between atoms: C_1  and  C_2
REMARK    2  A    between atoms: C_2  and  C_3
REMARK    3  A    between atoms: N_5  and  C_6
REMARK    4  A    between atoms: C_10  and  N_11
REMARK    5  A    between atoms: C_14  and  C_15
REMARK    6  A    between atoms: C_17  and  S_18
REMARK    7  A    between atoms: S_18  and  C_19
REMARK    8  A    between atoms: C_21  and  C_22
REMARK                            x       y       z     vdW  Elec       q    Type
REMARK                         _______ _______ _______ _____ _____    ______ ____
ROOT
ATOM      1  N   UNL     1       0.953  10.745  17.915  0.00  0.00    +0.000 N 
ATOM      2  C   UNL     1       1.369   9.604  18.650  0.00  0.00    +0.000 A 
ATOM      3  C   UNL     1       2.067   8.585  17.999  0.00  0.00    +0.000 A 
ATOM      4  C   UNL     1       2.469   7.452  18.716  0.00  0.00    +0.000 A 
ATOM      5  C   UNL     1       2.131   7.374  20.067  0.00  0.00    +0.000 A 
ATOM      6  C   UNL     1       1.391   8.395  20.626  0.00  0.00    +0.000 A 
ATOM      7  N   UNL     1       1.013   9.492  19.948  0.00  0.00    +0.000 NA
ATOM      8  H   UNL     1       1.577  10.872  17.120  0.00  0.00    +0.000 HD
ENDROOT
BRANCH   1  13
ATOM      9  C   UNL     1       1.847  13.959  19.581  0.00  0.00    +0.000 A 
ATOM     10  C   UNL     1       0.585  14.397  19.990  0.00  0.00    +0.000 A 
ATOM     11  C   UNL     1      -0.558  13.658  19.694  0.00  0.00    +0.000 A 
ATOM     12  C   UNL     1      -0.442  12.470  18.981  0.00  0.00    +0.000 A 
ATOM     13  C   UNL     1       0.805  12.032  18.515  0.00  0.00    +0.000 A 
ATOM     14  C   UNL     1       1.950  12.782  18.830  0.00  0.00    +0.000 A 
BRANCH   9  17
ATOM     15  C   UNL     1       3.772  14.463  21.071  0.00  0.00    +0.000 C 
ATOM     16  O   UNL     1       3.529  13.634  21.938  0.00  0.00    +0.000 OA
ATOM     17  N   UNL     1       3.033  14.661  19.910  0.00  0.00    +0.000 N 
ATOM     18  H   UNL     1       3.437  15.239  19.188  0.00  0.00    +0.000 HD
BRANCH  15  20
ATOM     19  C   UNL     1       6.188  14.619  21.682  0.00  0.00    +0.000 C 
ATOM     20  C   UNL     1       4.972  15.384  21.172  0.00  0.00    +0.000 C 
ENDBRANCH  15  20
ENDBRANCH   9  17
ENDBRANCH   1  13
BRANCH   4  21
ATOM     21  C   UNL     1       3.210   6.360  18.074  0.00  0.00    +0.000 A 
ATOM     22  N   UNL     1       4.040   6.548  16.987  0.00  0.00    +0.000 N 
ATOM     23  C   UNL     1       4.638   5.362  16.690  0.00  0.00    +0.000 A 
ATOM     24  N   UNL     1       4.253   4.404  17.489  0.00  0.00    +0.000 NA
ATOM     25  C   UNL     1       3.337   4.995  18.338  0.00  0.00    +0.000 A 
ATOM     26  H   UNL     1       4.218   7.414  16.502  0.00  0.00    +0.000 HD
BRANCH  25  27
ATOM     27  C   UNL     1       2.632   4.231  19.357  0.00  0.00    +0.000 A 
ATOM     28  C   UNL     1       3.270   3.934  20.571  0.00  0.00    +0.000 A 
ATOM     29  C   UNL     1       2.600   3.211  21.563  0.00  0.00    +0.000 A 
ATOM     30  C   UNL     1       1.291   2.796  21.345  0.00  0.00    +0.000 A 
ATOM     31  F   UNL     1       0.649   2.106  22.296  0.00  0.00    +0.000 F 
ATOM     32  C   UNL     1       0.641   3.079  20.153  0.00  0.00    +0.000 A 
ATOM     33  C   UNL     1       1.320   3.775  19.152  0.00  0.00    +0.000 A 
ENDBRANCH  25  27
BRANCH  23  34
ATOM     34  S   UNL     1       5.753   5.282  15.379  0.00  0.00    +0.000 S 
ATOM     35  C   UNL     1       7.196   4.567  16.196  0.00  0.00    +0.000 C 
ENDBRANCH  23  34
ENDBRANCH   4  21
TORSDOF 6
ENDMDL
MODEL 4
REMARK VINA RESULT:      -8.3      5.120      6.579
REMARK  Name = 
REMARK  8 active torsions:
REMARK  status: ('A' for Active; 'I' for Inactive)
REMARK    1  A    between atoms: C_1  and  C_2
REMARK    2  A    between atoms: C_2  and  C_3
REMARK    3  A    between atoms: N_5  and  C_6
REMARK    4  A    between atoms: C_10  and  N_11
REMARK    5  A    between atoms: C_14  and  C_15
REMARK    6  A    between atoms: C_17  and  S_18
REMARK    7  A    between atoms: S_18  and  C_19
REMARK    8  A    between atoms: C_21  and  C_22
REMARK                            x       y       z     vdW  Elec       q    Type
REMARK                         _______ _______ _______ _____ _____    ______ ____
ROOT
ATOM      1  N   UNL     1       0.532  10.665  17.931  0.00  0.00    +0.000 N 
ATOM      2  C   UNL     1       1.088   9.597  18.682  0.00  0.00    +0.000 A 
ATOM      3  C   UNL     1       1.825   8.608  18.027  0.00  0.00    +0.000 A 
ATOM      4  C   UNL     1       2.365   7.545  18.761  0.00  0.00    +0.000 A 
ATOM      5  C   UNL     1       2.124   7.505  20.135  0.00  0.00    +0.000 A 
ATOM      6  C   UNL     1       1.340   8.488  20.700  0.00  0.00    +0.000 A 
ATOM      7  N   UNL     1       0.829   9.518  20.005  0.00  0.00    +0.000 NA
ATOM      8  H   UNL     1       1.089  10.804  17.091  0.00  0.00    +0.000 HD
ENDROOT
BRANCH   1  13
ATOM      9  C   UNL     1       1.261  13.997  19.439  0.00  0.00    +0.000 A 
ATOM     10  C   UNL     1      -0.014  14.366  19.876  0.00  0.00    +0.000 A 
ATOM     11  C   UNL     1      -1.113  13.542  19.649  0.00  0.00    +0.000 A 
ATOM     12  C   UNL     1      -0.941  12.336  18.979  0.00  0.00    +0.000 A 
ATOM     13  C   UNL     1       0.317  11.963  18.486  0.00  0.00    +0.000 A 
ATOM     14  C   UNL     1       1.418  12.800  18.730  0.00  0.00    +0.000 A 
BRANCH   9  17
ATOM     15  C   UNL     1       3.260  14.614  20.780  0.00  0.00    +0.000 C 
ATOM     16  O   UNL     1       3.168  13.734  21.626  0.00  0.00    +0.000 OA
ATOM     17  N   UNL     1       2.406  14.789  19.697  0.00  0.00    +0.000 N 
ATOM     18  H   UNL     1       2.694  15.428  18.970  0.00  0.00    +0.000 HD
BRANCH  15  20
ATOM     19  C   UNL     1       4.366  16.493  19.562  0.00  0.00    +0.000 C 
ATOM     20  C   UNL     1       4.381  15.634  20.821  0.00  0.00    +0.000 C 
ENDBRANCH  15  20
ENDBRANCH   9  17
ENDBRANCH   1  13
BRANCH   4  21
ATOM     21  C   UNL     1       3.152   6.487  18.116  0.00  0.00    +0.000 A 
ATOM     22  N   UNL     1       3.959   6.710  17.018  0.00  0.00    +0.000 N 
ATOM     23  C   UNL     1       4.610   5.553  16.720  0.00  0.00    +0.000 A 
ATOM     24  N   UNL     1       4.281   4.581  17.528  0.00  0.00    +0.000 NA
ATOM     25  C   UNL     1       3.347   5.132  18.384  0.00  0.00    +0.000 A 
ATOM     26  H   UNL     1       4.089   7.581  16.528  0.00  0.00    +0.000 HD
BRANCH  25  27
ATOM     27  C   UNL     1       2.692   4.339  19.415  0.00  0.00    +0.000 A 
ATOM     28  C   UNL     1       1.306   4.131  19.359  0.00  0.00    +0.000 A 
ATOM     29  C   UNL     1       0.667   3.363  20.337  0.00  0.00    +0.000 A 
ATOM     30  C   UNL     1       1.414   2.794  21.362  0.00  0.00    +0.000 A 
ATOM     31  F   UNL     1       0.803   2.056  22.297  0.00  0.00    +0.000 F 
ATOM     32  C   UNL     1       2.786   2.987  21.436  0.00  0.00    +0.000 A 
ATOM     33  C   UNL     1       3.420   3.778  20.477  0.00  0.00    +0.000 A 
ENDBRANCH  25  27
BRANCH  23  34
ATOM     34  S   UNL     1       5.713   5.520  15.396  0.00  0.00    +0.000 S 
ATOM     35  C   UNL     1       7.073   4.566  16.103  0.00  0.00    +0.000 C 
ENDBRANCH  23  34
ENDBRANCH   4  21
TORSDOF 6
ENDMDL
MODEL 5
REMARK VINA RESULT:      -8.2      5.361      7.107
REMARK  Name = 
REMARK  8 active torsions:
REMARK  status: ('A' for Active; 'I' for Inactive)
REMARK    1  A    between atoms: C_1  and  C_2
REMARK    2  A    between atoms: C_2  and  C_3
REMARK    3  A    between atoms: N_5  and  C_6
REMARK    4  A    between atoms: C_10  and  N_11
REMARK    5  A    between atoms: C_14  and  C_15
REMARK    6  A    between atoms: C_17  and  S_18
REMARK    7  A    between atoms: S_18  and  C_19
REMARK    8  A    between atoms: C_21  and  C_22
REMARK                            x       y       z     vdW  Elec       q    Type
REMARK                         _______ _______ _______ _____ _____    ______ ____
ROOT
ATOM      1  N   UNL     1       1.787   8.432  21.238  0.00  0.00    +0.000 N 
ATOM      2  C   UNL     1       2.082   8.203  19.868  0.00  0.00    +0.000 A 
ATOM      3  C   UNL     1       2.662   6.993  19.483  0.00  0.00    +0.000 A 
ATOM      4  C   UNL     1       2.966   6.767  18.135  0.00  0.00    +0.000 A 
ATOM      5  C   UNL     1       2.694   7.785  17.220  0.00  0.00    +0.000 A 
ATOM      6  C   UNL     1       2.173   8.973  17.685  0.00  0.00    +0.000 A 
ATOM      7  N   UNL     1       1.865   9.193  18.975  0.00  0.00    +0.000 NA
ATOM      8  H   UNL     1       1.643   7.535  21.699  0.00  0.00    +0.000 HD
ENDROOT
BRANCH   1  13
ATOM      9  C   UNL     1      -0.400  11.437  21.538  0.00  0.00    +0.000 A 
ATOM     10  C   UNL     1      -1.145  11.100  22.672  0.00  0.00    +0.000 A 
ATOM     11  C   UNL     1      -0.953   9.881  23.316  0.00  0.00    +0.000 A 
ATOM     12  C   UNL     1      -0.010   8.986  22.826  0.00  0.00    +0.000 A 
ATOM     13  C   UNL     1       0.716   9.274  21.662  0.00  0.00    +0.000 A 
ATOM     14  C   UNL     1       0.519  10.512  21.028  0.00  0.00    +0.000 A 
BRANCH   9  17
ATOM     15  C   UNL     1       0.066  13.868  21.315  0.00  0.00    +0.000 C 
ATOM     16  O   UNL     1       0.824  13.978  22.270  0.00  0.00    +0.000 OA
ATOM     17  N   UNL     1      -0.536  12.689  20.890  0.00  0.00    +0.000 N 
ATOM     18  H   UNL     1      -0.984  12.689  19.985  0.00  0.00    +0.000 HD
BRANCH  15  20
ATOM     19  C   UNL     1      -0.235  14.679  18.972  0.00  0.00    +0.000 C 
ATOM     20  C   UNL     1      -0.288  15.059  20.447  0.00  0.00    +0.000 C 
ENDBRANCH  15  20
ENDBRANCH   9  17
ENDBRANCH   1  13
BRANCH   4  21
ATOM     21  C   UNL     1       3.570   5.508  17.685  0.00  0.00    +0.000 A 
ATOM     22  N   UNL     1       4.402   5.420  16.587  0.00  0.00    +0.000 N 
ATOM     23  C   UNL     1       4.856   4.141  16.491  0.00  0.00    +0.000 A 
ATOM     24  N   UNL     1       4.374   3.376  17.434  0.00  0.00    +0.000 NA
ATOM     25  C   UNL     1       3.543   4.199  18.169  0.00  0.00    +0.000 A 
ATOM     26  H   UNL     1       4.672   6.169  15.969  0.00  0.00    +0.000 HD
BRANCH  25  27
ATOM     27  C   UNL     1       2.769   3.697  19.295  0.00  0.00    +0.000 A 
ATOM     28  C   UNL     1       3.428   3.203  20.430  0.00  0.00    +0.000 A 
ATOM     29  C   UNL     1       2.696   2.730  21.523  0.00  0.00    +0.000 A 
ATOM     30  C   UNL     1       1.307   2.760  21.485  0.00  0.00    +0.000 A 
ATOM     31  F   UNL     1       0.606   2.309  22.532  0.00  0.00    +0.000 F 
ATOM     32  C   UNL     1       0.633   3.244  20.372  0.00  0.00    +0.000 A 
ATOM     33  C   UNL     1       1.364   3.690  19.270  0.00  0.00    +0.000 A 
ENDBRANCH  25  27
BRANCH  23  34
ATOM     34  S   UNL     1       5.938   3.720  15.218  0.00  0.00    +0.000 S 
ATOM     35  C   UNL     1       7.102   5.099  15.283  0.00  0.00    +0.000 C 
ENDBRANCH  23  34
ENDBRANCH   4  21
TORSDOF 6
ENDMDL
MODEL 6
REMARK VINA RESULT:      -8.2      1.900      2.768
REMARK  Name = 
REMARK  8 active torsions:
REMARK  status: ('A' for Active; 'I' for Inactive)
REMARK    1  A    between atoms: C_1  and  C_2
REMARK    2  A    between atoms: C_2  and  C_3
REMARK    3  A    between atoms: N_5  and  C_6
REMARK    4  A    between atoms: C_10  and  N_11
REMARK    5  A    between atoms: C_14  and  C_15
REMARK    6  A    between atoms: C_17  and  S_18
REMARK    7  A    between atoms: S_18  and  C_19
REMARK    8  A    between atoms: C_21  and  C_22
REMARK                            x       y       z     vdW  Elec       q    Type
REMARK                         _______ _______ _______ _____ _____    ______ ____
ROOT
ATOM      1  N   UNL     1       7.794   9.898  17.754  0.00  0.00    +0.000 N 
ATOM      2  C   UNL     1       7.803   8.482  17.866  0.00  0.00    +0.000 A 
ATOM      3  C   UNL     1       7.198   7.711  16.872  0.00  0.00    +0.000 A 
ATOM      4  C   UNL     1       7.193   6.315  16.984  0.00  0.00    +0.000 A 
ATOM      5  C   UNL     1       7.783   5.744  18.112  0.00  0.00    +0.000 A 
ATOM      6  C   UNL     1       8.310   6.574  19.078  0.00  0.00    +0.000 A 
ATOM      7  N   UNL     1       8.331   7.914  18.972  0.00  0.00    +0.000 NA
ATOM      8  H   UNL     1       7.726  10.151  16.771  0.00  0.00    +0.000 HD
ENDROOT
BRANCH   1  13
ATOM      9  C   UNL     1      10.332  12.614  18.049  0.00  0.00    +0.000 A 
ATOM     10  C   UNL     1      11.052  12.173  19.162  0.00  0.00    +0.000 A 
ATOM     11  C   UNL     1      10.689  11.008  19.832  0.00  0.00    +0.000 A 
ATOM     12  C   UNL     1       9.594  10.274  19.389  0.00  0.00    +0.000 A 
ATOM     13  C   UNL     1       8.823  10.718  18.306  0.00  0.00    +0.000 A 
ATOM     14  C   UNL     1       9.207  11.889  17.634  0.00  0.00    +0.000 A 
BRANCH   9  17
ATOM     15  C   UNL     1      10.424  15.073  17.699  0.00  0.00    +0.000 C 
ATOM     16  O   UNL     1       9.860  15.406  18.733  0.00  0.00    +0.000 OA
ATOM     17  N   UNL     1      10.706  13.767  17.316  0.00  0.00    +0.000 N 
ATOM     18  H   UNL     1      11.339  13.630  16.541  0.00  0.00    +0.000 HD
BRANCH  15  20
ATOM     19  C   UNL     1      11.747  17.170  17.400  0.00  0.00    +0.000 C 
ATOM     20  C   UNL     1      10.914  16.102  16.700  0.00  0.00    +0.000 C 
ENDBRANCH  15  20
ENDBRANCH   9  17
ENDBRANCH   1  13
BRANCH   4  21
ATOM     21  C   UNL     1       6.575   5.465  15.960  0.00  0.00    +0.000 A 
ATOM     22  N   UNL     1       7.167   5.200  14.742  0.00  0.00    +0.000 N 
ATOM     23  C   UNL     1       6.382   4.318  14.064  0.00  0.00    +0.000 A 
ATOM     24  N   UNL     1       5.310   3.995  14.737  0.00  0.00    +0.000 NA
ATOM     25  C   UNL     1       5.392   4.725  15.907  0.00  0.00    +0.000 A 
ATOM     26  H   UNL     1       8.047   5.556  14.404  0.00  0.00    +0.000 HD
BRANCH  25  27
ATOM     27  C   UNL     1       4.343   4.678  16.915  0.00  0.00    +0.000 A 
ATOM     28  C   UNL     1       3.830   5.871  17.444  0.00  0.00    +0.000 A 
ATOM     29  C   UNL     1       2.814   5.839  18.404  0.00  0.00    +0.000 A 
ATOM     30  C   UNL     1       2.304   4.617  18.825  0.00  0.00    +0.000 A 
ATOM     31  F   UNL     1       1.329   4.586  19.742  0.00  0.00    +0.000 F 
ATOM     32  C   UNL     1       2.796   3.424  18.315  0.00  0.00    +0.000 A 
ATOM     33  C   UNL     1       3.830   3.455  17.378  0.00  0.00    +0.000 A 
ENDBRANCH  25  27
BRANCH  23  34
ATOM     34  S   UNL     1       6.870   3.778  12.502  0.00  0.00    +0.000 S 
ATOM     35  C   UNL     1       5.340   3.031  11.901  0.00  0.00    +0.000 C 
ENDBRANCH  23  34
ENDBRANCH   4  21
TORSDOF 6
ENDMDL
MODEL 7
REMARK VINA RESULT:      -8.2      4.875      6.199
REMARK  Name = 
REMARK  8 active torsions:
REMARK  status: ('A' for Active; 'I' for Inactive)
REMARK    1  A    between atoms: C_1  and  C_2
REMARK    2  A    between atoms: C_2  and  C_3
REMARK    3  A    between atoms: N_5  and  C_6
REMARK    4  A    between atoms: C_10  and  N_11
REMARK    5  A    between atoms: C_14  and  C_15
REMARK    6  A    between atoms: C_17  and  S_18
REMARK    7  A    between atoms: S_18  and  C_19
REMARK    8  A    between atoms: C_21  and  C_22
REMARK                            x       y       z     vdW  Elec       q    Type
REMARK                         _______ _______ _______ _____ _____    ______ ____
ROOT
ATOM      1  N   UNL     1       1.278  10.652  17.845  0.00  0.00    +0.000 N 
ATOM      2  C   UNL     1       1.618   9.486  18.581  0.00  0.00    +0.000 A 
ATOM      3  C   UNL     1       2.269   8.433  17.935  0.00  0.00    +0.000 A 
ATOM      4  C   UNL     1       2.595   7.276  18.653  0.00  0.00    +0.000 A 
ATOM      5  C   UNL     1       2.233   7.212  19.999  0.00  0.00    +0.000 A 
ATOM      6  C   UNL     1       1.543   8.270  20.551  0.00  0.00    +0.000 A 
ATOM      7  N   UNL     1       1.238   9.390  19.873  0.00  0.00    +0.000 NA
ATOM      8  H   UNL     1       1.920  10.747  17.061  0.00  0.00    +0.000 HD
ENDROOT
BRANCH   1  13
ATOM      9  C   UNL     1       2.339  13.913  19.311  0.00  0.00    +0.000 A 
ATOM     10  C   UNL     1       1.149  14.321  19.918  0.00  0.00    +0.000 A 
ATOM     11  C   UNL     1      -0.005  13.547  19.821  0.00  0.00    +0.000 A 
ATOM     12  C   UNL     1       0.028  12.353  19.110  0.00  0.00    +0.000 A 
ATOM     13  C   UNL     1       1.193  11.943  18.449  0.00  0.00    +0.000 A 
ATOM     14  C   UNL     1       2.351  12.729  18.563  0.00  0.00    +0.000 A 
BRANCH   9  17
ATOM     15  C   UNL     1       3.972  15.615  18.528  0.00  0.00    +0.000 C 
ATOM     16  O   UNL     1       3.358  15.986  17.535  0.00  0.00    +0.000 OA
ATOM     17  N   UNL     1       3.541  14.652  19.433  0.00  0.00    +0.000 N 
ATOM     18  H   UNL     1       4.041  14.570  20.306  0.00  0.00    +0.000 HD
BRANCH  15  20
ATOM     19  C   UNL     1       5.785  15.683  20.244  0.00  0.00    +0.000 C 
ATOM     20  C   UNL     1       5.314  16.215  18.895  0.00  0.00    +0.000 C 
ENDBRANCH  15  20
ENDBRANCH   9  17
ENDBRANCH   1  13
BRANCH   4  21
ATOM     21  C   UNL     1       3.285   6.147  18.017  0.00  0.00    +0.000 A 
ATOM     22  N   UNL     1       4.090   6.285  16.904  0.00  0.00    +0.000 N 
ATOM     23  C   UNL     1       4.642   5.074  16.619  0.00  0.00    +0.000 A 
ATOM     24  N   UNL     1       4.249   4.146  17.450  0.00  0.00    +0.000 NA
ATOM     25  C   UNL     1       3.376   4.785  18.309  0.00  0.00    +0.000 A 
ATOM     26  H   UNL     1       4.282   7.133  16.395  0.00  0.00    +0.000 HD
BRANCH  25  27
ATOM     27  C   UNL     1       2.675   4.067  19.364  0.00  0.00    +0.000 A 
ATOM     28  C   UNL     1       3.393   3.565  20.460  0.00  0.00    +0.000 A 
ATOM     29  C   UNL     1       2.730   2.884  21.485  0.00  0.00    +0.000 A 
ATOM     30  C   UNL     1       1.352   2.715  21.421  0.00  0.00    +0.000 A 
ATOM     31  F   UNL     1       0.717   2.064  22.404  0.00  0.00    +0.000 F 
ATOM     32  C   UNL     1       0.623   3.203  20.346  0.00  0.00    +0.000 A 
ATOM     33  C   UNL     1       1.287   3.858  19.308  0.00  0.00    +0.000 A 
ENDBRANCH  25  27
BRANCH  23  34
ATOM     34  S   UNL     1       5.718   4.928  15.281  0.00  0.00    +0.000 S 
ATOM     35  C   UNL     1       7.290   4.663  16.129  0.00  0.00    +0.000 C 
ENDBRANCH  23  34
ENDBRANCH   4  21
TORSDOF 6
ENDMDL
MODEL 8
REMARK VINA RESULT:      -8.2      6.328      7.796
REMARK  Name = 
REMARK  8 active torsions:
REMARK  status: ('A' for Active; 'I' for Inactive)
REMARK    1  A    between atoms: C_1  and  C_2
REMARK    2  A    between atoms: C_2  and  C_3
REMARK    3  A    between atoms: N_5  and  C_6
REMARK    4  A    between atoms: C_10  and  N_11
REMARK    5  A    between atoms: C_14  and  C_15
REMARK    6  A    between atoms: C_17  and  S_18
REMARK    7  A    between atoms: S_18  and  C_19
REMARK    8  A    between atoms: C_21  and  C_22
REMARK                            x       y       z     vdW  Elec       q    Type
REMARK                         _______ _______ _______ _____ _____    ______ ____
ROOT
ATOM      1  N   UNL     1       0.543  10.738  18.012  0.00  0.00    +0.000 N 
ATOM      2  C   UNL     1       1.081   9.649  18.747  0.00  0.00    +0.000 A 
ATOM      3  C   UNL     1       1.838   8.681  18.084  0.00  0.00    +0.000 A 
ATOM      4  C   UNL     1       2.361   7.598  18.801  0.00  0.00    +0.000 A 
ATOM      5  C   UNL     1       2.081   7.516  20.166  0.00  0.00    +0.000 A 
ATOM      6  C   UNL     1       1.279   8.481  20.738  0.00  0.00    +0.000 A 
ATOM      7  N   UNL     1       0.785   9.530  20.059  0.00  0.00    +0.000 NA
ATOM      8  H   UNL     1       1.123  10.903  17.193  0.00  0.00    +0.000 HD
ENDROOT
BRANCH   1  13
ATOM      9  C   UNL     1      -1.272  13.617  19.537  0.00  0.00    +0.000 A 
ATOM     10  C   UNL     1      -0.295  14.612  19.449  0.00  0.00    +0.000 A 
ATOM     11  C   UNL     1       0.963  14.334  18.922  0.00  0.00    +0.000 A 
ATOM     12  C   UNL     1       1.252  13.048  18.478  0.00  0.00    +0.000 A 
ATOM     13  C   UNL     1       0.310  12.018  18.599  0.00  0.00    +0.000 A 
ATOM     14  C   UNL     1      -0.958  12.316  19.124  0.00  0.00    +0.000 A 
BRANCH   9  17
ATOM     15  C   UNL     1      -2.911  14.000  21.366  0.00  0.00    +0.000 C 
ATOM     16  O   UNL     1      -2.127  13.940  22.304  0.00  0.00    +0.000 OA
ATOM     17  N   UNL     1      -2.577  13.880  20.022  0.00  0.00    +0.000 N 
ATOM     18  H   UNL     1      -3.275  14.135  19.339  0.00  0.00    +0.000 HD
BRANCH  15  20
ATOM     19  C   UNL     1      -5.222  13.260  20.775  0.00  0.00    +0.000 C 
ATOM     20  C   UNL     1      -4.390  14.245  21.588  0.00  0.00    +0.000 C 
ENDBRANCH  15  20
ENDBRANCH   9  17
ENDBRANCH   1  13
BRANCH   4  21
ATOM     21  C   UNL     1       3.167   6.561  18.147  0.00  0.00    +0.000 A 
ATOM     22  N   UNL     1       3.981   6.812  17.060  0.00  0.00    +0.000 N 
ATOM     23  C   UNL     1       4.651   5.669  16.750  0.00  0.00    +0.000 A 
ATOM     24  N   UNL     1       4.328   4.680  17.540  0.00  0.00    +0.000 NA
ATOM     25  C   UNL     1       3.379   5.204  18.396  0.00  0.00    +0.000 A 
ATOM     26  H   UNL     1       4.104   7.692  16.584  0.00  0.00    +0.000 HD
BRANCH  25  27
ATOM     27  C   UNL     1       2.726   4.387  19.409  0.00  0.00    +0.000 A 
ATOM     28  C   UNL     1       1.342   4.172  19.345  0.00  0.00    +0.000 A 
ATOM     29  C   UNL     1       0.705   3.380  20.305  0.00  0.00    +0.000 A 
ATOM     30  C   UNL     1       1.453   2.795  21.321  0.00  0.00    +0.000 A 
ATOM     31  F   UNL     1       0.843   2.035  22.238  0.00  0.00    +0.000 F 
ATOM     32  C   UNL     1       2.824   2.995  21.403  0.00  0.00    +0.000 A 
ATOM     33  C   UNL     1       3.455   3.809  20.462  0.00  0.00    +0.000 A 
ENDBRANCH  25  27
BRANCH  23  34
ATOM     34  S   UNL     1       5.766   5.671  15.436  0.00  0.00    +0.000 S 
ATOM     35  C   UNL     1       6.020   3.900  15.196  0.00  0.00    +0.000 C 
ENDBRANCH  23  34
ENDBRANCH   4  21
TORSDOF 6
ENDMDL
MODEL 9
REMARK VINA RESULT:      -8.2      5.986      7.384
REMARK  Name = 
REMARK  8 active torsions:
REMARK  status: ('A' for Active; 'I' for Inactive)
REMARK    1  A    between atoms: C_1  and  C_2
REMARK    2  A    between atoms: C_2  and  C_3
REMARK    3  A    between atoms: N_5  and  C_6
REMARK    4  A    between atoms: C_10  and  N_11
REMARK    5  A    between atoms: C_14  and  C_15
REMARK    6  A    between atoms: C_17  and  S_18
REMARK    7  A    between atoms: S_18  and  C_19
REMARK    8  A    between atoms: C_21  and  C_22
REMARK                            x       y       z     vdW  Elec       q    Type
REMARK                         _______ _______ _______ _____ _____    ______ ____
ROOT
ATOM      1  N   UNL     1       1.147  10.546  17.830  0.00  0.00    +0.000 N 
ATOM      2  C   UNL     1       1.530   9.402  18.578  0.00  0.00    +0.000 A 
ATOM      3  C   UNL     1       2.195   8.354  17.938  0.00  0.00    +0.000 A 
ATOM      4  C   UNL     1       2.563   7.218  18.668  0.00  0.00    +0.000 A 
ATOM      5  C   UNL     1       2.228   7.168  20.022  0.00  0.00    +0.000 A 
ATOM      6  C   UNL     1       1.522   8.218  20.569  0.00  0.00    +0.000 A 
ATOM      7  N   UNL     1       1.176   9.318  19.879  0.00  0.00    +0.000 NA
ATOM      8  H   UNL     1       1.772  10.644  17.032  0.00  0.00    +0.000 HD
ENDROOT
BRANCH   1  13
ATOM      9  C   UNL     1      -0.381  13.638  19.250  0.00  0.00    +0.000 A 
ATOM     10  C   UNL     1       0.723  14.494  19.249  0.00  0.00    +0.000 A 
ATOM     11  C   UNL     1       1.970  14.051  18.815  0.00  0.00    +0.000 A 
ATOM     12  C   UNL     1       2.119  12.740  18.377  0.00  0.00    +0.000 A 
ATOM     13  C   UNL     1       1.042  11.845  18.414  0.00  0.00    +0.000 A 
ATOM     14  C   UNL     1      -0.212  12.308  18.845  0.00  0.00    +0.000 A 
BRANCH   9  17
ATOM     15  C   UNL     1      -2.357  13.612  20.757  0.00  0.00    +0.000 C 
ATOM     16  O   UNL     1      -1.927  12.812  21.577  0.00  0.00    +0.000 OA
ATOM     17  N   UNL     1      -1.672  14.071  19.638  0.00  0.00    +0.000 N 
ATOM     18  H   UNL     1      -2.054  14.866  19.146  0.00  0.00    +0.000 HD
BRANCH  15  20
ATOM     19  C   UNL     1      -4.658  13.289  21.672  0.00  0.00    +0.000 C 
ATOM     20  C   UNL     1      -3.736  14.225  20.900  0.00  0.00    +0.000 C 
ENDBRANCH  15  20
ENDBRANCH   9  17
ENDBRANCH   1  13
BRANCH   4  21
ATOM     21  C   UNL     1       3.268   6.096  18.038  0.00  0.00    +0.000 A 
ATOM     22  N   UNL     1       4.072   6.239  16.925  0.00  0.00    +0.000 N 
ATOM     23  C   UNL     1       4.641   5.034  16.646  0.00  0.00    +0.000 A 
ATOM     24  N   UNL     1       4.260   4.105  17.482  0.00  0.00    +0.000 NA
ATOM     25  C   UNL     1       3.378   4.736  18.337  0.00  0.00    +0.000 A 
ATOM     26  H   UNL     1       4.253   7.087  16.412  0.00  0.00    +0.000 HD
BRANCH  25  27
ATOM     27  C   UNL     1       2.687   4.014  19.395  0.00  0.00    +0.000 A 
ATOM     28  C   UNL     1       3.419   3.474  20.463  0.00  0.00    +0.000 A 
ATOM     29  C   UNL     1       2.765   2.788  21.491  0.00  0.00    +0.000 A 
ATOM     30  C   UNL     1       1.383   2.652  21.458  0.00  0.00    +0.000 A 
ATOM     31  F   UNL     1       0.757   1.997  22.444  0.00  0.00    +0.000 F 
ATOM     32  C   UNL     1       0.639   3.178  20.411  0.00  0.00    +0.000 A 
ATOM     33  C   UNL     1       1.293   3.838  19.370  0.00  0.00    +0.000 A 
ENDBRANCH  25  27
BRANCH  23  34
ATOM     34  S   UNL     1       5.720   4.897  15.310  0.00  0.00    +0.000 S 
ATOM     35  C   UNL     1       7.230   5.595  16.012  0.00  0.00    +0.000 C 
ENDBRANCH  23  34
ENDBRANCH   4  21
TORSDOF 6
ENDMDL
