MODEL 1
REMARK VINA RESULT:      -6.5      0.000      0.000
REMARK  Name = 
REMARK  7 active torsions:
REMARK  status: ('A' for Active; 'I' for Inactive)
REMARK    1  A    between atoms: C_1  and  O_2
REMARK    2  A    between atoms: O_2  and  C_3
REMARK    3  A    between atoms: N_5  and  C_6
REMARK    4  A    between atoms: N_5  and  C_7
REMARK    5  A    between atoms: C_7  and  C_8
REMARK    6  A    between atoms: N_10  and  C_11
REMARK    7  A    between atoms: C_11  and  C_12
REMARK                            x       y       z     vdW  Elec       q    Type
REMARK                         _______ _______ _______ _____ _____    ______ ____
ROOT
ATOM      1  C   UNL     1       5.446   4.516  18.254  0.00  0.00    +0.000 C 
ATOM      2  O   UNL     1       6.046   3.988  19.189  0.00  0.00    +0.000 OA
ATOM      3  N   UNL     1       4.376   3.923  17.624  0.00  0.00    +0.000 N 
ATOM      4  H   UNL     1       4.087   4.246  16.703  0.00  0.00    +0.000 HD
ENDROOT
BRANCH   1   5
ATOM      5  C   UNL     1       5.856   5.880  17.694  0.00  0.00    +0.000 C 
BRANCH   5   8
ATOM      6  C   UNL     1       7.003   5.165  15.665  0.00  0.00    +0.000 C 
ATOM      7  O   UNL     1       7.842   4.547  16.312  0.00  0.00    +0.000 OA
ATOM      8  N   UNL     1       5.980   5.888  16.241  0.00  0.00    +0.000 N 
ATOM      9  C   UNL     1       5.043   6.706  15.487  0.00  0.00    +0.000 C 
BRANCH   6  11
ATOM     10  C   UNL     1       6.434   4.011  13.702  0.00  0.00    +0.000 C 
ATOM     11  O   UNL     1       6.963   5.191  14.306  0.00  0.00    +0.000 OA
ENDBRANCH   6  11
ENDBRANCH   5   8
ENDBRANCH   1   5
BRANCH   3  12
ATOM     12  C   UNL     1       3.869   2.636  18.054  0.00  0.00    +0.000 C 
BRANCH  12  13
ATOM     13  C   UNL     1       2.918   2.738  19.229  0.00  0.00    +0.000 A 
ATOM     14  C   UNL     1       1.585   3.095  19.008  0.00  0.00    +0.000 A 
ATOM     15  C   UNL     1       0.727   3.228  20.097  0.00  0.00    +0.000 A 
ATOM     16  C   UNL     1       1.218   3.014  21.378  0.00  0.00    +0.000 A 
ATOM     17  C   UNL     1       2.553   2.673  21.517  0.00  0.00    +0.000 A 
ATOM     18  N   UNL     1       3.411   2.534  20.478  0.00  0.00    +0.000 NA
ENDBRANCH  12  13
ENDBRANCH   3  12
TORSDOF 5
ENDMDL
MODEL 2
REMARK VINA RESULT:      -6.5      2.313      6.288
REMARK  Name = 
REMARK  7 active torsions:
REMARK  status: ('A' for Active; 'I' for Inactive)
REMARK    1  A    between atoms: C_1  and  O_2
REMARK    2  A    between atoms: O_2  and  C_3
REMARK    3  A    between atoms: N_5  and  C_6
REMARK    4  A    between atoms: N_5  and  C_7
REMARK    5  A    between atoms: C_7  and  C_8
REMARK    6  A    between atoms: N_10  and  C_11
REMARK    7  A    between atoms: C_11  and  C_12
REMARK                            x       y       z     vdW  Elec       q    Type
REMARK                         _______ _______ _______ _____ _____    ______ ____
ROOT
ATOM      1  C   UNL     1       4.323   3.895  16.982  0.00  0.00    +0.000 C 
ATOM      2  O   UNL     1       3.984   5.073  16.881  0.00  0.00    +0.000 OA
ATOM      3  N   UNL     1       5.523   3.420  16.506  0.00  0.00    +0.000 N 
ATOM      4  H   UNL     1       5.650   2.421  16.357  0.00  0.00    +0.000 HD
ENDROOT
BRANCH   1   5
ATOM      5  C   UNL     1       3.420   2.845  17.634  0.00  0.00    +0.000 C 
BRANCH   5   8
ATOM      6  C   UNL     1       2.268   3.597  19.647  0.00  0.00    +0.000 C 
ATOM      7  O   UNL     1       1.365   4.101  18.987  0.00  0.00    +0.000 OA
ATOM      8  N   UNL     1       3.359   2.964  19.085  0.00  0.00    +0.000 N 
ATOM      9  C   UNL     1       4.482   2.455  19.854  0.00  0.00    +0.000 C 
BRANCH   6  11
ATOM     10  C   UNL     1       1.326   2.713  21.606  0.00  0.00    +0.000 C 
ATOM     11  O   UNL     1       2.293   3.574  21.007  0.00  0.00    +0.000 OA
ENDBRANCH   6  11
ENDBRANCH   5   8
ENDBRANCH   1   5
BRANCH   3  12
ATOM     12  C   UNL     1       6.484   4.302  15.874  0.00  0.00    +0.000 C 
BRANCH  12  13
ATOM     13  C   UNL     1       7.090   5.302  16.838  0.00  0.00    +0.000 A 
ATOM     14  C   UNL     1       7.493   4.879  18.107  0.00  0.00    +0.000 A 
ATOM     15  C   UNL     1       8.009   5.812  19.003  0.00  0.00    +0.000 A 
ATOM     16  C   UNL     1       8.102   7.143  18.618  0.00  0.00    +0.000 A 
ATOM     17  C   UNL     1       7.672   7.487  17.348  0.00  0.00    +0.000 A 
ATOM     18  N   UNL     1       7.167   6.603  16.454  0.00  0.00    +0.000 NA
ENDBRANCH  12  13
ENDBRANCH   3  12
TORSDOF 5
ENDMDL
MODEL 3
REMARK VINA RESULT:      -6.4      2.100      6.158
REMARK  Name = 
REMARK  7 active torsions:
REMARK  status: ('A' for Active; 'I' for Inactive)
REMARK    1  A    between atoms: C_1  and  O_2
REMARK    2  A    between atoms: O_2  and  C_3
REMARK    3  A    between atoms: N_5  and  C_6
REMARK    4  A    between atoms: N_5  and  C_7
REMARK    5  A    between atoms: C_7  and  C_8
REMARK    6  A    between atoms: N_10  and  C_11
REMARK    7  A    between atoms: C_11  and  C_12
REMARK                            x       y       z     vdW  Elec       q    Type
REMARK                         _______ _______ _______ _____ _____    ______ ____
ROOT
ATOM      1  C   UNL     1       4.390   3.751  16.957  0.00  0.00    +0.000 C 
ATOM      2  O   UNL     1       3.998   4.917  16.938  0.00  0.00    +0.000 OA
ATOM      3  N   UNL     1       5.592   3.359  16.413  0.00  0.00    +0.000 N 
ATOM      4  H   UNL     1       5.757   2.378  16.201  0.00  0.00    +0.000 HD
ENDROOT
BRANCH   1   5
ATOM      5  C   UNL     1       3.557   2.625  17.573  0.00  0.00    +0.000 C 
BRANCH   5   8
ATOM      6  C   UNL     1       3.077   2.986  19.936  0.00  0.00    +0.000 C 
ATOM      7  O   UNL     1       4.149   2.491  20.268  0.00  0.00    +0.000 OA
ATOM      8  N   UNL     1       2.660   3.087  18.625  0.00  0.00    +0.000 N 
ATOM      9  C   UNL     1       1.350   3.578  18.229  0.00  0.00    +0.000 C 
BRANCH   6  11
ATOM     10  C   UNL     1       1.738   2.623  21.829  0.00  0.00    +0.000 C 
ATOM     11  O   UNL     1       2.185   3.520  20.813  0.00  0.00    +0.000 OA
ENDBRANCH   6  11
ENDBRANCH   5   8
ENDBRANCH   1   5
BRANCH   3  12
ATOM     12  C   UNL     1       6.492   4.319  15.806  0.00  0.00    +0.000 C 
BRANCH  12  13
ATOM     13  C   UNL     1       7.077   5.296  16.806  0.00  0.00    +0.000 A 
ATOM     14  C   UNL     1       7.542   4.826  18.036  0.00  0.00    +0.000 A 
ATOM     15  C   UNL     1       8.039   5.735  18.967  0.00  0.00    +0.000 A 
ATOM     16  C   UNL     1       8.051   7.088  18.655  0.00  0.00    +0.000 A 
ATOM     17  C   UNL     1       7.562   7.478  17.420  0.00  0.00    +0.000 A 
ATOM     18  N   UNL     1       7.074   6.618  16.493  0.00  0.00    +0.000 NA
ENDBRANCH  12  13
ENDBRANCH   3  12
TORSDOF 5
ENDMDL
MODEL 4
REMARK VINA RESULT:      -6.4      2.398      6.982
REMARK  Name = 
REMARK  7 active torsions:
REMARK  status: ('A' for Active; 'I' for Inactive)
REMARK    1  A    between atoms: C_1  and  O_2
REMARK    2  A    between atoms: O_2  and  C_3
REMARK    3  A    between atoms: N_5  and  C_6
REMARK    4  A    between atoms: N_5  and  C_7
REMARK    5  A    between atoms: C_7  and  C_8
REMARK    6  A    between atoms: N_10  and  C_11
REMARK    7  A    between atoms: C_11  and  C_12
REMARK                            x       y       z     vdW  Elec       q    Type
REMARK                         _______ _______ _______ _____ _____    ______ ____
ROOT
ATOM      1  C   UNL     1       4.642   4.358  16.988  0.00  0.00    +0.000 C 
ATOM      2  O   UNL     1       4.296   5.513  16.748  0.00  0.00    +0.000 OA
ATOM      3  N   UNL     1       5.909   3.888  16.724  0.00  0.00    +0.000 N 
ATOM      4  H   UNL     1       6.077   2.885  16.674  0.00  0.00    +0.000 HD
ENDROOT
BRANCH   1   5
ATOM      5  C   UNL     1       3.678   3.330  17.585  0.00  0.00    +0.000 C 
BRANCH   5   8
ATOM      6  C   UNL     1       1.733   3.489  19.046  0.00  0.00    +0.000 C 
ATOM      7  O   UNL     1       1.024   2.913  18.228  0.00  0.00    +0.000 OA
ATOM      8  N   UNL     1       3.065   3.776  18.830  0.00  0.00    +0.000 N 
ATOM      9  C   UNL     1       3.886   4.548  19.750  0.00  0.00    +0.000 C 
BRANCH   6  11
ATOM     10  C   UNL     1       1.227   2.851  21.248  0.00  0.00    +0.000 C 
ATOM     11  O   UNL     1       1.303   3.890  20.273  0.00  0.00    +0.000 OA
ENDBRANCH   6  11
ENDBRANCH   5   8
ENDBRANCH   1   5
BRANCH   3  12
ATOM     12  C   UNL     1       6.931   4.751  16.169  0.00  0.00    +0.000 C 
BRANCH  12  13
ATOM     13  C   UNL     1       7.008   4.678  14.657  0.00  0.00    +0.000 A 
ATOM     14  C   UNL     1       6.213   3.756  13.971  0.00  0.00    +0.000 A 
ATOM     15  C   UNL     1       6.321   3.665  12.585  0.00  0.00    +0.000 A 
ATOM     16  C   UNL     1       7.222   4.484  11.919  0.00  0.00    +0.000 A 
ATOM     17  C   UNL     1       7.983   5.364  12.669  0.00  0.00    +0.000 A 
ATOM     18  N   UNL     1       7.900   5.477  14.017  0.00  0.00    +0.000 NA
ENDBRANCH  12  13
ENDBRANCH   3  12
TORSDOF 5
ENDMDL
MODEL 5
REMARK VINA RESULT:      -6.3      2.725      6.451
REMARK  Name = 
REMARK  7 active torsions:
REMARK  status: ('A' for Active; 'I' for Inactive)
REMARK    1  A    between atoms: C_1  and  O_2
REMARK    2  A    between atoms: O_2  and  C_3
REMARK    3  A    between atoms: N_5  and  C_6
REMARK    4  A    between atoms: N_5  and  C_7
REMARK    5  A    between atoms: C_7  and  C_8
REMARK    6  A    between atoms: N_10  and  C_11
REMARK    7  A    between atoms: C_11  and  C_12
REMARK                            x       y       z     vdW  Elec       q    Type
REMARK                         _______ _______ _______ _____ _____    ______ ____
ROOT
ATOM      1  C   UNL     1       3.330   4.062  17.304  0.00  0.00    +0.000 C 
ATOM      2  O   UNL     1       3.721   2.896  17.352  0.00  0.00    +0.000 OA
ATOM      3  N   UNL     1       4.135   5.103  16.902  0.00  0.00    +0.000 N 
ATOM      4  H   UNL     1       3.880   6.061  17.134  0.00  0.00    +0.000 HD
ENDROOT
BRANCH   1   5
ATOM      5  C   UNL     1       1.910   4.459  17.714  0.00  0.00    +0.000 C 
BRANCH   5   8
ATOM      6  C   UNL     1       1.043   3.315  19.684  0.00  0.00    +0.000 C 
ATOM      7  O   UNL     1       0.596   2.398  19.003  0.00  0.00    +0.000 OA
ATOM      8  N   UNL     1       1.695   4.409  19.155  0.00  0.00    +0.000 N 
ATOM      9  C   UNL     1       2.137   5.547  19.945  0.00  0.00    +0.000 C 
BRANCH   6  11
ATOM     10  C   UNL     1       1.849   2.441  21.709  0.00  0.00    +0.000 C 
ATOM     11  O   UNL     1       0.974   3.352  21.043  0.00  0.00    +0.000 OA
ENDBRANCH   6  11
ENDBRANCH   5   8
ENDBRANCH   1   5
BRANCH   3  12
ATOM     12  C   UNL     1       5.501   4.876  16.475  0.00  0.00    +0.000 C 
BRANCH  12  13
ATOM     13  C   UNL     1       6.503   5.737  17.218  0.00  0.00    +0.000 A 
ATOM     14  C   UNL     1       7.088   5.256  18.392  0.00  0.00    +0.000 A 
ATOM     15  C   UNL     1       7.975   6.070  19.092  0.00  0.00    +0.000 A 
ATOM     16  C   UNL     1       8.250   7.344  18.614  0.00  0.00    +0.000 A 
ATOM     17  C   UNL     1       7.622   7.754  17.450  0.00  0.00    +0.000 A 
ATOM     18  N   UNL     1       6.756   6.985  16.745  0.00  0.00    +0.000 NA
ENDBRANCH  12  13
ENDBRANCH   3  12
TORSDOF 5
ENDMDL
MODEL 6
REMARK VINA RESULT:      -6.3      2.716      6.254
REMARK  Name = 
REMARK  7 active torsions:
REMARK  status: ('A' for Active; 'I' for Inactive)
REMARK    1  A    between atoms: C_1  and  O_2
REMARK    2  A    between atoms: O_2  and  C_3
REMARK    3  A    between atoms: N_5  and  C_6
REMARK    4  A    between atoms: N_5  and  C_7
REMARK    5  A    between atoms: C_7  and  C_8
REMARK    6  A    between atoms: N_10  and  C_11
REMARK    7  A    between atoms: C_11  and  C_12
REMARK                            x       y       z     vdW  Elec       q    Type
REMARK                         _______ _______ _______ _____ _____    ______ ____
ROOT
ATOM      1  C   UNL     1       3.701   3.500  17.266  0.00  0.00    +0.000 C 
ATOM      2  O   UNL     1       4.214   2.501  17.769  0.00  0.00    +0.000 OA
ATOM      3  N   UNL     1       4.428   4.450  16.585  0.00  0.00    +0.000 N 
ATOM      4  H   UNL     1       4.033   5.375  16.429  0.00  0.00    +0.000 HD
ENDROOT
BRANCH   1   5
ATOM      5  C   UNL     1       2.201   3.784  17.375  0.00  0.00    +0.000 C 
BRANCH   5   8
ATOM      6  C   UNL     1       1.007   3.134  19.399  0.00  0.00    +0.000 C 
ATOM      7  O   UNL     1       0.634   2.084  18.887  0.00  0.00    +0.000 OA
ATOM      8  N   UNL     1       1.771   4.073  18.738  0.00  0.00    +0.000 N 
ATOM      9  C   UNL     1       2.131   5.364  19.301  0.00  0.00    +0.000 C 
BRANCH   6  11
ATOM     10  C   UNL     1       1.395   2.695  21.672  0.00  0.00    +0.000 C 
ATOM     11  O   UNL     1       0.737   3.488  20.684  0.00  0.00    +0.000 OA
ENDBRANCH   6  11
ENDBRANCH   5   8
ENDBRANCH   1   5
BRANCH   3  12
ATOM     12  C   UNL     1       5.857   4.309  16.393  0.00  0.00    +0.000 C 
BRANCH  12  13
ATOM     13  C   UNL     1       6.665   5.259  17.254  0.00  0.00    +0.000 A 
ATOM     14  C   UNL     1       6.865   6.574  16.826  0.00  0.00    +0.000 A 
ATOM     15  C   UNL     1       7.644   7.430  17.601  0.00  0.00    +0.000 A 
ATOM     16  C   UNL     1       8.214   6.954  18.774  0.00  0.00    +0.000 A 
ATOM     17  C   UNL     1       7.979   5.635  19.126  0.00  0.00    +0.000 A 
ATOM     18  N   UNL     1       7.225   4.779  18.394  0.00  0.00    +0.000 NA
ENDBRANCH  12  13
ENDBRANCH   3  12
TORSDOF 5
ENDMDL
MODEL 7
REMARK VINA RESULT:      -6.3      2.456      6.777
REMARK  Name = 
REMARK  7 active torsions:
REMARK  status: ('A' for Active; 'I' for Inactive)
REMARK    1  A    between atoms: C_1  and  O_2
REMARK    2  A    between atoms: O_2  and  C_3
REMARK    3  A    between atoms: N_5  and  C_6
REMARK    4  A    between atoms: N_5  and  C_7
REMARK    5  A    between atoms: C_7  and  C_8
REMARK    6  A    between atoms: N_10  and  C_11
REMARK    7  A    between atoms: C_11  and  C_12
REMARK                            x       y       z     vdW  Elec       q    Type
REMARK                         _______ _______ _______ _____ _____    ______ ____
ROOT
ATOM      1  C   UNL     1       4.636   4.750  17.217  0.00  0.00    +0.000 C 
ATOM      2  O   UNL     1       4.709   3.537  17.406  0.00  0.00    +0.000 OA
ATOM      3  N   UNL     1       5.657   5.480  16.652  0.00  0.00    +0.000 N 
ATOM      4  H   UNL     1       5.679   6.491  16.762  0.00  0.00    +0.000 HD
ENDROOT
BRANCH   1   5
ATOM      5  C   UNL     1       3.402   5.561  17.618  0.00  0.00    +0.000 C 
BRANCH   5   8
ATOM      6  C   UNL     1       1.539   4.203  18.410  0.00  0.00    +0.000 C 
ATOM      7  O   UNL     1       1.120   4.044  17.268  0.00  0.00    +0.000 OA
ATOM      8  N   UNL     1       2.653   4.958  18.713  0.00  0.00    +0.000 N 
ATOM      9  C   UNL     1       3.096   5.235  20.070  0.00  0.00    +0.000 C 
BRANCH   6  11
ATOM     10  C   UNL     1       1.291   2.255  19.696  0.00  0.00    +0.000 C 
ATOM     11  O   UNL     1       0.975   3.634  19.510  0.00  0.00    +0.000 OA
ENDBRANCH   6  11
ENDBRANCH   5   8
ENDBRANCH   1   5
BRANCH   3  12
ATOM     12  C   UNL     1       6.883   4.844  16.213  0.00  0.00    +0.000 C 
BRANCH  12  13
ATOM     13  C   UNL     1       6.979   4.723  14.705  0.00  0.00    +0.000 A 
ATOM     14  C   UNL     1       6.198   3.775  14.039  0.00  0.00    +0.000 A 
ATOM     15  C   UNL     1       6.322   3.640  12.659  0.00  0.00    +0.000 A 
ATOM     16  C   UNL     1       7.227   4.443  11.977  0.00  0.00    +0.000 A 
ATOM     17  C   UNL     1       7.973   5.352  12.708  0.00  0.00    +0.000 A 
ATOM     18  N   UNL     1       7.873   5.508  14.051  0.00  0.00    +0.000 NA
ENDBRANCH  12  13
ENDBRANCH   3  12
TORSDOF 5
ENDMDL
MODEL 8
REMARK VINA RESULT:      -6.3      1.133      1.470
REMARK  Name = 
REMARK  7 active torsions:
REMARK  status: ('A' for Active; 'I' for Inactive)
REMARK    1  A    between atoms: C_1  and  O_2
REMARK    2  A    between atoms: O_2  and  C_3
REMARK    3  A    between atoms: N_5  and  C_6
REMARK    4  A    between atoms: N_5  and  C_7
REMARK    5  A    between atoms: C_7  and  C_8
REMARK    6  A    between atoms: N_10  and  C_11
REMARK    7  A    between atoms: C_11  and  C_12
REMARK                            x       y       z     vdW  Elec       q    Type
REMARK                         _______ _______ _______ _____ _____    ______ ____
ROOT
ATOM      1  C   UNL     1       6.322   5.204  18.846  0.00  0.00    +0.000 C 
ATOM      2  O   UNL     1       6.787   5.254  19.984  0.00  0.00    +0.000 OA
ATOM      3  N   UNL     1       5.406   4.254  18.455  0.00  0.00    +0.000 N 
ATOM      4  H   UNL     1       5.257   4.070  17.465  0.00  0.00    +0.000 HD
ENDROOT
BRANCH   1   5
ATOM      5  C   UNL     1       6.742   6.190  17.754  0.00  0.00    +0.000 C 
BRANCH   5   8
ATOM      6  C   UNL     1       6.612   5.030  15.614  0.00  0.00    +0.000 C 
ATOM      7  O   UNL     1       7.653   4.422  15.837  0.00  0.00    +0.000 OA
ATOM      8  N   UNL     1       6.070   5.955  16.481  0.00  0.00    +0.000 N 
ATOM      9  C   UNL     1       4.893   6.754  16.181  0.00  0.00    +0.000 C 
BRANCH   6  11
ATOM     10  C   UNL     1       6.383   3.913  13.561  0.00  0.00    +0.000 C 
ATOM     11  O   UNL     1       5.851   4.848  14.500  0.00  0.00    +0.000 OA
ENDBRANCH   6  11
ENDBRANCH   5   8
ENDBRANCH   1   5
BRANCH   3  12
ATOM     12  C   UNL     1       4.908   3.261  19.386  0.00  0.00    +0.000 C 
BRANCH  12  13
ATOM     13  C   UNL     1       3.395   3.200  19.430  0.00  0.00    +0.000 A 
ATOM     14  C   UNL     1       2.714   3.760  20.515  0.00  0.00    +0.000 A 
ATOM     15  C   UNL     1       1.326   3.662  20.569  0.00  0.00    +0.000 A 
ATOM     16  C   UNL     1       0.651   3.002  19.551  0.00  0.00    +0.000 A 
ATOM     17  C   UNL     1       1.396   2.465  18.516  0.00  0.00    +0.000 A 
ATOM     18  N   UNL     1       2.747   2.545  18.433  0.00  0.00    +0.000 NA
ENDBRANCH  12  13
ENDBRANCH   3  12
TORSDOF 5
ENDMDL
MODEL 9
REMARK VINA RESULT:      -6.3      2.264      6.947
REMARK  Name = 
REMARK  7 active torsions:
REMARK  status: ('A' for Active; 'I' for Inactive)
REMARK    1  A    between atoms: C_1  and  O_2
REMARK    2  A    between atoms: O_2  and  C_3
REMARK    3  A    between atoms: N_5  and  C_6
REMARK    4  A    between atoms: N_5  and  C_7
REMARK    5  A    between atoms: C_7  and  C_8
REMARK    6  A    between atoms: N_10  and  C_11
REMARK    7  A    between atoms: C_11  and  C_12
REMARK                            x       y       z     vdW  Elec       q    Type
REMARK                         _______ _______ _______ _____ _____    ______ ____
ROOT
ATOM      1  C   UNL     1       4.220   4.442  17.543  0.00  0.00    +0.000 C 
ATOM      2  O   UNL     1       4.845   3.761  18.355  0.00  0.00    +0.000 OA
ATOM      3  N   UNL     1       4.819   5.062  16.471  0.00  0.00    +0.000 N 
ATOM      4  H   UNL     1       4.341   5.823  15.993  0.00  0.00    +0.000 HD
ENDROOT
BRANCH   1   5
ATOM      5  C   UNL     1       2.713   4.676  17.671  0.00  0.00    +0.000 C 
BRANCH   5   8
ATOM      6  C   UNL     1       1.706   4.142  19.826  0.00  0.00    +0.000 C 
ATOM      7  O   UNL     1       1.950   5.263  20.261  0.00  0.00    +0.000 OA
ATOM      8  N   UNL     1       2.059   3.723  18.560  0.00  0.00    +0.000 N 
ATOM      9  C   UNL     1       1.866   2.367  18.074  0.00  0.00    +0.000 C 
BRANCH   6  11
ATOM     10  C   UNL     1       1.668   2.787  21.743  0.00  0.00    +0.000 C 
ATOM     11  O   UNL     1       1.037   3.186  20.527  0.00  0.00    +0.000 OA
ENDBRANCH   6  11
ENDBRANCH   5   8
ENDBRANCH   1   5
BRANCH   3  12
ATOM     12  C   UNL     1       6.239   4.920  16.216  0.00  0.00    +0.000 C 
BRANCH  12  13
ATOM     13  C   UNL     1       6.558   4.716  14.749  0.00  0.00    +0.000 A 
ATOM     14  C   UNL     1       5.833   3.778  14.010  0.00  0.00    +0.000 A 
ATOM     15  C   UNL     1       6.161   3.566  12.673  0.00  0.00    +0.000 A 
ATOM     16  C   UNL     1       7.207   4.283  12.108  0.00  0.00    +0.000 A 
ATOM     17  C   UNL     1       7.885   5.187  12.908  0.00  0.00    +0.000 A 
ATOM     18  N   UNL     1       7.589   5.417  14.210  0.00  0.00    +0.000 NA
ENDBRANCH  12  13
ENDBRANCH   3  12
TORSDOF 5
ENDMDL
