MODEL 1
REMARK VINA RESULT:      -7.2      0.000      0.000
REMARK  Name = 
REMARK  5 active torsions:
REMARK  status: ('A' for Active; 'I' for Inactive)
REMARK    1  A    between atoms: C_5  and  C_6
REMARK    2  A    between atoms: C_6  and  O_7
REMARK    3  A    between atoms: C_9  and  O_10
REMARK    4  A    between atoms: C_17  and  O_18
REMARK    5  A    between atoms: C_21  and  O_22
REMARK                            x       y       z     vdW  Elec       q    Type
REMARK                         _______ _______ _______ _____ _____    ______ ____
ROOT
ATOM      1  O   UNL     1       1.826   5.430  21.253  0.00  0.00    +0.000 OA
ATOM      2  C   UNL     1       2.132   6.129  20.291  0.00  0.00    +0.000 C 
ATOM      3  C   UNL     1       1.650   7.515  20.198  0.00  0.00    +0.000 A 
ATOM      4  C   UNL     1       0.832   8.003  21.232  0.00  0.00    +0.000 A 
ATOM      5  C   UNL     1       0.344   9.312  21.206  0.00  0.00    +0.000 A 
ATOM      6  C   UNL     1       0.661  10.116  20.105  0.00  0.00    +0.000 A 
ATOM      7  C   UNL     1       1.484   9.632  19.079  0.00  0.00    +0.000 A 
ATOM      8  C   UNL     1       1.993   8.321  19.114  0.00  0.00    +0.000 A 
ATOM      9  C   UNL     1       2.873   7.770  18.042  0.00  0.00    +0.000 C 
ATOM     10  O   UNL     1       3.206   8.473  17.098  0.00  0.00    +0.000 OA
ATOM     11  C   UNL     1       3.354   6.360  18.129  0.00  0.00    +0.000 A 
ATOM     12  C   UNL     1       2.986   5.578  19.227  0.00  0.00    +0.000 A 
ATOM     13  C   UNL     1       3.418   4.246  19.351  0.00  0.00    +0.000 A 
ATOM     14  C   UNL     1       4.229   3.686  18.371  0.00  0.00    +0.000 A 
ATOM     15  C   UNL     1       4.611   4.446  17.266  0.00  0.00    +0.000 A 
ATOM     16 CL   UNL     1       5.622   3.764  16.036  0.00  0.00    +0.000 Cl
ATOM     17  C   UNL     1       4.175   5.778  17.144  0.00  0.00    +0.000 A 
ENDROOT
BRANCH   7  18
ATOM     18  O   UNL     1       1.775  10.472  18.042  0.00  0.00    +0.000 OA
ATOM     19  H   UNL     1       2.139  11.311  18.364  0.00  0.00    +0.000 HD
ENDBRANCH   7  18
BRANCH  14  20
ATOM     20  O   UNL     1       4.649   2.391  18.495  0.00  0.00    +0.000 OA
ATOM     21  H   UNL     1       4.207   1.966  19.249  0.00  0.00    +0.000 HD
ENDBRANCH  14  20
BRANCH  17  22
ATOM     22  O   UNL     1       4.564   6.498  16.046  0.00  0.00    +0.000 OA
ATOM     23  H   UNL     1       5.192   7.189  16.323  0.00  0.00    +0.000 HD
ENDBRANCH  17  22
BRANCH   5  24
ATOM     24  C   UNL     1      -0.558   9.794  22.313  0.00  0.00    +0.000 C 
BRANCH  24  25
ATOM     25  O   UNL     1       0.161   9.967  23.525  0.00  0.00    +0.000 OA
ATOM     26  H   UNL     1       0.064   9.142  24.030  0.00  0.00    +0.000 HD
ENDBRANCH  24  25
ENDBRANCH   5  24
TORSDOF 5
ENDMDL
MODEL 2
REMARK VINA RESULT:      -7.0      2.800      4.890
REMARK  Name = 
REMARK  5 active torsions:
REMARK  status: ('A' for Active; 'I' for Inactive)
REMARK    1  A    between atoms: C_5  and  C_6
REMARK    2  A    between atoms: C_6  and  O_7
REMARK    3  A    between atoms: C_9  and  O_10
REMARK    4  A    between atoms: C_17  and  O_18
REMARK    5  A    between atoms: C_21  and  O_22
REMARK                            x       y       z     vdW  Elec       q    Type
REMARK                         _______ _______ _______ _____ _____    ______ ____
ROOT
ATOM      1  O   UNL     1      -0.325   9.236  23.118  0.00  0.00    +0.000 OA
ATOM      2  C   UNL     1      -0.299   9.853  22.056  0.00  0.00    +0.000 C 
ATOM      3  C   UNL     1      -1.073  11.094  21.900  0.00  0.00    +0.000 A 
ATOM      4  C   UNL     1      -1.838  11.540  22.992  0.00  0.00    +0.000 A 
ATOM      5  C   UNL     1      -2.593  12.713  22.910  0.00  0.00    +0.000 A 
ATOM      6  C   UNL     1      -2.596  13.416  21.699  0.00  0.00    +0.000 A 
ATOM      7  C   UNL     1      -1.825  12.975  20.615  0.00  0.00    +0.000 A 
ATOM      8  C   UNL     1      -1.049  11.806  20.702  0.00  0.00    +0.000 A 
ATOM      9  C   UNL     1      -0.215  11.306  19.570  0.00  0.00    +0.000 C 
ATOM     10  O   UNL     1      -0.162  11.934  18.522  0.00  0.00    +0.000 OA
ATOM     11  C   UNL     1       0.562  10.041  19.723  0.00  0.00    +0.000 A 
ATOM     12  C   UNL     1       0.510   9.350  20.936  0.00  0.00    +0.000 A 
ATOM     13  C   UNL     1       1.228   8.155  21.125  0.00  0.00    +0.000 A 
ATOM     14  C   UNL     1       2.009   7.645  20.096  0.00  0.00    +0.000 A 
ATOM     15  C   UNL     1       2.078   8.317  18.876  0.00  0.00    +0.000 A 
ATOM     16 CL   UNL     1       3.047   7.697  17.581  0.00  0.00    +0.000 Cl
ATOM     17  C   UNL     1       1.357   9.511  18.689  0.00  0.00    +0.000 A 
ENDROOT
BRANCH   7  18
ATOM     18  O   UNL     1      -1.854  13.717  19.468  0.00  0.00    +0.000 OA
ATOM     19  H   UNL     1      -1.754  13.153  18.685  0.00  0.00    +0.000 HD
ENDBRANCH   7  18
BRANCH  14  20
ATOM     20  O   UNL     1       2.708   6.485  20.282  0.00  0.00    +0.000 OA
ATOM     21  H   UNL     1       3.325   6.344  19.545  0.00  0.00    +0.000 HD
ENDBRANCH  14  20
BRANCH  17  22
ATOM     22  O   UNL     1       1.441  10.147  17.479  0.00  0.00    +0.000 OA
ATOM     23  H   UNL     1       2.330  10.006  17.104  0.00  0.00    +0.000 HD
ENDBRANCH  17  22
BRANCH   5  24
ATOM     24  C   UNL     1      -3.429  13.145  24.087  0.00  0.00    +0.000 C 
BRANCH  24  25
ATOM     25  O   UNL     1      -4.324  12.119  24.489  0.00  0.00    +0.000 OA
ATOM     26  H   UNL     1      -4.479  11.560  23.708  0.00  0.00    +0.000 HD
ENDBRANCH  24  25
ENDBRANCH   5  24
TORSDOF 5
ENDMDL
MODEL 3
REMARK VINA RESULT:      -6.8      2.346      6.019
REMARK  Name = 
REMARK  5 active torsions:
REMARK  status: ('A' for Active; 'I' for Inactive)
REMARK    1  A    between atoms: C_5  and  C_6
REMARK    2  A    between atoms: C_6  and  O_7
REMARK    3  A    between atoms: C_9  and  O_10
REMARK    4  A    between atoms: C_17  and  O_18
REMARK    5  A    between atoms: C_21  and  O_22
REMARK                            x       y       z     vdW  Elec       q    Type
REMARK                         _______ _______ _______ _____ _____    ______ ____
ROOT
ATOM      1  O   UNL     1       1.480   5.823  21.238  0.00  0.00    +0.000 OA
ATOM      2  C   UNL     1       1.935   6.340  20.221  0.00  0.00    +0.000 C 
ATOM      3  C   UNL     1       2.787   5.560  19.311  0.00  0.00    +0.000 A 
ATOM      4  C   UNL     1       3.064   4.222  19.644  0.00  0.00    +0.000 A 
ATOM      5  C   UNL     1       3.865   3.427  18.819  0.00  0.00    +0.000 A 
ATOM      6  C   UNL     1       4.413   4.006  17.669  0.00  0.00    +0.000 A 
ATOM      7  C   UNL     1       4.127   5.336  17.332  0.00  0.00    +0.000 A 
ATOM      8  C   UNL     1       3.306   6.133  18.151  0.00  0.00    +0.000 A 
ATOM      9  C   UNL     1       2.979   7.552  17.825  0.00  0.00    +0.000 C 
ATOM     10  O   UNL     1       3.404   8.061  16.797  0.00  0.00    +0.000 OA
ATOM     11  C   UNL     1       2.123   8.348  18.754  0.00  0.00    +0.000 A 
ATOM     12  C   UNL     1       1.625   7.743  19.911  0.00  0.00    +0.000 A 
ATOM     13  C   UNL     1       0.813   8.455  20.813  0.00  0.00    +0.000 A 
ATOM     14  C   UNL     1       0.492   9.782  20.559  0.00  0.00    +0.000 A 
ATOM     15  C   UNL     1       0.977  10.407  19.410  0.00  0.00    +0.000 A 
ATOM     16 CL   UNL     1       0.586  12.061  19.076  0.00  0.00    +0.000 Cl
ATOM     17  C   UNL     1       1.790   9.694  18.511  0.00  0.00    +0.000 A 
ENDROOT
BRANCH   7  18
ATOM     18  O   UNL     1       4.674   5.837  16.185  0.00  0.00    +0.000 OA
ATOM     19  H   UNL     1       4.003   6.272  15.639  0.00  0.00    +0.000 HD
ENDBRANCH   7  18
BRANCH  14  20
ATOM     20  O   UNL     1      -0.298  10.471  21.436  0.00  0.00    +0.000 OA
ATOM     21  H   UNL     1       0.251  11.010  22.029  0.00  0.00    +0.000 HD
ENDBRANCH  14  20
BRANCH  17  22
ATOM     22  O   UNL     1       2.254  10.335  17.393  0.00  0.00    +0.000 OA
ATOM     23  H   UNL     1       2.231   9.720  16.638  0.00  0.00    +0.000 HD
ENDBRANCH  17  22
BRANCH   5  24
ATOM     24  C   UNL     1       4.170   2.007  19.223  0.00  0.00    +0.000 C 
BRANCH  24  25
ATOM     25  O   UNL     1       5.235   1.956  20.160  0.00  0.00    +0.000 OA
ATOM     26  H   UNL     1       6.061   2.013  19.651  0.00  0.00    +0.000 HD
ENDBRANCH  24  25
ENDBRANCH   5  24
TORSDOF 5
ENDMDL
MODEL 4
REMARK VINA RESULT:      -6.8      1.758      3.793
REMARK  Name = 
REMARK  5 active torsions:
REMARK  status: ('A' for Active; 'I' for Inactive)
REMARK    1  A    between atoms: C_5  and  C_6
REMARK    2  A    between atoms: C_6  and  O_7
REMARK    3  A    between atoms: C_9  and  O_10
REMARK    4  A    between atoms: C_17  and  O_18
REMARK    5  A    between atoms: C_21  and  O_22
REMARK                            x       y       z     vdW  Elec       q    Type
REMARK                         _______ _______ _______ _____ _____    ______ ____
ROOT
ATOM      1  O   UNL     1       2.339   9.528  17.111  0.00  0.00    +0.000 OA
ATOM      2  C   UNL     1       2.028   9.010  18.180  0.00  0.00    +0.000 C 
ATOM      3  C   UNL     1       1.104   9.698  19.095  0.00  0.00    +0.000 A 
ATOM      4  C   UNL     1       0.602  10.953  18.710  0.00  0.00    +0.000 A 
ATOM      5  C   UNL     1      -0.282  11.657  19.533  0.00  0.00    +0.000 A 
ATOM      6  C   UNL     1      -0.629  11.095  20.767  0.00  0.00    +0.000 A 
ATOM      7  C   UNL     1      -0.135   9.839  21.145  0.00  0.00    +0.000 A 
ATOM      8  C   UNL     1       0.739   9.120  20.310  0.00  0.00    +0.000 A 
ATOM      9  C   UNL     1       1.284   7.781  20.677  0.00  0.00    +0.000 C 
ATOM     10  O   UNL     1       0.952   7.248  21.727  0.00  0.00    +0.000 OA
ATOM     11  C   UNL     1       2.231   7.087  19.754  0.00  0.00    +0.000 A 
ATOM     12  C   UNL     1       2.580   7.698  18.547  0.00  0.00    +0.000 A 
ATOM     13  C   UNL     1       3.466   7.079  17.647  0.00  0.00    +0.000 A 
ATOM     14  C   UNL     1       4.009   5.837  17.952  0.00  0.00    +0.000 A 
ATOM     15  C   UNL     1       3.675   5.206  19.150  0.00  0.00    +0.000 A 
ATOM     16 CL   UNL     1       4.341   3.657  19.546  0.00  0.00    +0.000 Cl
ATOM     17  C   UNL     1       2.790   5.829  20.049  0.00  0.00    +0.000 A 
ENDROOT
BRANCH   7  18
ATOM     18  O   UNL     1      -0.528   9.335  22.352  0.00  0.00    +0.000 OA
ATOM     19  H   UNL     1      -1.457   9.061  22.331  0.00  0.00    +0.000 HD
ENDBRANCH   7  18
BRANCH  14  20
ATOM     20  O   UNL     1       4.868   5.237  17.075  0.00  0.00    +0.000 OA
ATOM     21  H   UNL     1       4.498   5.257  16.176  0.00  0.00    +0.000 HD
ENDBRANCH  14  20
BRANCH  17  22
ATOM     22  O   UNL     1       2.483   5.187  21.220  0.00  0.00    +0.000 OA
ATOM     23  H   UNL     1       2.292   5.850  21.907  0.00  0.00    +0.000 HD
ENDBRANCH  17  22
BRANCH   5  24
ATOM     24  C   UNL     1      -0.776  13.016  19.107  0.00  0.00    +0.000 C 
BRANCH  24  25
ATOM     25  O   UNL     1      -0.970  13.076  17.702  0.00  0.00    +0.000 OA
ATOM     26  H   UNL     1      -0.177  13.496  17.326  0.00  0.00    +0.000 HD
ENDBRANCH  24  25
ENDBRANCH   5  24
TORSDOF 5
ENDMDL
MODEL 5
REMARK VINA RESULT:      -6.7      3.036      7.147
REMARK  Name = 
REMARK  5 active torsions:
REMARK  status: ('A' for Active; 'I' for Inactive)
REMARK    1  A    between atoms: C_5  and  C_6
REMARK    2  A    between atoms: C_6  and  O_7
REMARK    3  A    between atoms: C_9  and  O_10
REMARK    4  A    between atoms: C_17  and  O_18
REMARK    5  A    between atoms: C_21  and  O_22
REMARK                            x       y       z     vdW  Elec       q    Type
REMARK                         _______ _______ _______ _____ _____    ______ ____
ROOT
ATOM      1  O   UNL     1       2.139  10.044  17.223  0.00  0.00    +0.000 OA
ATOM      2  C   UNL     1       1.888   9.413  18.246  0.00  0.00    +0.000 C 
ATOM      3  C   UNL     1       2.492   8.091  18.469  0.00  0.00    +0.000 A 
ATOM      4  C   UNL     1       3.348   7.577  17.479  0.00  0.00    +0.000 A 
ATOM      5  C   UNL     1       3.956   6.328  17.631  0.00  0.00    +0.000 A 
ATOM      6  C   UNL     1       3.663   5.583  18.779  0.00  0.00    +0.000 A 
ATOM      7  C   UNL     1       2.816   6.100  19.770  0.00  0.00    +0.000 A 
ATOM      8  C   UNL     1       2.220   7.366  19.628  0.00  0.00    +0.000 A 
ATOM      9  C   UNL     1       1.315   7.949  20.661  0.00  0.00    +0.000 C 
ATOM     10  O   UNL     1       1.088   7.338  21.696  0.00  0.00    +0.000 OA
ATOM     11  C   UNL     1       0.693   9.287  20.431  0.00  0.00    +0.000 A 
ATOM     12  C   UNL     1       0.983   9.983  19.255  0.00  0.00    +0.000 A 
ATOM     13  C   UNL     1       0.421  11.247  18.999  0.00  0.00    +0.000 A 
ATOM     14  C   UNL     1      -0.437  11.826  19.927  0.00  0.00    +0.000 A 
ATOM     15  C   UNL     1      -0.741  11.151  21.109  0.00  0.00    +0.000 A 
ATOM     16 CL   UNL     1      -1.807  11.857  22.276  0.00  0.00    +0.000 Cl
ATOM     17  C   UNL     1      -0.179   9.886  21.361  0.00  0.00    +0.000 A 
ENDROOT
BRANCH   7  18
ATOM     18  O   UNL     1       2.587   5.334  20.877  0.00  0.00    +0.000 OA
ATOM     19  H   UNL     1       2.866   4.417  20.732  0.00  0.00    +0.000 HD
ENDBRANCH   7  18
BRANCH  14  20
ATOM     20  O   UNL     1      -0.980  13.055  19.676  0.00  0.00    +0.000 OA
ATOM     21  H   UNL     1      -1.125  13.168  18.722  0.00  0.00    +0.000 HD
ENDBRANCH  14  20
BRANCH  17  22
ATOM     22  O   UNL     1      -0.499   9.246  22.529  0.00  0.00    +0.000 OA
ATOM     23  H   UNL     1       0.314   9.099  23.046  0.00  0.00    +0.000 HD
ENDBRANCH  17  22
BRANCH   5  24
ATOM     24  C   UNL     1       4.842   5.792  16.535  0.00  0.00    +0.000 C 
BRANCH  24  25
ATOM     25  O   UNL     1       5.187   6.809  15.608  0.00  0.00    +0.000 OA
ATOM     26  H   UNL     1       5.584   7.534  16.120  0.00  0.00    +0.000 HD
ENDBRANCH  24  25
ENDBRANCH   5  24
TORSDOF 5
ENDMDL
MODEL 6
REMARK VINA RESULT:      -6.7      1.492      3.514
REMARK  Name = 
REMARK  5 active torsions:
REMARK  status: ('A' for Active; 'I' for Inactive)
REMARK    1  A    between atoms: C_5  and  C_6
REMARK    2  A    between atoms: C_6  and  O_7
REMARK    3  A    between atoms: C_9  and  O_10
REMARK    4  A    between atoms: C_17  and  O_18
REMARK    5  A    between atoms: C_21  and  O_22
REMARK                            x       y       z     vdW  Elec       q    Type
REMARK                         _______ _______ _______ _____ _____    ______ ____
ROOT
ATOM      1  O   UNL     1       3.688   7.885  16.580  0.00  0.00    +0.000 OA
ATOM      2  C   UNL     1       3.189   7.474  17.625  0.00  0.00    +0.000 C 
ATOM      3  C   UNL     1       2.374   8.369  18.459  0.00  0.00    +0.000 A 
ATOM      4  C   UNL     1       2.193   9.695  18.029  0.00  0.00    +0.000 A 
ATOM      5  C   UNL     1       1.426  10.595  18.776  0.00  0.00    +0.000 A 
ATOM      6  C   UNL     1       0.871  10.152  19.982  0.00  0.00    +0.000 A 
ATOM      7  C   UNL     1       1.045   8.827  20.404  0.00  0.00    +0.000 A 
ATOM      8  C   UNL     1       1.799   7.914  19.645  0.00  0.00    +0.000 A 
ATOM      9  C   UNL     1       2.004   6.497  20.062  0.00  0.00    +0.000 C 
ATOM     10  O   UNL     1       1.483   6.075  21.085  0.00  0.00    +0.000 OA
ATOM     11  C   UNL     1       2.841   5.590  19.221  0.00  0.00    +0.000 A 
ATOM     12  C   UNL     1       3.407   6.081  18.042  0.00  0.00    +0.000 A 
ATOM     13  C   UNL     1       4.200   5.262  17.218  0.00  0.00    +0.000 A 
ATOM     14  C   UNL     1       4.429   3.938  17.572  0.00  0.00    +0.000 A 
ATOM     15  C   UNL     1       3.874   3.424  18.743  0.00  0.00    +0.000 A 
ATOM     16 CL   UNL     1       4.149   1.776  19.199  0.00  0.00    +0.000 Cl
ATOM     17  C   UNL     1       3.083   4.247  19.566  0.00  0.00    +0.000 A 
ENDROOT
BRANCH   7  18
ATOM     18  O   UNL     1       0.460   8.450  21.580  0.00  0.00    +0.000 OA
ATOM     19  H   UNL     1       0.995   7.784  22.039  0.00  0.00    +0.000 HD
ENDBRANCH   7  18
BRANCH  14  20
ATOM     20  O   UNL     1       5.199   3.143  16.769  0.00  0.00    +0.000 OA
ATOM     21  H   UNL     1       5.317   3.560  15.899  0.00  0.00    +0.000 HD
ENDBRANCH  14  20
BRANCH  17  22
ATOM     22  O   UNL     1       2.554   3.715  20.713  0.00  0.00    +0.000 OA
ATOM     23  H   UNL     1       2.785   2.770  20.762  0.00  0.00    +0.000 HD
ENDBRANCH  17  22
BRANCH   5  24
ATOM     24  C   UNL     1       1.280  12.019  18.304  0.00  0.00    +0.000 C 
BRANCH  24  25
ATOM     25  O   UNL     1       2.333  12.382  17.424  0.00  0.00    +0.000 OA
ATOM     26  H   UNL     1       3.160  12.072  17.833  0.00  0.00    +0.000 HD
ENDBRANCH  24  25
ENDBRANCH   5  24
TORSDOF 5
ENDMDL
MODEL 7
REMARK VINA RESULT:      -6.5      3.434      5.807
REMARK  Name = 
REMARK  5 active torsions:
REMARK  status: ('A' for Active; 'I' for Inactive)
REMARK    1  A    between atoms: C_5  and  C_6
REMARK    2  A    between atoms: C_6  and  O_7
REMARK    3  A    between atoms: C_9  and  O_10
REMARK    4  A    between atoms: C_17  and  O_18
REMARK    5  A    between atoms: C_21  and  O_22
REMARK                            x       y       z     vdW  Elec       q    Type
REMARK                         _______ _______ _______ _____ _____    ______ ____
ROOT
ATOM      1  O   UNL     1      -0.560   9.898  23.618  0.00  0.00    +0.000 OA
ATOM      2  C   UNL     1      -0.727  10.430  22.524  0.00  0.00    +0.000 C 
ATOM      3  C   UNL     1      -1.649  11.568  22.387  0.00  0.00    +0.000 A 
ATOM      4  C   UNL     1      -2.328  12.014  23.534  0.00  0.00    +0.000 A 
ATOM      5  C   UNL     1      -3.215  13.092  23.472  0.00  0.00    +0.000 A 
ATOM      6  C   UNL     1      -3.439  13.695  22.229  0.00  0.00    +0.000 A 
ATOM      7  C   UNL     1      -2.754  13.256  21.087  0.00  0.00    +0.000 A 
ATOM      8  C   UNL     1      -1.845  12.184  21.152  0.00  0.00    +0.000 A 
ATOM      9  C   UNL     1      -1.098  11.689  19.960  0.00  0.00    +0.000 C 
ATOM     10  O   UNL     1      -1.238  12.237  18.875  0.00  0.00    +0.000 OA
ATOM     11  C   UNL     1      -0.170  10.528  20.095  0.00  0.00    +0.000 A 
ATOM     12  C   UNL     1      -0.002   9.930  21.347  0.00  0.00    +0.000 A 
ATOM     13  C   UNL     1       0.864   8.835  21.521  0.00  0.00    +0.000 A 
ATOM     14  C   UNL     1       1.572   8.331  20.437  0.00  0.00    +0.000 A 
ATOM     15  C   UNL     1       1.422   8.912  19.177  0.00  0.00    +0.000 A 
ATOM     16 CL   UNL     1       2.297   8.298  17.815  0.00  0.00    +0.000 Cl
ATOM     17  C   UNL     1       0.554  10.006  19.006  0.00  0.00    +0.000 A 
ENDROOT
BRANCH   7  18
ATOM     18  O   UNL     1      -2.999  13.900  19.908  0.00  0.00    +0.000 OA
ATOM     19  H   UNL     1      -2.833  13.318  19.151  0.00  0.00    +0.000 HD
ENDBRANCH   7  18
BRANCH  14  20
ATOM     20  O   UNL     1       2.414   7.269  20.609  0.00  0.00    +0.000 OA
ATOM     21  H   UNL     1       2.823   7.305  21.490  0.00  0.00    +0.000 HD
ENDBRANCH  14  20
BRANCH  17  22
ATOM     22  O   UNL     1       0.424  10.552  17.757  0.00  0.00    +0.000 OA
ATOM     23  H   UNL     1      -0.375  11.110  17.733  0.00  0.00    +0.000 HD
ENDBRANCH  17  22
BRANCH   5  24
ATOM     24  C   UNL     1      -3.952  13.524  24.714  0.00  0.00    +0.000 C 
BRANCH  24  25
ATOM     25  O   UNL     1      -3.198  14.468  25.459  0.00  0.00    +0.000 OA
ATOM     26  H   UNL     1      -2.555  13.962  25.984  0.00  0.00    +0.000 HD
ENDBRANCH  24  25
ENDBRANCH   5  24
TORSDOF 5
ENDMDL
MODEL 8
REMARK VINA RESULT:      -6.5      2.534      6.995
REMARK  Name = 
REMARK  5 active torsions:
REMARK  status: ('A' for Active; 'I' for Inactive)
REMARK    1  A    between atoms: C_5  and  C_6
REMARK    2  A    between atoms: C_6  and  O_7
REMARK    3  A    between atoms: C_9  and  O_10
REMARK    4  A    between atoms: C_17  and  O_18
REMARK    5  A    between atoms: C_21  and  O_22
REMARK                            x       y       z     vdW  Elec       q    Type
REMARK                         _______ _______ _______ _____ _____    ______ ____
ROOT
ATOM      1  O   UNL     1       3.644   8.132  16.199  0.00  0.00    +0.000 OA
ATOM      2  C   UNL     1       3.609   7.330  17.129  0.00  0.00    +0.000 C 
ATOM      3  C   UNL     1       4.410   6.098  17.076  0.00  0.00    +0.000 A 
ATOM      4  C   UNL     1       5.201   5.869  15.936  0.00  0.00    +0.000 A 
ATOM      5  C   UNL     1       5.988   4.719  15.825  0.00  0.00    +0.000 A 
ATOM      6  C   UNL     1       5.941   3.781  16.863  0.00  0.00    +0.000 A 
ATOM      7  C   UNL     1       5.159   4.015  18.003  0.00  0.00    +0.000 A 
ATOM      8  C   UNL     1       4.383   5.181  18.126  0.00  0.00    +0.000 A 
ATOM      9  C   UNL     1       3.540   5.465  19.323  0.00  0.00    +0.000 C 
ATOM     10  O   UNL     1       3.526   4.684  20.265  0.00  0.00    +0.000 OA
ATOM     11  C   UNL     1       2.718   6.710  19.374  0.00  0.00    +0.000 A 
ATOM     12  C   UNL     1       2.764   7.604  18.301  0.00  0.00    +0.000 A 
ATOM     13  C   UNL     1       2.009   8.790  18.307  0.00  0.00    +0.000 A 
ATOM     14  C   UNL     1       1.199   9.091  19.396  0.00  0.00    +0.000 A 
ATOM     15  C   UNL     1       1.137   8.215  20.480  0.00  0.00    +0.000 A 
ATOM     16 CL   UNL     1       0.134   8.574  21.845  0.00  0.00    +0.000 Cl
ATOM     17  C   UNL     1       1.892   7.028  20.469  0.00  0.00    +0.000 A 
ENDROOT
BRANCH   7  18
ATOM     18  O   UNL     1       5.173   3.072  18.991  0.00  0.00    +0.000 OA
ATOM     19  H   UNL     1       4.277   2.886  19.309  0.00  0.00    +0.000 HD
ENDBRANCH   7  18
BRANCH  14  20
ATOM     20  O   UNL     1       0.467  10.245  19.401  0.00  0.00    +0.000 OA
ATOM     21  H   UNL     1      -0.460  10.054  19.179  0.00  0.00    +0.000 HD
ENDBRANCH  14  20
BRANCH  17  22
ATOM     22  O   UNL     1       1.807   6.186  21.546  0.00  0.00    +0.000 OA
ATOM     23  H   UNL     1       2.366   6.530  22.266  0.00  0.00    +0.000 HD
ENDBRANCH  17  22
BRANCH   5  24
ATOM     24  C   UNL     1       6.798   4.489  14.575  0.00  0.00    +0.000 C 
BRANCH  24  25
ATOM     25  O   UNL     1       7.816   5.468  14.433  0.00  0.00    +0.000 OA
ATOM     26  H   UNL     1       7.443   6.309  14.748  0.00  0.00    +0.000 HD
ENDBRANCH  24  25
ENDBRANCH   5  24
TORSDOF 5
ENDMDL
MODEL 9
REMARK VINA RESULT:      -6.5      3.878      7.588
REMARK  Name = 
REMARK  5 active torsions:
REMARK  status: ('A' for Active; 'I' for Inactive)
REMARK    1  A    between atoms: C_5  and  C_6
REMARK    2  A    between atoms: C_6  and  O_7
REMARK    3  A    between atoms: C_9  and  O_10
REMARK    4  A    between atoms: C_17  and  O_18
REMARK    5  A    between atoms: C_21  and  O_22
REMARK                            x       y       z     vdW  Elec       q    Type
REMARK                         _______ _______ _______ _____ _____    ______ ____
ROOT
ATOM      1  O   UNL     1      -0.148   8.943  22.925  0.00  0.00    +0.000 OA
ATOM      2  C   UNL     1      -0.087   9.609  21.895  0.00  0.00    +0.000 C 
ATOM      3  C   UNL     1       0.692   9.125  20.745  0.00  0.00    +0.000 A 
ATOM      4  C   UNL     1       1.359   7.894  20.867  0.00  0.00    +0.000 A 
ATOM      5  C   UNL     1       2.113   7.377  19.809  0.00  0.00    +0.000 A 
ATOM      6  C   UNL     1       2.216   8.133  18.636  0.00  0.00    +0.000 A 
ATOM      7  C   UNL     1       1.542   9.356  18.513  0.00  0.00    +0.000 A 
ATOM      8  C   UNL     1       0.767   9.869  19.568  0.00  0.00    +0.000 A 
ATOM      9  C   UNL     1       0.035  11.166  19.474  0.00  0.00    +0.000 C 
ATOM     10  O   UNL     1       0.068  11.816  18.439  0.00  0.00    +0.000 OA
ATOM     11  C   UNL     1      -0.747  11.663  20.644  0.00  0.00    +0.000 A 
ATOM     12  C   UNL     1      -0.795  10.895  21.810  0.00  0.00    +0.000 A 
ATOM     13  C   UNL     1      -1.521  11.324  22.936  0.00  0.00    +0.000 A 
ATOM     14  C   UNL     1      -2.209  12.531  22.899  0.00  0.00    +0.000 A 
ATOM     15  C   UNL     1      -2.177  13.315  21.746  0.00  0.00    +0.000 A 
ATOM     16 CL   UNL     1      -3.028  14.822  21.682  0.00  0.00    +0.000 Cl
ATOM     17  C   UNL     1      -1.448  12.884  20.623  0.00  0.00    +0.000 A 
ENDROOT
BRANCH   7  18
ATOM     18  O   UNL     1       1.665  10.037  17.335  0.00  0.00    +0.000 OA
ATOM     19  H   UNL     1       2.475   9.783  16.867  0.00  0.00    +0.000 HD
ENDBRANCH   7  18
BRANCH  14  20
ATOM     20  O   UNL     1      -2.915  12.945  23.993  0.00  0.00    +0.000 OA
ATOM     21  H   UNL     1      -3.438  13.735  23.775  0.00  0.00    +0.000 HD
ENDBRANCH  14  20
BRANCH  17  22
ATOM     22  O   UNL     1      -1.432  13.678  19.506  0.00  0.00    +0.000 OA
ATOM     23  H   UNL     1      -1.543  14.608  19.773  0.00  0.00    +0.000 HD
ENDBRANCH  17  22
BRANCH   5  24
ATOM     24  C   UNL     1       2.844   6.070  19.984  0.00  0.00    +0.000 C 
BRANCH  24  25
ATOM     25  O   UNL     1       2.413   5.392  21.154  0.00  0.00    +0.000 OA
ATOM     26  H   UNL     1       1.710   4.778  20.881  0.00  0.00    +0.000 HD
ENDBRANCH  24  25
ENDBRANCH   5  24
TORSDOF 5
ENDMDL
