MODEL 1
REMARK VINA RESULT:      -7.5      0.000      0.000
REMARK  Name = 
REMARK  7 active torsions:
REMARK  status: ('A' for Active; 'I' for Inactive)
REMARK    1  A    between atoms: C_1  and  O_2
REMARK    2  A    between atoms: O_2  and  C_3
REMARK    3  A    between atoms: C_6  and  C_7
REMARK    4  A    between atoms: N_9  and  C_10
REMARK    5  A    between atoms: C_17  and  C_18
REMARK    6  A    between atoms: N_20  and  C_21
REMARK    7  A    between atoms: C_24  and  C_25
REMARK                            x       y       z     vdW  Elec       q    Type
REMARK                         _______ _______ _______ _____ _____    ______ ____
ROOT
ATOM      1  C   UNL     1       4.429   4.695  17.040  0.00  0.00    +0.000 A 
ATOM      2  N   UNL     1       4.820   3.947  15.998  0.00  0.00    +0.000 NA
ATOM      3  N   UNL     1       5.308   4.812  15.082  0.00  0.00    +0.000 N 
ATOM      4  C   UNL     1       5.200   6.117  15.517  0.00  0.00    +0.000 A 
ATOM      5  C   UNL     1       4.581   6.089  16.754  0.00  0.00    +0.000 A 
ENDROOT
BRANCH   1   9
ATOM      6  C   UNL     1       3.158   2.877  20.710  0.00  0.00    +0.000 A 
ATOM      7  C   UNL     1       2.287   3.683  19.982  0.00  0.00    +0.000 A 
ATOM      8  C   UNL     1       2.698   4.263  18.781  0.00  0.00    +0.000 A 
ATOM      9  C   UNL     1       3.987   4.043  18.282  0.00  0.00    +0.000 A 
ATOM     10  C   UNL     1       4.865   3.246  19.031  0.00  0.00    +0.000 A 
ATOM     11  C   UNL     1       4.452   2.667  20.242  0.00  0.00    +0.000 A 
BRANCH   6  13
ATOM     12  C   UNL     1       1.235   2.478  22.016  0.00  0.00    +0.000 C 
ATOM     13  O   UNL     1       2.644   2.400  21.883  0.00  0.00    +0.000 OA
ENDBRANCH   6  13
ENDBRANCH   1   9
BRANCH   3  14
ATOM     14  C   UNL     1       5.857   4.331  13.857  0.00  0.00    +0.000 A 
ATOM     15  C   UNL     1       5.145   3.379  13.107  0.00  0.00    +0.000 A 
ATOM     16  C   UNL     1       5.672   2.882  11.911  0.00  0.00    +0.000 A 
ATOM     17  C   UNL     1       6.913   3.325  11.459  0.00  0.00    +0.000 A 
ATOM     18  C   UNL     1       7.624   4.271  12.196  0.00  0.00    +0.000 A 
ATOM     19  C   UNL     1       7.099   4.779  13.390  0.00  0.00    +0.000 A 
ENDBRANCH   3  14
BRANCH   5  20
ATOM     20  C   UNL     1       4.161   7.212  17.575  0.00  0.00    +0.000 C 
ATOM     21  O   UNL     1       4.954   8.062  17.969  0.00  0.00    +0.000 OA
ATOM     22  N   UNL     1       2.811   7.288  17.871  0.00  0.00    +0.000 N 
ATOM     23  H   UNL     1       2.216   6.499  17.663  0.00  0.00    +0.000 HD
BRANCH  22  24
ATOM     24  C   UNL     1       2.292   8.381  18.690  0.00  0.00    +0.000 C 
ATOM     25  C   UNL     1       1.714   7.835  19.999  0.00  0.00    +0.000 C 
ATOM     26  C   UNL     1       1.113   8.939  20.866  0.00  0.00    +0.000 C 
ATOM     27  C   UNL     1       0.071   9.761  20.097  0.00  0.00    +0.000 C 
ATOM     28  C   UNL     1      -0.487  10.882  20.973  0.00  0.00    +0.000 C 
ATOM     29  C   UNL     1       0.676  10.325  18.805  0.00  0.00    +0.000 C 
ATOM     30  C   UNL     1       1.258   9.216  17.926  0.00  0.00    +0.000 C 
ENDBRANCH  22  24
ENDBRANCH   5  20
TORSDOF 5
ENDMDL
MODEL 2
REMARK VINA RESULT:      -7.4      0.599      1.084
REMARK  Name = 
REMARK  7 active torsions:
REMARK  status: ('A' for Active; 'I' for Inactive)
REMARK    1  A    between atoms: C_1  and  O_2
REMARK    2  A    between atoms: O_2  and  C_3
REMARK    3  A    between atoms: C_6  and  C_7
REMARK    4  A    between atoms: N_9  and  C_10
REMARK    5  A    between atoms: C_17  and  C_18
REMARK    6  A    between atoms: N_20  and  C_21
REMARK    7  A    between atoms: C_24  and  C_25
REMARK                            x       y       z     vdW  Elec       q    Type
REMARK                         _______ _______ _______ _____ _____    ______ ____
ROOT
ATOM      1  C   UNL     1       4.203   4.576  16.758  0.00  0.00    +0.000 A 
ATOM      2  N   UNL     1       4.626   3.886  15.688  0.00  0.00    +0.000 NA
ATOM      3  N   UNL     1       5.344   4.756  14.945  0.00  0.00    +0.000 N 
ATOM      4  C   UNL     1       5.357   6.012  15.515  0.00  0.00    +0.000 A 
ATOM      5  C   UNL     1       4.581   5.954  16.658  0.00  0.00    +0.000 A 
ENDROOT
BRANCH   1   9
ATOM      6  C   UNL     1       2.173   2.621  19.990  0.00  0.00    +0.000 A 
ATOM      7  C   UNL     1       1.457   3.130  18.910  0.00  0.00    +0.000 A 
ATOM      8  C   UNL     1       2.121   3.754  17.852  0.00  0.00    +0.000 A 
ATOM      9  C   UNL     1       3.515   3.876  17.853  0.00  0.00    +0.000 A 
ATOM     10  C   UNL     1       4.228   3.379  18.953  0.00  0.00    +0.000 A 
ATOM     11  C   UNL     1       3.559   2.756  20.019  0.00  0.00    +0.000 A 
BRANCH   6  13
ATOM     12  C   UNL     1       1.435   2.728  22.228  0.00  0.00    +0.000 C 
ATOM     13  O   UNL     1       1.403   2.067  20.973  0.00  0.00    +0.000 OA
ENDBRANCH   6  13
ENDBRANCH   1   9
BRANCH   3  14
ATOM     14  C   UNL     1       5.982   4.323  13.745  0.00  0.00    +0.000 A 
ATOM     15  C   UNL     1       7.162   4.958  13.321  0.00  0.00    +0.000 A 
ATOM     16  C   UNL     1       7.795   4.559  12.139  0.00  0.00    +0.000 A 
ATOM     17  C   UNL     1       7.252   3.532  11.370  0.00  0.00    +0.000 A 
ATOM     18  C   UNL     1       6.083   2.896  11.785  0.00  0.00    +0.000 A 
ATOM     19  C   UNL     1       5.449   3.284  12.971  0.00  0.00    +0.000 A 
ENDBRANCH   3  14
BRANCH   5  20
ATOM     20  C   UNL     1       4.211   7.039  17.551  0.00  0.00    +0.000 C 
ATOM     21  O   UNL     1       5.047   7.787  18.046  0.00  0.00    +0.000 OA
ATOM     22  N   UNL     1       2.857   7.200  17.797  0.00  0.00    +0.000 N 
ATOM     23  H   UNL     1       2.214   6.481  17.500  0.00  0.00    +0.000 HD
BRANCH  22  24
ATOM     24  C   UNL     1       2.387   8.264  18.681  0.00  0.00    +0.000 C 
ATOM     25  C   UNL     1       1.832   7.668  19.978  0.00  0.00    +0.000 C 
ATOM     26  C   UNL     1       1.281   8.743  20.914  0.00  0.00    +0.000 C 
ATOM     27  C   UNL     1       0.238   9.623  20.214  0.00  0.00    +0.000 C 
ATOM     28  C   UNL     1      -0.270  10.714  21.157  0.00  0.00    +0.000 C 
ATOM     29  C   UNL     1       0.820  10.235  18.934  0.00  0.00    +0.000 C 
ATOM     30  C   UNL     1       1.353   9.157  17.987  0.00  0.00    +0.000 C 
ENDBRANCH  22  24
ENDBRANCH   5  20
TORSDOF 5
ENDMDL
MODEL 3
REMARK VINA RESULT:      -7.3      4.363     11.180
REMARK  Name = 
REMARK  7 active torsions:
REMARK  status: ('A' for Active; 'I' for Inactive)
REMARK    1  A    between atoms: C_1  and  O_2
REMARK    2  A    between atoms: O_2  and  C_3
REMARK    3  A    between atoms: C_6  and  C_7
REMARK    4  A    between atoms: N_9  and  C_10
REMARK    5  A    between atoms: C_17  and  C_18
REMARK    6  A    between atoms: N_20  and  C_21
REMARK    7  A    between atoms: C_24  and  C_25
REMARK                            x       y       z     vdW  Elec       q    Type
REMARK                         _______ _______ _______ _____ _____    ______ ____
ROOT
ATOM      1  C   UNL     1       0.127  11.977  21.034  0.00  0.00    +0.000 A 
ATOM      2  N   UNL     1      -0.993  12.673  21.277  0.00  0.00    +0.000 NA
ATOM      3  N   UNL     1      -1.719  11.922  22.135  0.00  0.00    +0.000 N 
ATOM      4  C   UNL     1      -1.084  10.730  22.417  0.00  0.00    +0.000 A 
ATOM      5  C   UNL     1       0.084  10.699  21.678  0.00  0.00    +0.000 A 
ENDROOT
BRANCH   1   9
ATOM      6  C   UNL     1       3.229  13.835  18.729  0.00  0.00    +0.000 A 
ATOM      7  C   UNL     1       2.977  14.245  20.035  0.00  0.00    +0.000 A 
ATOM      8  C   UNL     1       1.976  13.630  20.789  0.00  0.00    +0.000 A 
ATOM      9  C   UNL     1       1.211  12.588  20.250  0.00  0.00    +0.000 A 
ATOM     10  C   UNL     1       1.458  12.194  18.927  0.00  0.00    +0.000 A 
ATOM     11  C   UNL     1       2.462  12.817  18.169  0.00  0.00    +0.000 A 
BRANCH   6  13
ATOM     12  C   UNL     1       4.499  15.820  18.630  0.00  0.00    +0.000 C 
ATOM     13  O   UNL     1       4.210  14.542  18.091  0.00  0.00    +0.000 OA
ENDBRANCH   6  13
ENDBRANCH   1   9
BRANCH   3  14
ATOM     14  C   UNL     1      -2.964  12.402  22.637  0.00  0.00    +0.000 A 
ATOM     15  C   UNL     1      -3.283  12.212  23.992  0.00  0.00    +0.000 A 
ATOM     16  C   UNL     1      -4.505  12.662  24.502  0.00  0.00    +0.000 A 
ATOM     17  C   UNL     1      -5.419  13.296  23.663  0.00  0.00    +0.000 A 
ATOM     18  C   UNL     1      -5.109  13.490  22.318  0.00  0.00    +0.000 A 
ATOM     19  C   UNL     1      -3.884  13.050  21.803  0.00  0.00    +0.000 A 
ENDBRANCH   3  14
BRANCH   5  20
ATOM     20  C   UNL     1       1.046   9.616  21.561  0.00  0.00    +0.000 C 
ATOM     21  O   UNL     1       1.838   9.350  22.459  0.00  0.00    +0.000 OA
ATOM     22  N   UNL     1       1.008   8.883  20.387  0.00  0.00    +0.000 N 
ATOM     23  H   UNL     1       0.455   9.220  19.613  0.00  0.00    +0.000 HD
BRANCH  22  24
ATOM     24  C   UNL     1       1.935   7.773  20.176  0.00  0.00    +0.000 C 
ATOM     25  C   UNL     1       2.347   7.700  18.703  0.00  0.00    +0.000 C 
ATOM     26  C   UNL     1       3.279   6.521  18.426  0.00  0.00    +0.000 C 
ATOM     27  C   UNL     1       2.673   5.195  18.902  0.00  0.00    +0.000 C 
ATOM     28  C   UNL     1       3.639   4.038  18.649  0.00  0.00    +0.000 C 
ATOM     29  C   UNL     1       2.295   5.277  20.386  0.00  0.00    +0.000 C 
ATOM     30  C   UNL     1       1.344   6.445  20.660  0.00  0.00    +0.000 C 
ENDBRANCH  22  24
ENDBRANCH   5  20
TORSDOF 5
ENDMDL
MODEL 4
REMARK VINA RESULT:      -7.2      4.353      8.597
REMARK  Name = 
REMARK  7 active torsions:
REMARK  status: ('A' for Active; 'I' for Inactive)
REMARK    1  A    between atoms: C_1  and  O_2
REMARK    2  A    between atoms: O_2  and  C_3
REMARK    3  A    between atoms: C_6  and  C_7
REMARK    4  A    between atoms: N_9  and  C_10
REMARK    5  A    between atoms: C_17  and  C_18
REMARK    6  A    between atoms: N_20  and  C_21
REMARK    7  A    between atoms: C_24  and  C_25
REMARK                            x       y       z     vdW  Elec       q    Type
REMARK                         _______ _______ _______ _____ _____    ______ ____
ROOT
ATOM      1  C   UNL     1       0.911  10.050  20.146  0.00  0.00    +0.000 A 
ATOM      2  N   UNL     1       1.561   9.107  19.446  0.00  0.00    +0.000 NA
ATOM      3  N   UNL     1       1.536   7.994  20.212  0.00  0.00    +0.000 N 
ATOM      4  C   UNL     1       0.901   8.226  21.415  0.00  0.00    +0.000 A 
ATOM      5  C   UNL     1       0.536   9.560  21.437  0.00  0.00    +0.000 A 
ENDROOT
BRANCH   1   9
ATOM      6  C   UNL     1       0.039  13.877  18.419  0.00  0.00    +0.000 A 
ATOM      7  C   UNL     1       1.188  13.692  19.183  0.00  0.00    +0.000 A 
ATOM      8  C   UNL     1       1.477  12.442  19.733  0.00  0.00    +0.000 A 
ATOM      9  C   UNL     1       0.624  11.351  19.524  0.00  0.00    +0.000 A 
ATOM     10  C   UNL     1      -0.541  11.551  18.770  0.00  0.00    +0.000 A 
ATOM     11  C   UNL     1      -0.834  12.810  18.222  0.00  0.00    +0.000 A 
BRANCH   6  13
ATOM     12  C   UNL     1      -0.215  16.157  18.970  0.00  0.00    +0.000 C 
ATOM     13  O   UNL     1      -0.145  15.155  17.969  0.00  0.00    +0.000 OA
ENDBRANCH   6  13
ENDBRANCH   1   9
BRANCH   3  14
ATOM     14  C   UNL     1       2.108   6.778  19.734  0.00  0.00    +0.000 A 
ATOM     15  C   UNL     1       2.810   6.776  18.517  0.00  0.00    +0.000 A 
ATOM     16  C   UNL     1       3.366   5.592  18.022  0.00  0.00    +0.000 A 
ATOM     17  C   UNL     1       3.220   4.403  18.734  0.00  0.00    +0.000 A 
ATOM     18  C   UNL     1       2.527   4.397  19.944  0.00  0.00    +0.000 A 
ATOM     19  C   UNL     1       1.975   5.580  20.449  0.00  0.00    +0.000 A 
ENDBRANCH   3  14
BRANCH   5  20
ATOM     20  C   UNL     1      -0.074  10.307  22.524  0.00  0.00    +0.000 C 
ATOM     21  O   UNL     1       0.044   9.964  23.696  0.00  0.00    +0.000 OA
ATOM     22  N   UNL     1      -0.780  11.445  22.169  0.00  0.00    +0.000 N 
ATOM     23  H   UNL     1      -0.986  11.613  21.196  0.00  0.00    +0.000 HD
BRANCH  22  24
ATOM     24  C   UNL     1      -1.428  12.263  23.192  0.00  0.00    +0.000 C 
ATOM     25  C   UNL     1      -2.950  12.212  23.025  0.00  0.00    +0.000 C 
ATOM     26  C   UNL     1      -3.669  13.096  24.043  0.00  0.00    +0.000 C 
ATOM     27  C   UNL     1      -3.151  14.539  24.007  0.00  0.00    +0.000 C 
ATOM     28  C   UNL     1      -3.858  15.393  25.059  0.00  0.00    +0.000 C 
ATOM     29  C   UNL     1      -1.631  14.572  24.206  0.00  0.00    +0.000 C 
ATOM     30  C   UNL     1      -0.909  13.705  23.172  0.00  0.00    +0.000 C 
ENDBRANCH  22  24
ENDBRANCH   5  20
TORSDOF 5
ENDMDL
MODEL 5
REMARK VINA RESULT:      -7.2      5.005      9.434
REMARK  Name = 
REMARK  7 active torsions:
REMARK  status: ('A' for Active; 'I' for Inactive)
REMARK    1  A    between atoms: C_1  and  O_2
REMARK    2  A    between atoms: O_2  and  C_3
REMARK    3  A    between atoms: C_6  and  C_7
REMARK    4  A    between atoms: N_9  and  C_10
REMARK    5  A    between atoms: C_17  and  C_18
REMARK    6  A    between atoms: N_20  and  C_21
REMARK    7  A    between atoms: C_24  and  C_25
REMARK                            x       y       z     vdW  Elec       q    Type
REMARK                         _______ _______ _______ _____ _____    ______ ____
ROOT
ATOM      1  C   UNL     1      -0.182  10.753  19.239  0.00  0.00    +0.000 A 
ATOM      2  N   UNL     1      -1.483  10.526  18.999  0.00  0.00    +0.000 NA
ATOM      3  N   UNL     1      -2.068  11.743  18.950  0.00  0.00    +0.000 N 
ATOM      4  C   UNL     1      -1.155  12.749  19.192  0.00  0.00    +0.000 A 
ATOM      5  C   UNL     1       0.065  12.148  19.443  0.00  0.00    +0.000 A 
ENDROOT
BRANCH   1   9
ATOM      6  C   UNL     1       2.532   7.436  19.084  0.00  0.00    +0.000 A 
ATOM      7  C   UNL     1       2.293   8.207  17.950  0.00  0.00    +0.000 A 
ATOM      8  C   UNL     1       1.419   9.295  18.006  0.00  0.00    +0.000 A 
ATOM      9  C   UNL     1       0.772   9.635  19.200  0.00  0.00    +0.000 A 
ATOM     10  C   UNL     1       1.004   8.842  20.333  0.00  0.00    +0.000 A 
ATOM     11  C   UNL     1       1.879   7.745  20.275  0.00  0.00    +0.000 A 
BRANCH   6  13
ATOM     12  C   UNL     1       3.094   5.213  19.639  0.00  0.00    +0.000 C 
ATOM     13  O   UNL     1       3.379   6.382  18.887  0.00  0.00    +0.000 OA
ENDBRANCH   6  13
ENDBRANCH   1   9
BRANCH   3  14
ATOM     14  C   UNL     1      -3.460  11.862  18.662  0.00  0.00    +0.000 A 
ATOM     15  C   UNL     1      -3.938  11.484  17.396  0.00  0.00    +0.000 A 
ATOM     16  C   UNL     1      -5.297  11.607  17.087  0.00  0.00    +0.000 A 
ATOM     17  C   UNL     1      -6.184  12.113  18.035  0.00  0.00    +0.000 A 
ATOM     18  C   UNL     1      -5.717  12.488  19.294  0.00  0.00    +0.000 A 
ATOM     19  C   UNL     1      -4.360  12.360  19.613  0.00  0.00    +0.000 A 
ENDBRANCH   3  14
BRANCH   5  20
ATOM     20  C   UNL     1       1.312  12.777  19.842  0.00  0.00    +0.000 C 
ATOM     21  O   UNL     1       1.829  12.562  20.934  0.00  0.00    +0.000 OA
ATOM     22  N   UNL     1       1.903  13.617  18.913  0.00  0.00    +0.000 N 
ATOM     23  H   UNL     1       1.381  13.890  18.093  0.00  0.00    +0.000 HD
BRANCH  22  24
ATOM     24  C   UNL     1       3.160  14.295  19.221  0.00  0.00    +0.000 C 
ATOM     25  C   UNL     1       2.887  15.716  19.724  0.00  0.00    +0.000 C 
ATOM     26  C   UNL     1       4.177  16.481  20.011  0.00  0.00    +0.000 C 
ATOM     27  C   UNL     1       5.114  16.489  18.796  0.00  0.00    +0.000 C 
ATOM     28  C   UNL     1       6.413  17.228  19.121  0.00  0.00    +0.000 C 
ATOM     29  C   UNL     1       5.401  15.058  18.326  0.00  0.00    +0.000 C 
ATOM     30  C   UNL     1       4.109  14.298  18.018  0.00  0.00    +0.000 C 
ENDBRANCH  22  24
ENDBRANCH   5  20
TORSDOF 5
ENDMDL
MODEL 6
REMARK VINA RESULT:      -7.1      4.838      9.563
REMARK  Name = 
REMARK  7 active torsions:
REMARK  status: ('A' for Active; 'I' for Inactive)
REMARK    1  A    between atoms: C_1  and  O_2
REMARK    2  A    between atoms: O_2  and  C_3
REMARK    3  A    between atoms: C_6  and  C_7
REMARK    4  A    between atoms: N_9  and  C_10
REMARK    5  A    between atoms: C_17  and  C_18
REMARK    6  A    between atoms: N_20  and  C_21
REMARK    7  A    between atoms: C_24  and  C_25
REMARK                            x       y       z     vdW  Elec       q    Type
REMARK                         _______ _______ _______ _____ _____    ______ ____
ROOT
ATOM      1  C   UNL     1      -0.211  10.782  19.259  0.00  0.00    +0.000 A 
ATOM      2  N   UNL     1      -1.514  10.556  19.030  0.00  0.00    +0.000 NA
ATOM      3  N   UNL     1      -2.107  11.770  19.029  0.00  0.00    +0.000 N 
ATOM      4  C   UNL     1      -1.196  12.773  19.291  0.00  0.00    +0.000 A 
ATOM      5  C   UNL     1       0.030  12.171  19.505  0.00  0.00    +0.000 A 
ENDROOT
BRANCH   1   9
ATOM      6  C   UNL     1       2.518   7.488  18.956  0.00  0.00    +0.000 A 
ATOM      7  C   UNL     1       2.253   8.291  17.850  0.00  0.00    +0.000 A 
ATOM      8  C   UNL     1       1.375   9.371  17.954  0.00  0.00    +0.000 A 
ATOM      9  C   UNL     1       0.749   9.671  19.169  0.00  0.00    +0.000 A 
ATOM     10  C   UNL     1       1.005   8.847  20.274  0.00  0.00    +0.000 A 
ATOM     11  C   UNL     1       1.885   7.758  20.167  0.00  0.00    +0.000 A 
BRANCH   6  13
ATOM     12  C   UNL     1       4.198   6.581  17.571  0.00  0.00    +0.000 C 
ATOM     13  O   UNL     1       3.367   6.445  18.712  0.00  0.00    +0.000 OA
ENDBRANCH   6  13
ENDBRANCH   1   9
BRANCH   3  14
ATOM     14  C   UNL     1      -3.503  11.890  18.765  0.00  0.00    +0.000 A 
ATOM     15  C   UNL     1      -4.346  12.450  19.740  0.00  0.00    +0.000 A 
ATOM     16  C   UNL     1      -5.720  12.563  19.507  0.00  0.00    +0.000 A 
ATOM     17  C   UNL     1      -6.263  12.112  18.306  0.00  0.00    +0.000 A 
ATOM     18  C   UNL     1      -5.433  11.557  17.333  0.00  0.00    +0.000 A 
ATOM     19  C   UNL     1      -4.055  11.449  17.555  0.00  0.00    +0.000 A 
ENDBRANCH   3  14
BRANCH   5  20
ATOM     20  C   UNL     1       1.280  12.794  19.907  0.00  0.00    +0.000 C 
ATOM     21  O   UNL     1       1.812  12.550  20.985  0.00  0.00    +0.000 OA
ATOM     22  N   UNL     1       1.856  13.664  18.996  0.00  0.00    +0.000 N 
ATOM     23  H   UNL     1       1.322  13.958  18.191  0.00  0.00    +0.000 HD
BRANCH  22  24
ATOM     24  C   UNL     1       3.113  14.338  19.308  0.00  0.00    +0.000 C 
ATOM     25  C   UNL     1       2.843  15.768  19.787  0.00  0.00    +0.000 C 
ATOM     26  C   UNL     1       4.135  16.530  20.078  0.00  0.00    +0.000 C 
ATOM     27  C   UNL     1       5.086  16.515  18.874  0.00  0.00    +0.000 C 
ATOM     28  C   UNL     1       6.385  17.249  19.202  0.00  0.00    +0.000 C 
ATOM     29  C   UNL     1       5.369  15.075  18.428  0.00  0.00    +0.000 C 
ATOM     30  C   UNL     1       4.075  14.318  18.116  0.00  0.00    +0.000 C 
ENDBRANCH  22  24
ENDBRANCH   5  20
TORSDOF 5
ENDMDL
MODEL 7
REMARK VINA RESULT:      -7.1      4.392     11.220
REMARK  Name = 
REMARK  7 active torsions:
REMARK  status: ('A' for Active; 'I' for Inactive)
REMARK    1  A    between atoms: C_1  and  O_2
REMARK    2  A    between atoms: O_2  and  C_3
REMARK    3  A    between atoms: C_6  and  C_7
REMARK    4  A    between atoms: N_9  and  C_10
REMARK    5  A    between atoms: C_17  and  C_18
REMARK    6  A    between atoms: N_20  and  C_21
REMARK    7  A    between atoms: C_24  and  C_25
REMARK                            x       y       z     vdW  Elec       q    Type
REMARK                         _______ _______ _______ _____ _____    ______ ____
ROOT
ATOM      1  C   UNL     1      -1.645  11.650  20.130  0.00  0.00    +0.000 A 
ATOM      2  N   UNL     1      -2.365  12.328  21.037  0.00  0.00    +0.000 NA
ATOM      3  N   UNL     1      -1.491  12.716  21.991  0.00  0.00    +0.000 N 
ATOM      4  C   UNL     1      -0.217  12.261  21.720  0.00  0.00    +0.000 A 
ATOM      5  C   UNL     1      -0.284  11.516  20.556  0.00  0.00    +0.000 A 
ENDROOT
BRANCH   1   9
ATOM      6  C   UNL     1      -3.418  10.450  16.415  0.00  0.00    +0.000 A 
ATOM      7  C   UNL     1      -2.209   9.899  16.832  0.00  0.00    +0.000 A 
ATOM      8  C   UNL     1      -1.641  10.281  18.048  0.00  0.00    +0.000 A 
ATOM      9  C   UNL     1      -2.273  11.218  18.873  0.00  0.00    +0.000 A 
ATOM     10  C   UNL     1      -3.480  11.783  18.437  0.00  0.00    +0.000 A 
ATOM     11  C   UNL     1      -4.049  11.402  17.212  0.00  0.00    +0.000 A 
BRANCH   6  13
ATOM     12  C   UNL     1      -2.868   9.995  14.167  0.00  0.00    +0.000 C 
ATOM     13  O   UNL     1      -3.848  10.019  15.192  0.00  0.00    +0.000 OA
ENDBRANCH   6  13
ENDBRANCH   1   9
BRANCH   3  14
ATOM     14  C   UNL     1      -1.932  13.507  23.093  0.00  0.00    +0.000 A 
ATOM     15  C   UNL     1      -1.057  14.448  23.662  0.00  0.00    +0.000 A 
ATOM     16  C   UNL     1      -1.464  15.225  24.751  0.00  0.00    +0.000 A 
ATOM     17  C   UNL     1      -2.740  15.062  25.285  0.00  0.00    +0.000 A 
ATOM     18  C   UNL     1      -3.615  14.132  24.725  0.00  0.00    +0.000 A 
ATOM     19  C   UNL     1      -3.218  13.358  23.629  0.00  0.00    +0.000 A 
ENDBRANCH   3  14
BRANCH   5  20
ATOM     20  C   UNL     1       0.772  10.753  19.915  0.00  0.00    +0.000 C 
ATOM     21  O   UNL     1       1.563  11.269  19.130  0.00  0.00    +0.000 OA
ATOM     22  N   UNL     1       0.857   9.413  20.252  0.00  0.00    +0.000 N 
ATOM     23  H   UNL     1       0.105   8.988  20.776  0.00  0.00    +0.000 HD
BRANCH  22  24
ATOM     24  C   UNL     1       1.887   8.563  19.659  0.00  0.00    +0.000 C 
ATOM     25  C   UNL     1       1.741   8.538  18.135  0.00  0.00    +0.000 C 
ATOM     26  C   UNL     1       2.768   7.620  17.475  0.00  0.00    +0.000 C 
ATOM     27  C   UNL     1       2.724   6.204  18.063  0.00  0.00    +0.000 C 
ATOM     28  C   UNL     1       3.785   5.316  17.414  0.00  0.00    +0.000 C 
ATOM     29  C   UNL     1       2.902   6.246  19.585  0.00  0.00    +0.000 C 
ATOM     30  C   UNL     1       1.859   7.149  20.249  0.00  0.00    +0.000 C 
ENDBRANCH  22  24
ENDBRANCH   5  20
TORSDOF 5
ENDMDL
MODEL 8
REMARK VINA RESULT:      -7.0      5.013     11.868
REMARK  Name = 
REMARK  7 active torsions:
REMARK  status: ('A' for Active; 'I' for Inactive)
REMARK    1  A    between atoms: C_1  and  O_2
REMARK    2  A    between atoms: O_2  and  C_3
REMARK    3  A    between atoms: C_6  and  C_7
REMARK    4  A    between atoms: N_9  and  C_10
REMARK    5  A    between atoms: C_17  and  C_18
REMARK    6  A    between atoms: N_20  and  C_21
REMARK    7  A    between atoms: C_24  and  C_25
REMARK                            x       y       z     vdW  Elec       q    Type
REMARK                         _______ _______ _______ _____ _____    ______ ____
ROOT
ATOM      1  C   UNL     1      -2.384  12.457  20.082  0.00  0.00    +0.000 A 
ATOM      2  N   UNL     1      -3.231  13.138  20.869  0.00  0.00    +0.000 NA
ATOM      3  N   UNL     1      -2.477  13.655  21.865  0.00  0.00    +0.000 N 
ATOM      4  C   UNL     1      -1.155  13.280  21.741  0.00  0.00    +0.000 A 
ATOM      5  C   UNL     1      -1.063  12.455  20.634  0.00  0.00    +0.000 A 
ENDROOT
BRANCH   1   9
ATOM      6  C   UNL     1      -3.772  10.906  16.333  0.00  0.00    +0.000 A 
ATOM      7  C   UNL     1      -2.412  11.111  16.554  0.00  0.00    +0.000 A 
ATOM      8  C   UNL     1      -1.961  11.603  17.780  0.00  0.00    +0.000 A 
ATOM      9  C   UNL     1      -2.862  11.895  18.811  0.00  0.00    +0.000 A 
ATOM     10  C   UNL     1      -4.231  11.703  18.575  0.00  0.00    +0.000 A 
ATOM     11  C   UNL     1      -4.684  11.213  17.340  0.00  0.00    +0.000 A 
BRANCH   6  13
ATOM     12  C   UNL     1      -2.986  10.035  14.287  0.00  0.00    +0.000 C 
ATOM     13  O   UNL     1      -4.083  10.454  15.082  0.00  0.00    +0.000 OA
ENDBRANCH   6  13
ENDBRANCH   1   9
BRANCH   3  14
ATOM     14  C   UNL     1      -3.072  14.484  22.862  0.00  0.00    +0.000 A 
ATOM     15  C   UNL     1      -4.461  14.693  22.849  0.00  0.00    +0.000 A 
ATOM     16  C   UNL     1      -5.062  15.514  23.808  0.00  0.00    +0.000 A 
ATOM     17  C   UNL     1      -4.282  16.137  24.780  0.00  0.00    +0.000 A 
ATOM     18  C   UNL     1      -2.903  15.934  24.800  0.00  0.00    +0.000 A 
ATOM     19  C   UNL     1      -2.296  15.106  23.849  0.00  0.00    +0.000 A 
ENDBRANCH   3  14
BRANCH   5  20
ATOM     20  C   UNL     1       0.099  11.733  20.146  0.00  0.00    +0.000 C 
ATOM     21  O   UNL     1       1.079  12.311  19.688  0.00  0.00    +0.000 OA
ATOM     22  N   UNL     1       0.053  10.352  20.244  0.00  0.00    +0.000 N 
ATOM     23  H   UNL     1      -0.821   9.904  20.481  0.00  0.00    +0.000 HD
BRANCH  22  24
ATOM     24  C   UNL     1       1.174   9.538  19.780  0.00  0.00    +0.000 C 
ATOM     25  C   UNL     1       1.147   9.421  18.253  0.00  0.00    +0.000 C 
ATOM     26  C   UNL     1       2.274   8.535  17.726  0.00  0.00    +0.000 C 
ATOM     27  C   UNL     1       2.268   7.153  18.392  0.00  0.00    +0.000 C 
ATOM     28  C   UNL     1       3.426   6.299  17.876  0.00  0.00    +0.000 C 
ATOM     29  C   UNL     1       2.326   7.290  19.918  0.00  0.00    +0.000 C 
ATOM     30  C   UNL     1       1.184   8.160  20.449  0.00  0.00    +0.000 C 
ENDBRANCH  22  24
ENDBRANCH   5  20
TORSDOF 5
ENDMDL
MODEL 9
REMARK VINA RESULT:      -7.0      4.050     10.098
REMARK  Name = 
REMARK  7 active torsions:
REMARK  status: ('A' for Active; 'I' for Inactive)
REMARK    1  A    between atoms: C_1  and  O_2
REMARK    2  A    between atoms: O_2  and  C_3
REMARK    3  A    between atoms: C_6  and  C_7
REMARK    4  A    between atoms: N_9  and  C_10
REMARK    5  A    between atoms: C_17  and  C_18
REMARK    6  A    between atoms: N_20  and  C_21
REMARK    7  A    between atoms: C_24  and  C_25
REMARK                            x       y       z     vdW  Elec       q    Type
REMARK                         _______ _______ _______ _____ _____    ______ ____
ROOT
ATOM      1  C   UNL     1       0.219  11.755  18.973  0.00  0.00    +0.000 A 
ATOM      2  N   UNL     1      -0.938  12.350  18.645  0.00  0.00    +0.000 NA
ATOM      3  N   UNL     1      -1.872  11.373  18.650  0.00  0.00    +0.000 N 
ATOM      4  C   UNL     1      -1.313  10.147  18.946  0.00  0.00    +0.000 A 
ATOM      5  C   UNL     1       0.047  10.340  19.102  0.00  0.00    +0.000 A 
ENDROOT
BRANCH   1   9
ATOM      6  C   UNL     1       3.660  14.219  19.669  0.00  0.00    +0.000 A 
ATOM      7  C   UNL     1       2.890  13.762  20.735  0.00  0.00    +0.000 A 
ATOM      8  C   UNL     1       1.778  12.949  20.508  0.00  0.00    +0.000 A 
ATOM      9  C   UNL     1       1.419  12.573  19.208  0.00  0.00    +0.000 A 
ATOM     10  C   UNL     1       2.187  13.053  18.138  0.00  0.00    +0.000 A 
ATOM     11  C   UNL     1       3.303  13.874  18.368  0.00  0.00    +0.000 A 
BRANCH   6  13
ATOM     12  C   UNL     1       5.224  14.828  21.325  0.00  0.00    +0.000 C 
ATOM     13  O   UNL     1       4.698  15.033  20.025  0.00  0.00    +0.000 OA
ENDBRANCH   6  13
ENDBRANCH   1   9
BRANCH   3  14
ATOM     14  C   UNL     1      -3.239  11.681  18.384  0.00  0.00    +0.000 A 
ATOM     15  C   UNL     1      -4.028  12.251  19.397  0.00  0.00    +0.000 A 
ATOM     16  C   UNL     1      -5.375  12.548  19.163  0.00  0.00    +0.000 A 
ATOM     17  C   UNL     1      -5.943  12.271  17.921  0.00  0.00    +0.000 A 
ATOM     18  C   UNL     1      -5.166  11.708  16.911  0.00  0.00    +0.000 A 
ATOM     19  C   UNL     1      -3.815  11.417  17.135  0.00  0.00    +0.000 A 
ENDBRANCH   3  14
BRANCH   5  20
ATOM     20  C   UNL     1       1.078   9.341  19.328  0.00  0.00    +0.000 C 
ATOM     21  O   UNL     1       1.438   9.021  20.456  0.00  0.00    +0.000 OA
ATOM     22  N   UNL     1       1.619   8.748  18.199  0.00  0.00    +0.000 N 
ATOM     23  H   UNL     1       1.414   9.139  17.291  0.00  0.00    +0.000 HD
BRANCH  22  24
ATOM     24  C   UNL     1       2.661   7.731  18.323  0.00  0.00    +0.000 C 
ATOM     25  C   UNL     1       3.687   7.883  17.196  0.00  0.00    +0.000 C 
ATOM     26  C   UNL     1       4.770   6.808  17.257  0.00  0.00    +0.000 C 
ATOM     27  C   UNL     1       4.168   5.397  17.277  0.00  0.00    +0.000 C 
ATOM     28  C   UNL     1       5.268   4.341  17.376  0.00  0.00    +0.000 C 
ATOM     29  C   UNL     1       3.166   5.254  18.430  0.00  0.00    +0.000 C 
ATOM     30  C   UNL     1       2.069   6.319  18.356  0.00  0.00    +0.000 C 
ENDBRANCH  22  24
ENDBRANCH   5  20
TORSDOF 5
ENDMDL
