MODEL 1
REMARK VINA RESULT:      -8.8      0.000      0.000
REMARK  Name = 
REMARK  2 active torsions:
REMARK  status: ('A' for Active; 'I' for Inactive)
REMARK    1  A    between atoms: C_8  and  C_9
REMARK    2  A    between atoms: C_9  and  N_10
REMARK                            x       y       z     vdW  Elec       q    Type
REMARK                         _______ _______ _______ _____ _____    ______ ____
ROOT
ATOM      1  N   UNL     1      -1.369  12.491  18.425  0.00  0.00    +0.000 N 
ATOM      2  C   UNL     1      -0.684  11.373  18.850  0.00  0.00    +0.000 A 
ATOM      3  N   UNL     1      -0.874  10.973  20.102  0.00  0.00    +0.000 NA
ATOM      4  C   UNL     1      -0.144   9.922  20.511  0.00  0.00    +0.000 A 
ATOM      5  N   UNL     1      -0.411   9.473  21.814  0.00  0.00    +0.000 N 
ATOM      6  C   UNL     1       0.771   9.247  19.709  0.00  0.00    +0.000 A 
ATOM      7  N   UNL     1       1.587   8.243  20.166  0.00  0.00    +0.000 NA
ATOM      8  C   UNL     1       2.428   7.690  19.263  0.00  0.00    +0.000 A 
ATOM      9  C   UNL     1       2.409   8.121  17.946  0.00  0.00    +0.000 A 
ATOM     10  N   UNL     1       1.622   9.136  17.508  0.00  0.00    +0.000 NA
ATOM     11  C   UNL     1       0.813   9.724  18.393  0.00  0.00    +0.000 A 
ATOM     12  N   UNL     1       0.104  10.768  17.971  0.00  0.00    +0.000 NA
ATOM     13  H   UNL     1      -2.214  12.617  18.965  0.00  0.00    +0.000 HD
ATOM     14  H   UNL     1      -1.451  12.496  17.419  0.00  0.00    +0.000 HD
ATOM     15  H   UNL     1      -0.985  10.153  22.303  0.00  0.00    +0.000 HD
ATOM     16  H   UNL     1       0.435   9.191  22.297  0.00  0.00    +0.000 HD
ENDROOT
BRANCH   8  17
ATOM     17  C   UNL     1       3.519   6.741  19.722  0.00  0.00    +0.000 C 
BRANCH  17  18
ATOM     18  N   UNL     1       3.623   5.496  18.921  0.00  0.00    +0.000 N 
ATOM     19  C   UNL     1       2.665   4.453  19.129  0.00  0.00    +0.000 A 
ATOM     20  C   UNL     1       1.775   4.481  20.228  0.00  0.00    +0.000 A 
ATOM     21  C   UNL     1       0.993   3.381  20.607  0.00  0.00    +0.000 A 
ATOM     22  C   UNL     1       1.045   2.210  19.875  0.00  0.00    +0.000 A 
ATOM     23  C   UNL     1       1.820   2.177  18.725  0.00  0.00    +0.000 A 
ATOM     24  C   UNL     1       2.596   3.291  18.314  0.00  0.00    +0.000 A 
ATOM     25  C   UNL     1       3.250   3.109  16.957  0.00  0.00    +0.000 C 
ATOM     26  C   UNL     1       3.934   4.315  16.337  0.00  0.00    +0.000 C 
ATOM     27  C   UNL     1       5.134   4.671  17.166  0.00  0.00    +0.000 A 
ATOM     28  C   UNL     1       6.423   4.366  16.696  0.00  0.00    +0.000 A 
ATOM     29  C   UNL     1       7.542   4.647  17.474  0.00  0.00    +0.000 A 
ATOM     30  C   UNL     1       7.378   5.218  18.728  0.00  0.00    +0.000 A 
ATOM     31  C   UNL     1       6.095   5.494  19.208  0.00  0.00    +0.000 A 
ATOM     32  C   UNL     1       4.944   5.242  18.435  0.00  0.00    +0.000 A 
ENDBRANCH  17  18
ENDBRANCH   8  17
TORSDOF 2
ENDMDL
MODEL 2
REMARK VINA RESULT:      -8.1      1.303      4.213
REMARK  Name = 
REMARK  2 active torsions:
REMARK  status: ('A' for Active; 'I' for Inactive)
REMARK    1  A    between atoms: C_8  and  C_9
REMARK    2  A    between atoms: C_9  and  N_10
REMARK                            x       y       z     vdW  Elec       q    Type
REMARK                         _______ _______ _______ _____ _____    ______ ____
ROOT
ATOM      1  N   UNL     1      -0.816  11.494  22.696  0.00  0.00    +0.000 N 
ATOM      2  C   UNL     1      -0.157  10.897  21.643  0.00  0.00    +0.000 A 
ATOM      3  N   UNL     1      -0.119  11.553  20.489  0.00  0.00    +0.000 NA
ATOM      4  C   UNL     1       0.472  10.921  19.462  0.00  0.00    +0.000 A 
ATOM      5  N   UNL     1       0.562  11.660  18.271  0.00  0.00    +0.000 N 
ATOM      6  C   UNL     1       1.035   9.651  19.545  0.00  0.00    +0.000 A 
ATOM      7  N   UNL     1       1.541   8.972  18.466  0.00  0.00    +0.000 NA
ATOM      8  C   UNL     1       2.048   7.742  18.711  0.00  0.00    +0.000 A 
ATOM      9  C   UNL     1       2.068   7.247  20.005  0.00  0.00    +0.000 A 
ATOM     10  N   UNL     1       1.536   7.911  21.062  0.00  0.00    +0.000 NA
ATOM     11  C   UNL     1       0.993   9.110  20.836  0.00  0.00    +0.000 A 
ATOM     12  N   UNL     1       0.406   9.716  21.865  0.00  0.00    +0.000 NA
ATOM     13  H   UNL     1      -0.828  12.498  22.587  0.00  0.00    +0.000 HD
ATOM     14  H   UNL     1      -0.488  11.123  23.576  0.00  0.00    +0.000 HD
ATOM     15  H   UNL     1      -0.016  12.491  18.336  0.00  0.00    +0.000 HD
ATOM     16  H   UNL     1       0.402  11.081  17.455  0.00  0.00    +0.000 HD
ENDROOT
BRANCH   8  17
ATOM     17  C   UNL     1       2.418   6.829  17.557  0.00  0.00    +0.000 C 
BRANCH  17  18
ATOM     18  N   UNL     1       3.346   5.730  17.919  0.00  0.00    +0.000 N 
ATOM     19  C   UNL     1       4.612   5.640  17.257  0.00  0.00    +0.000 A 
ATOM     20  C   UNL     1       4.899   6.422  16.113  0.00  0.00    +0.000 A 
ATOM     21  C   UNL     1       6.016   6.199  15.296  0.00  0.00    +0.000 A 
ATOM     22  C   UNL     1       6.916   5.199  15.611  0.00  0.00    +0.000 A 
ATOM     23  C   UNL     1       6.732   4.483  16.785  0.00  0.00    +0.000 A 
ATOM     24  C   UNL     1       5.621   4.715  17.636  0.00  0.00    +0.000 A 
ATOM     25  C   UNL     1       5.681   3.939  18.938  0.00  0.00    +0.000 C 
ATOM     26  C   UNL     1       4.648   4.267  20.002  0.00  0.00    +0.000 C 
ATOM     27  C   UNL     1       3.294   3.853  19.506  0.00  0.00    +0.000 A 
ATOM     28  C   UNL     1       2.682   2.699  20.027  0.00  0.00    +0.000 A 
ATOM     29  C   UNL     1       1.448   2.275  19.543  0.00  0.00    +0.000 A 
ATOM     30  C   UNL     1       0.827   2.992  18.530  0.00  0.00    +0.000 A 
ATOM     31  C   UNL     1       1.448   4.123  17.992  0.00  0.00    +0.000 A 
ATOM     32  C   UNL     1       2.687   4.589  18.475  0.00  0.00    +0.000 A 
ENDBRANCH  17  18
ENDBRANCH   8  17
TORSDOF 2
ENDMDL
MODEL 3
REMARK VINA RESULT:      -7.8      2.412      7.816
REMARK  Name = 
REMARK  2 active torsions:
REMARK  status: ('A' for Active; 'I' for Inactive)
REMARK    1  A    between atoms: C_8  and  C_9
REMARK    2  A    between atoms: C_9  and  N_10
REMARK                            x       y       z     vdW  Elec       q    Type
REMARK                         _______ _______ _______ _____ _____    ______ ____
ROOT
ATOM      1  N   UNL     1       3.058   2.790  21.262  0.00  0.00    +0.000 N 
ATOM      2  C   UNL     1       2.820   3.885  20.459  0.00  0.00    +0.000 A 
ATOM      3  N   UNL     1       3.183   3.804  19.184  0.00  0.00    +0.000 NA
ATOM      4  C   UNL     1       3.001   4.907  18.441  0.00  0.00    +0.000 A 
ATOM      5  N   UNL     1       3.327   4.778  17.081  0.00  0.00    +0.000 N 
ATOM      6  C   UNL     1       2.461   6.095  18.924  0.00  0.00    +0.000 A 
ATOM      7  N   UNL     1       2.376   7.248  18.184  0.00  0.00    +0.000 NA
ATOM      8  C   UNL     1       1.832   8.322  18.801  0.00  0.00    +0.000 A 
ATOM      9  C   UNL     1       1.363   8.209  20.100  0.00  0.00    +0.000 A 
ATOM     10  N   UNL     1       1.479   7.075  20.835  0.00  0.00    +0.000 NA
ATOM     11  C   UNL     1       2.052   6.014  20.260  0.00  0.00    +0.000 A 
ATOM     12  N   UNL     1       2.230   4.934  21.017  0.00  0.00    +0.000 NA
ATOM     13  H   UNL     1       3.095   1.944  20.711  0.00  0.00    +0.000 HD
ATOM     14  H   UNL     1       2.446   2.798  22.065  0.00  0.00    +0.000 HD
ATOM     15  H   UNL     1       3.834   3.913  16.928  0.00  0.00    +0.000 HD
ATOM     16  H   UNL     1       3.771   5.614  16.718  0.00  0.00    +0.000 HD
ENDROOT
BRANCH   8  17
ATOM     17  C   UNL     1       1.904   9.690  18.149  0.00  0.00    +0.000 C 
BRANCH  17  18
ATOM     18  N   UNL     1       0.998  10.701  18.747  0.00  0.00    +0.000 N 
ATOM     19  C   UNL     1      -0.408  10.613  18.495  0.00  0.00    +0.000 A 
ATOM     20  C   UNL     1      -0.924   9.737  17.510  0.00  0.00    +0.000 A 
ATOM     21  C   UNL     1      -2.251   9.787  17.062  0.00  0.00    +0.000 A 
ATOM     22  C   UNL     1      -3.132  10.700  17.609  0.00  0.00    +0.000 A 
ATOM     23  C   UNL     1      -2.697  11.502  18.655  0.00  0.00    +0.000 A 
ATOM     24  C   UNL     1      -1.364  11.443  19.137  0.00  0.00    +0.000 A 
ATOM     25  C   UNL     1      -1.130  12.285  20.377  0.00  0.00    +0.000 C 
ATOM     26  C   UNL     1       0.204  12.136  21.088  0.00  0.00    +0.000 C 
ATOM     27  C   UNL     1       1.289  12.664  20.198  0.00  0.00    +0.000 A 
ATOM     28  C   UNL     1       1.882  13.907  20.481  0.00  0.00    +0.000 A 
ATOM     29  C   UNL     1       2.857  14.433  19.638  0.00  0.00    +0.000 A 
ATOM     30  C   UNL     1       3.232  13.729  18.503  0.00  0.00    +0.000 A 
ATOM     31  C   UNL     1       2.622  12.506  18.205  0.00  0.00    +0.000 A 
ATOM     32  C   UNL     1       1.649  11.938  19.050  0.00  0.00    +0.000 A 
ENDBRANCH  17  18
ENDBRANCH   8  17
TORSDOF 2
ENDMDL
MODEL 4
REMARK VINA RESULT:      -7.8      2.331      7.875
REMARK  Name = 
REMARK  2 active torsions:
REMARK  status: ('A' for Active; 'I' for Inactive)
REMARK    1  A    between atoms: C_8  and  C_9
REMARK    2  A    between atoms: C_9  and  N_10
REMARK                            x       y       z     vdW  Elec       q    Type
REMARK                         _______ _______ _______ _____ _____    ______ ____
ROOT
ATOM      1  N   UNL     1       4.709   3.158  19.889  0.00  0.00    +0.000 N 
ATOM      2  C   UNL     1       4.257   4.295  19.253  0.00  0.00    +0.000 A 
ATOM      3  N   UNL     1       4.732   4.552  18.040  0.00  0.00    +0.000 NA
ATOM      4  C   UNL     1       4.327   5.698  17.471  0.00  0.00    +0.000 A 
ATOM      5  N   UNL     1       4.786   5.916  16.161  0.00  0.00    +0.000 N 
ATOM      6  C   UNL     1       3.455   6.603  18.069  0.00  0.00    +0.000 A 
ATOM      7  N   UNL     1       3.131   7.820  17.524  0.00  0.00    +0.000 NA
ATOM      8  C   UNL     1       2.274   8.589  18.233  0.00  0.00    +0.000 A 
ATOM      9  C   UNL     1       1.746   8.119  19.425  0.00  0.00    +0.000 A 
ATOM     10  N   UNL     1       2.096   6.928  19.973  0.00  0.00    +0.000 NA
ATOM     11  C   UNL     1       2.973   6.170  19.310  0.00  0.00    +0.000 A 
ATOM     12  N   UNL     1       3.367   5.042  19.895  0.00  0.00    +0.000 NA
ATOM     13  H   UNL     1       5.012   2.470  19.216  0.00  0.00    +0.000 HD
ATOM     14  H   UNL     1       4.052   2.863  20.597  0.00  0.00    +0.000 HD
ATOM     15  H   UNL     1       5.515   5.247  15.935  0.00  0.00    +0.000 HD
ATOM     16  H   UNL     1       5.023   6.889  16.001  0.00  0.00    +0.000 HD
ENDROOT
BRANCH   8  17
ATOM     17  C   UNL     1       2.036  10.033  17.830  0.00  0.00    +0.000 C 
BRANCH  17  18
ATOM     18  N   UNL     1       1.050  10.749  18.675  0.00  0.00    +0.000 N 
ATOM     19  C   UNL     1      -0.347  10.526  18.457  0.00  0.00    +0.000 A 
ATOM     20  C   UNL     1      -0.810   9.829  17.315  0.00  0.00    +0.000 A 
ATOM     21  C   UNL     1      -2.159   9.794  16.936  0.00  0.00    +0.000 A 
ATOM     22  C   UNL     1      -3.111  10.431  17.708  0.00  0.00    +0.000 A 
ATOM     23  C   UNL     1      -2.716  11.031  18.894  0.00  0.00    +0.000 A 
ATOM     24  C   UNL     1      -1.358  11.052  19.305  0.00  0.00    +0.000 A 
ATOM     25  C   UNL     1      -1.153  11.619  20.697  0.00  0.00    +0.000 C 
ATOM     26  C   UNL     1       0.232  11.501  21.309  0.00  0.00    +0.000 C 
ATOM     27  C   UNL     1       1.182  12.360  20.527  0.00  0.00    +0.000 A 
ATOM     28  C   UNL     1       1.630  13.578  21.068  0.00  0.00    +0.000 A 
ATOM     29  C   UNL     1       2.472  14.409  20.336  0.00  0.00    +0.000 A 
ATOM     30  C   UNL     1       2.860  14.034  19.057  0.00  0.00    +0.000 A 
ATOM     31  C   UNL     1       2.393  12.837  18.507  0.00  0.00    +0.000 A 
ATOM     32  C   UNL     1       1.556  11.965  19.232  0.00  0.00    +0.000 A 
ENDBRANCH  17  18
ENDBRANCH   8  17
TORSDOF 2
ENDMDL
MODEL 5
REMARK VINA RESULT:      -7.4      4.467     10.372
REMARK  Name = 
REMARK  2 active torsions:
REMARK  status: ('A' for Active; 'I' for Inactive)
REMARK    1  A    between atoms: C_8  and  C_9
REMARK    2  A    between atoms: C_9  and  N_10
REMARK                            x       y       z     vdW  Elec       q    Type
REMARK                         _______ _______ _______ _____ _____    ______ ____
ROOT
ATOM      1  N   UNL     1       2.587   6.501  20.412  0.00  0.00    +0.000 N 
ATOM      2  C   UNL     1       1.847   7.658  20.295  0.00  0.00    +0.000 A 
ATOM      3  N   UNL     1       1.860   8.281  19.122  0.00  0.00    +0.000 NA
ATOM      4  C   UNL     1       1.185   9.440  19.055  0.00  0.00    +0.000 A 
ATOM      5  N   UNL     1       1.154  10.047  17.788  0.00  0.00    +0.000 N 
ATOM      6  C   UNL     1       0.489  10.003  20.120  0.00  0.00    +0.000 A 
ATOM      7  N   UNL     1      -0.108  11.238  20.071  0.00  0.00    +0.000 NA
ATOM      8  C   UNL     1      -0.742  11.647  21.194  0.00  0.00    +0.000 A 
ATOM      9  C   UNL     1      -0.792  10.816  22.301  0.00  0.00    +0.000 A 
ATOM     10  N   UNL     1      -0.172   9.610  22.353  0.00  0.00    +0.000 NA
ATOM     11  C   UNL     1       0.495   9.204  21.269  0.00  0.00    +0.000 A 
ATOM     12  N   UNL     1       1.162   8.056  21.360  0.00  0.00    +0.000 NA
ATOM     13  H   UNL     1       2.706   6.061  19.510  0.00  0.00    +0.000 HD
ATOM     14  H   UNL     1       2.236   5.931  21.168  0.00  0.00    +0.000 HD
ATOM     15  H   UNL     1       1.821   9.593  17.172  0.00  0.00    +0.000 HD
ATOM     16  H   UNL     1       1.235  11.056  17.850  0.00  0.00    +0.000 HD
ENDROOT
BRANCH   8  17
ATOM     17  C   UNL     1      -1.230  13.079  21.312  0.00  0.00    +0.000 C 
BRANCH  17  18
ATOM     18  N   UNL     1      -2.487  13.234  22.085  0.00  0.00    +0.000 N 
ATOM     19  C   UNL     1      -3.731  12.886  21.468  0.00  0.00    +0.000 A 
ATOM     20  C   UNL     1      -3.814  12.625  20.080  0.00  0.00    +0.000 A 
ATOM     21  C   UNL     1      -5.033  12.518  19.395  0.00  0.00    +0.000 A 
ATOM     22  C   UNL     1      -6.226  12.636  20.081  0.00  0.00    +0.000 A 
ATOM     23  C   UNL     1      -6.189  12.781  21.460  0.00  0.00    +0.000 A 
ATOM     24  C   UNL     1      -4.965  12.864  22.171  0.00  0.00    +0.000 A 
ATOM     25  C   UNL     1      -5.136  12.868  23.678  0.00  0.00    +0.000 C 
ATOM     26  C   UNL     1      -3.885  12.750  24.530  0.00  0.00    +0.000 C 
ATOM     27  C   UNL     1      -3.059  13.991  24.352  0.00  0.00    +0.000 A 
ATOM     28  C   UNL     1      -3.019  14.956  25.373  0.00  0.00    +0.000 A 
ATOM     29  C   UNL     1      -2.298  16.134  25.204  0.00  0.00    +0.000 A 
ATOM     30  C   UNL     1      -1.625  16.359  24.011  0.00  0.00    +0.000 A 
ATOM     31  C   UNL     1      -1.688  15.412  22.984  0.00  0.00    +0.000 A 
ATOM     32  C   UNL     1      -2.392  14.201  23.134  0.00  0.00    +0.000 A 
ENDBRANCH  17  18
ENDBRANCH   8  17
TORSDOF 2
ENDMDL
MODEL 6
REMARK VINA RESULT:      -7.3      5.809      8.375
REMARK  Name = 
REMARK  2 active torsions:
REMARK  status: ('A' for Active; 'I' for Inactive)
REMARK    1  A    between atoms: C_8  and  C_9
REMARK    2  A    between atoms: C_9  and  N_10
REMARK                            x       y       z     vdW  Elec       q    Type
REMARK                         _______ _______ _______ _____ _____    ______ ____
ROOT
ATOM      1  N   UNL     1      -7.575  13.178  16.996  0.00  0.00    +0.000 N 
ATOM      2  C   UNL     1      -6.387  12.694  17.502  0.00  0.00    +0.000 A 
ATOM      3  N   UNL     1      -6.168  12.840  18.803  0.00  0.00    +0.000 NA
ATOM      4  C   UNL     1      -4.976  12.421  19.258  0.00  0.00    +0.000 A 
ATOM      5  N   UNL     1      -4.792  12.521  20.647  0.00  0.00    +0.000 N 
ATOM      6  C   UNL     1      -3.990  11.852  18.458  0.00  0.00    +0.000 A 
ATOM      7  N   UNL     1      -2.737  11.524  18.913  0.00  0.00    +0.000 NA
ATOM      8  C   UNL     1      -1.889  10.985  18.008  0.00  0.00    +0.000 A 
ATOM      9  C   UNL     1      -2.315  10.759  16.709  0.00  0.00    +0.000 A 
ATOM     10  N   UNL     1      -3.544  11.116  16.259  0.00  0.00    +0.000 NA
ATOM     11  C   UNL     1      -4.385  11.688  17.125  0.00  0.00    +0.000 A 
ATOM     12  N   UNL     1      -5.557  12.103  16.652  0.00  0.00    +0.000 NA
ATOM     13  H   UNL     1      -8.284  13.207  17.715  0.00  0.00    +0.000 HD
ATOM     14  H   UNL     1      -7.807  12.714  16.129  0.00  0.00    +0.000 HD
ATOM     15  H   UNL     1      -5.534  13.081  21.054  0.00  0.00    +0.000 HD
ATOM     16  H   UNL     1      -3.849  12.808  20.883  0.00  0.00    +0.000 HD
ENDROOT
BRANCH   8  17
ATOM     17  C   UNL     1      -0.423  10.803  18.355  0.00  0.00    +0.000 C 
BRANCH  17  18
ATOM     18  N   UNL     1       0.014  11.539  19.567  0.00  0.00    +0.000 N 
ATOM     19  C   UNL     1       1.025  12.545  19.444  0.00  0.00    +0.000 A 
ATOM     20  C   UNL     1       1.776  12.690  18.254  0.00  0.00    +0.000 A 
ATOM     21  C   UNL     1       2.925  13.489  18.168  0.00  0.00    +0.000 A 
ATOM     22  C   UNL     1       3.353  14.206  19.268  0.00  0.00    +0.000 A 
ATOM     23  C   UNL     1       2.583  14.180  20.422  0.00  0.00    +0.000 A 
ATOM     24  C   UNL     1       1.404  13.397  20.515  0.00  0.00    +0.000 A 
ATOM     25  C   UNL     1       0.627  13.621  21.799  0.00  0.00    +0.000 C 
ATOM     26  C   UNL     1      -0.749  12.987  21.910  0.00  0.00    +0.000 C 
ATOM     27  C   UNL     1      -0.593  11.495  21.949  0.00  0.00    +0.000 A 
ATOM     28  C   UNL     1      -0.764  10.806  23.162  0.00  0.00    +0.000 A 
ATOM     29  C   UNL     1      -0.576   9.429  23.224  0.00  0.00    +0.000 A 
ATOM     30  C   UNL     1      -0.202   8.737  22.081  0.00  0.00    +0.000 A 
ATOM     31  C   UNL     1      -0.004   9.426  20.880  0.00  0.00    +0.000 A 
ATOM     32  C   UNL     1      -0.208  10.816  20.781  0.00  0.00    +0.000 A 
ENDBRANCH  17  18
ENDBRANCH   8  17
TORSDOF 2
ENDMDL
MODEL 7
REMARK VINA RESULT:      -7.3      5.143      7.956
REMARK  Name = 
REMARK  2 active torsions:
REMARK  status: ('A' for Active; 'I' for Inactive)
REMARK    1  A    between atoms: C_8  and  C_9
REMARK    2  A    between atoms: C_9  and  N_10
REMARK                            x       y       z     vdW  Elec       q    Type
REMARK                         _______ _______ _______ _____ _____    ______ ____
ROOT
ATOM      1  N   UNL     1       1.383  18.631  16.792  0.00  0.00    +0.000 N 
ATOM      2  C   UNL     1       1.184  17.568  17.647  0.00  0.00    +0.000 A 
ATOM      3  N   UNL     1       2.172  16.691  17.781  0.00  0.00    +0.000 NA
ATOM      4  C   UNL     1       1.927  15.631  18.568  0.00  0.00    +0.000 A 
ATOM      5  N   UNL     1       3.008  14.753  18.749  0.00  0.00    +0.000 N 
ATOM      6  C   UNL     1       0.725  15.414  19.236  0.00  0.00    +0.000 A 
ATOM      7  N   UNL     1       0.448  14.277  19.952  0.00  0.00    +0.000 NA
ATOM      8  C   UNL     1      -0.769  14.215  20.538  0.00  0.00    +0.000 A 
ATOM      9  C   UNL     1      -1.646  15.282  20.426  0.00  0.00    +0.000 A 
ATOM     10  N   UNL     1      -1.377  16.390  19.690  0.00  0.00    +0.000 NA
ATOM     11  C   UNL     1      -0.197  16.455  19.068  0.00  0.00    +0.000 A 
ATOM     12  N   UNL     1       0.023  17.509  18.287  0.00  0.00    +0.000 NA
ATOM     13  H   UNL     1       2.369  18.832  16.697  0.00  0.00    +0.000 HD
ATOM     14  H   UNL     1       0.770  19.398  17.029  0.00  0.00    +0.000 HD
ATOM     15  H   UNL     1       3.746  14.972  18.089  0.00  0.00    +0.000 HD
ATOM     16  H   UNL     1       2.709  13.784  18.763  0.00  0.00    +0.000 HD
ENDROOT
BRANCH   8  17
ATOM     17  C   UNL     1      -1.251  12.914  21.153  0.00  0.00    +0.000 C 
BRANCH  17  18
ATOM     18  N   UNL     1      -1.115  11.732  20.267  0.00  0.00    +0.000 N 
ATOM     19  C   UNL     1      -2.122  11.481  19.281  0.00  0.00    +0.000 A 
ATOM     20  C   UNL     1      -3.348  12.188  19.286  0.00  0.00    +0.000 A 
ATOM     21  C   UNL     1      -4.448  11.816  18.501  0.00  0.00    +0.000 A 
ATOM     22  C   UNL     1      -4.354  10.734  17.648  0.00  0.00    +0.000 A 
ATOM     23  C   UNL     1      -3.136  10.081  17.529  0.00  0.00    +0.000 A 
ATOM     24  C   UNL     1      -2.006  10.462  18.298  0.00  0.00    +0.000 A 
ATOM     25  C   UNL     1      -0.735   9.728  17.915  0.00  0.00    +0.000 C 
ATOM     26  C   UNL     1       0.567  10.203  18.534  0.00  0.00    +0.000 C 
ATOM     27  C   UNL     1       0.532   9.925  20.008  0.00  0.00    +0.000 A 
ATOM     28  C   UNL     1       1.287   8.864  20.538  0.00  0.00    +0.000 A 
ATOM     29  C   UNL     1       1.227   8.564  21.895  0.00  0.00    +0.000 A 
ATOM     30  C   UNL     1       0.405   9.311  22.726  0.00  0.00    +0.000 A 
ATOM     31  C   UNL     1      -0.368  10.348  22.195  0.00  0.00    +0.000 A 
ATOM     32  C   UNL     1      -0.313  10.690  20.830  0.00  0.00    +0.000 A 
ENDBRANCH  17  18
ENDBRANCH   8  17
TORSDOF 2
ENDMDL
MODEL 8
REMARK VINA RESULT:      -7.3      4.714     10.493
REMARK  Name = 
REMARK  2 active torsions:
REMARK  status: ('A' for Active; 'I' for Inactive)
REMARK    1  A    between atoms: C_8  and  C_9
REMARK    2  A    between atoms: C_9  and  N_10
REMARK                            x       y       z     vdW  Elec       q    Type
REMARK                         _______ _______ _______ _____ _____    ______ ____
ROOT
ATOM      1  N   UNL     1       1.907   7.230  20.540  0.00  0.00    +0.000 N 
ATOM      2  C   UNL     1       1.154   8.356  20.795  0.00  0.00    +0.000 A 
ATOM      3  N   UNL     1       0.555   8.441  21.977  0.00  0.00    +0.000 NA
ATOM      4  C   UNL     1      -0.226   9.516  22.175  0.00  0.00    +0.000 A 
ATOM      5  N   UNL     1      -0.793   9.621  23.455  0.00  0.00    +0.000 N 
ATOM      6  C   UNL     1      -0.430  10.518  21.231  0.00  0.00    +0.000 A 
ATOM      7  N   UNL     1      -1.311  11.556  21.403  0.00  0.00    +0.000 NA
ATOM      8  C   UNL     1      -1.399  12.446  20.389  0.00  0.00    +0.000 A 
ATOM      9  C   UNL     1      -0.597  12.301  19.269  0.00  0.00    +0.000 A 
ATOM     10  N   UNL     1       0.249  11.254  19.092  0.00  0.00    +0.000 NA
ATOM     11  C   UNL     1       0.322  10.340  20.063  0.00  0.00    +0.000 A 
ATOM     12  N   UNL     1       1.095   9.280  19.845  0.00  0.00    +0.000 NA
ATOM     13  H   UNL     1       2.240   6.820  21.401  0.00  0.00    +0.000 HD
ATOM     14  H   UNL     1       2.587   7.414  19.816  0.00  0.00    +0.000 HD
ATOM     15  H   UNL     1      -0.667   8.751  23.961  0.00  0.00    +0.000 HD
ATOM     16  H   UNL     1      -1.745   9.970  23.419  0.00  0.00    +0.000 HD
ENDROOT
BRANCH   8  17
ATOM     17  C   UNL     1      -2.501  13.489  20.387  0.00  0.00    +0.000 C 
BRANCH  17  18
ATOM     18  N   UNL     1      -3.396  13.435  21.569  0.00  0.00    +0.000 N 
ATOM     19  C   UNL     1      -4.730  12.940  21.409  0.00  0.00    +0.000 A 
ATOM     20  C   UNL     1      -5.286  12.726  20.126  0.00  0.00    +0.000 A 
ATOM     21  C   UNL     1      -6.649  12.477  19.915  0.00  0.00    +0.000 A 
ATOM     22  C   UNL     1      -7.512  12.398  20.991  0.00  0.00    +0.000 A 
ATOM     23  C   UNL     1      -6.991  12.490  22.273  0.00  0.00    +0.000 A 
ATOM     24  C   UNL     1      -5.609  12.716  22.503  0.00  0.00    +0.000 A 
ATOM     25  C   UNL     1      -5.216  12.635  23.966  0.00  0.00    +0.000 C 
ATOM     26  C   UNL     1      -3.734  12.660  24.299  0.00  0.00    +0.000 C 
ATOM     27  C   UNL     1      -3.182  14.011  23.949  0.00  0.00    +0.000 A 
ATOM     28  C   UNL     1      -2.884  14.930  24.970  0.00  0.00    +0.000 A 
ATOM     29  C   UNL     1      -2.416  16.204  24.659  0.00  0.00    +0.000 A 
ATOM     30  C   UNL     1      -2.259  16.569  23.329  0.00  0.00    +0.000 A 
ATOM     31  C   UNL     1      -2.583  15.665  22.313  0.00  0.00    +0.000 A 
ATOM     32  C   UNL     1      -3.038  14.362  22.596  0.00  0.00    +0.000 A 
ENDBRANCH  17  18
ENDBRANCH   8  17
TORSDOF 2
ENDMDL
MODEL 9
REMARK VINA RESULT:      -7.2      5.003      7.859
REMARK  Name = 
REMARK  2 active torsions:
REMARK  status: ('A' for Active; 'I' for Inactive)
REMARK    1  A    between atoms: C_8  and  C_9
REMARK    2  A    between atoms: C_9  and  N_10
REMARK                            x       y       z     vdW  Elec       q    Type
REMARK                         _______ _______ _______ _____ _____    ______ ____
ROOT
ATOM      1  N   UNL     1       5.033  17.542  20.108  0.00  0.00    +0.000 N 
ATOM      2  C   UNL     1       4.090  16.537  20.082  0.00  0.00    +0.000 A 
ATOM      3  N   UNL     1       4.024  15.783  18.991  0.00  0.00    +0.000 NA
ATOM      4  C   UNL     1       3.054  14.855  18.964  0.00  0.00    +0.000 A 
ATOM      5  N   UNL     1       3.046  14.024  17.832  0.00  0.00    +0.000 N 
ATOM      6  C   UNL     1       2.143  14.646  19.995  0.00  0.00    +0.000 A 
ATOM      7  N   UNL     1       1.091  13.768  19.914  0.00  0.00    +0.000 NA
ATOM      8  C   UNL     1       0.290  13.685  21.000  0.00  0.00    +0.000 A 
ATOM      9  C   UNL     1       0.574  14.438  22.128  0.00  0.00    +0.000 A 
ATOM     10  N   UNL     1       1.597  15.327  22.189  0.00  0.00    +0.000 NA
ATOM     11  C   UNL     1       2.377  15.456  21.112  0.00  0.00    +0.000 A 
ATOM     12  N   UNL     1       3.327  16.386  21.157  0.00  0.00    +0.000 NA
ATOM     13  H   UNL     1       5.804  17.324  19.493  0.00  0.00    +0.000 HD
ATOM     14  H   UNL     1       5.252  17.799  21.060  0.00  0.00    +0.000 HD
ATOM     15  H   UNL     1       3.670  14.398  17.124  0.00  0.00    +0.000 HD
ATOM     16  H   UNL     1       2.103  13.822  17.518  0.00  0.00    +0.000 HD
ENDROOT
BRANCH   8  17
ATOM     17  C   UNL     1      -1.019  12.921  20.923  0.00  0.00    +0.000 C 
BRANCH  17  18
ATOM     18  N   UNL     1      -0.970  11.710  20.067  0.00  0.00    +0.000 N 
ATOM     19  C   UNL     1      -2.027  11.476  19.131  0.00  0.00    +0.000 A 
ATOM     20  C   UNL     1      -3.220  12.236  19.165  0.00  0.00    +0.000 A 
ATOM     21  C   UNL     1      -4.367  11.890  18.437  0.00  0.00    +0.000 A 
ATOM     22  C   UNL     1      -4.356  10.782  17.612  0.00  0.00    +0.000 A 
ATOM     23  C   UNL     1      -3.172  10.074  17.463  0.00  0.00    +0.000 A 
ATOM     24  C   UNL     1      -1.996  10.427  18.173  0.00  0.00    +0.000 A 
ATOM     25  C   UNL     1      -0.774   9.628  17.760  0.00  0.00    +0.000 C 
ATOM     26  C   UNL     1       0.572  10.063  18.312  0.00  0.00    +0.000 C 
ATOM     27  C   UNL     1       0.587   9.828  19.794  0.00  0.00    +0.000 A 
ATOM     28  C   UNL     1       1.318   8.750  20.323  0.00  0.00    +0.000 A 
ATOM     29  C   UNL     1       1.303   8.489  21.689  0.00  0.00    +0.000 A 
ATOM     30  C   UNL     1       0.549   9.294  22.531  0.00  0.00    +0.000 A 
ATOM     31  C   UNL     1      -0.201  10.349  22.002  0.00  0.00    +0.000 A 
ATOM     32  C   UNL     1      -0.189  10.651  20.626  0.00  0.00    +0.000 A 
ENDBRANCH  17  18
ENDBRANCH   8  17
TORSDOF 2
ENDMDL
