MODEL 1
REMARK VINA RESULT:      -7.5      0.000      0.000
REMARK  Name = 
REMARK  7 active torsions:
REMARK  status: ('A' for Active; 'I' for Inactive)
REMARK    1  A    between atoms: C_1  and  N_2
REMARK    2  A    between atoms: N_2  and  C_3
REMARK    3  A    between atoms: N_2  and  C_4
REMARK    4  A    between atoms: C_4  and  C_5
REMARK    5  A    between atoms: C_5  and  C_6
REMARK    6  A    between atoms: C_5  and  C_12
REMARK    7  A    between atoms: C_23  and  C_24
REMARK                            x       y       z     vdW  Elec       q    Type
REMARK                         _______ _______ _______ _____ _____    ______ ____
ROOT
ATOM      1  C   UNL     1      -1.864  13.017  22.869  0.00  0.00    +0.000 A 
ATOM      2  N   UNL     1      -0.920  13.648  23.573  0.00  0.00    +0.000 NA
ATOM      3  N   UNL     1       0.146  13.839  22.716  0.00  0.00    +0.000 NA
ATOM      4  C   UNL     1      -0.114  13.120  21.643  0.00  0.00    +0.000 A 
ATOM      5  N   UNL     1      -1.115  12.214  21.961  0.00  0.00    +0.000 N 
ATOM      6  C   UNL     1      -0.688  10.819  21.707  0.00  0.00    +0.000 A 
ATOM      7  C   UNL     1       0.197  10.043  22.506  0.00  0.00    +0.000 A 
ATOM      8  C   UNL     1       1.115   9.091  21.918  0.00  0.00    +0.000 A 
ATOM      9  C   UNL     1       1.162   8.854  20.546  0.00  0.00    +0.000 A 
ATOM     10  C   UNL     1       0.281   9.573  19.740  0.00  0.00    +0.000 A 
ATOM     11  C   UNL     1      -0.575  10.531  20.337  0.00  0.00    +0.000 A 
ATOM     12  C   UNL     1      -1.074  11.498  19.359  0.00  0.00    +0.000 C 
ATOM     13  N   UNL     1      -0.548  12.691  19.281  0.00  0.00    +0.000 NA
ATOM     14  C   UNL     1       0.513  13.032  20.300  0.00  0.00    +0.000 C 
ENDROOT
BRANCH  12  15
ATOM     15  C   UNL     1      -2.060  10.929  18.395  0.00  0.00    +0.000 A 
ATOM     16  C   UNL     1      -1.637  10.122  17.311  0.00  0.00    +0.000 A 
ATOM     17  C   UNL     1      -2.469   9.925  16.214  0.00  0.00    +0.000 A 
ATOM     18  C   UNL     1      -3.746  10.476  16.223  0.00  0.00    +0.000 A 
ATOM     19  C   UNL     1      -4.187  11.204  17.330  0.00  0.00    +0.000 A 
ATOM     20  C   UNL     1      -3.347  11.430  18.420  0.00  0.00    +0.000 A 
ENDBRANCH  12  15
BRANCH   1  21
ATOM     21  C   UNL     1      -3.285  13.815  22.624  0.00  0.00    +0.000 C 
BRANCH  21  22
ATOM     22  C   UNL     1      -4.625  13.052  22.687  0.00  0.00    +0.000 A 
ATOM     23  C   UNL     1      -5.299  12.646  21.519  0.00  0.00    +0.000 A 
ATOM     24  C   UNL     1      -6.684  12.397  21.533  0.00  0.00    +0.000 A 
ATOM     25  C   UNL     1      -7.415  12.517  22.712  0.00  0.00    +0.000 A 
ATOM     26  C   UNL     1      -6.758  12.852  23.891  0.00  0.00    +0.000 A 
ATOM     27  C   UNL     1      -5.376  13.104  23.882  0.00  0.00    +0.000 A 
ENDBRANCH  21  22
BRANCH  21  28
ATOM     28  C   UNL     1      -3.312  14.695  21.222  0.00  0.00    +0.000 C 
BRANCH  28  30
ATOM     29  C   UNL     1      -2.493  16.694  22.429  0.00  0.00    +0.000 C 
ATOM     30  N   UNL     1      -2.745  16.106  21.091  0.00  0.00    +0.000 NA
ATOM     31  C   UNL     1      -1.484  16.251  20.356  0.00  0.00    +0.000 C 
ENDBRANCH  28  30
ENDBRANCH  21  28
ENDBRANCH   1  21
TORSDOF 5
ENDMDL
MODEL 2
REMARK VINA RESULT:      -7.3      7.401     11.878
REMARK  Name = 
REMARK  7 active torsions:
REMARK  status: ('A' for Active; 'I' for Inactive)
REMARK    1  A    between atoms: C_1  and  N_2
REMARK    2  A    between atoms: N_2  and  C_3
REMARK    3  A    between atoms: N_2  and  C_4
REMARK    4  A    between atoms: C_4  and  C_5
REMARK    5  A    between atoms: C_5  and  C_6
REMARK    6  A    between atoms: C_5  and  C_12
REMARK    7  A    between atoms: C_23  and  C_24
REMARK                            x       y       z     vdW  Elec       q    Type
REMARK                         _______ _______ _______ _____ _____    ______ ____
ROOT
ATOM      1  C   UNL     1       5.200   4.065  17.100  0.00  0.00    +0.000 A 
ATOM      2  N   UNL     1       5.120   2.840  16.573  0.00  0.00    +0.000 NA
ATOM      3  N   UNL     1       3.780   2.507  16.558  0.00  0.00    +0.000 NA
ATOM      4  C   UNL     1       3.167   3.426  17.276  0.00  0.00    +0.000 A 
ATOM      5  N   UNL     1       4.121   4.095  18.029  0.00  0.00    +0.000 N 
ATOM      6  C   UNL     1       3.817   4.028  19.477  0.00  0.00    +0.000 A 
ATOM      7  C   UNL     1       4.002   2.906  20.333  0.00  0.00    +0.000 A 
ATOM      8  C   UNL     1       3.090   2.619  21.419  0.00  0.00    +0.000 A 
ATOM      9  C   UNL     1       2.003   3.439  21.712  0.00  0.00    +0.000 A 
ATOM     10  C   UNL     1       1.816   4.566  20.914  0.00  0.00    +0.000 A 
ATOM     11  C   UNL     1       2.697   4.799  19.830  0.00  0.00    +0.000 A 
ATOM     12  C   UNL     1       2.116   5.710  18.842  0.00  0.00    +0.000 C 
ATOM     13  N   UNL     1       1.606   5.245  17.733  0.00  0.00    +0.000 NA
ATOM     14  C   UNL     1       1.737   3.759  17.497  0.00  0.00    +0.000 C 
ENDROOT
BRANCH  12  15
ATOM     15  C   UNL     1       2.009   7.122  19.313  0.00  0.00    +0.000 A 
ATOM     16  C   UNL     1       1.582   7.421  20.629  0.00  0.00    +0.000 A 
ATOM     17  C   UNL     1       1.108   8.690  20.943  0.00  0.00    +0.000 A 
ATOM     18  C   UNL     1       1.119   9.679  19.965  0.00  0.00    +0.000 A 
ATOM     19  C   UNL     1       1.616   9.400  18.692  0.00  0.00    +0.000 A 
ATOM     20  C   UNL     1       2.066   8.121  18.362  0.00  0.00    +0.000 A 
ENDBRANCH  12  15
BRANCH   1  21
ATOM     21  C   UNL     1       5.773   5.269  16.132  0.00  0.00    +0.000 C 
BRANCH  21  22
ATOM     22  C   UNL     1       6.000   5.014  14.627  0.00  0.00    +0.000 A 
ATOM     23  C   UNL     1       5.153   4.168  13.885  0.00  0.00    +0.000 A 
ATOM     24  C   UNL     1       5.596   3.563  12.695  0.00  0.00    +0.000 A 
ATOM     25  C   UNL     1       6.876   3.811  12.207  0.00  0.00    +0.000 A 
ATOM     26  C   UNL     1       7.706   4.696  12.887  0.00  0.00    +0.000 A 
ATOM     27  C   UNL     1       7.269   5.301  14.077  0.00  0.00    +0.000 A 
ENDBRANCH  21  22
BRANCH  21  28
ATOM     28  C   UNL     1       7.161   5.968  16.703  0.00  0.00    +0.000 C 
BRANCH  28  30
ATOM     29  C   UNL     1       7.844   6.004  19.080  0.00  0.00    +0.000 C 
ATOM     30  N   UNL     1       7.234   6.793  17.984  0.00  0.00    +0.000 NA
ATOM     31  C   UNL     1       8.001   8.043  17.928  0.00  0.00    +0.000 C 
ENDBRANCH  28  30
ENDBRANCH  21  28
ENDBRANCH   1  21
TORSDOF 5
ENDMDL
MODEL 3
REMARK VINA RESULT:      -7.3      1.063      1.563
REMARK  Name = 
REMARK  7 active torsions:
REMARK  status: ('A' for Active; 'I' for Inactive)
REMARK    1  A    between atoms: C_1  and  N_2
REMARK    2  A    between atoms: N_2  and  C_3
REMARK    3  A    between atoms: N_2  and  C_4
REMARK    4  A    between atoms: C_4  and  C_5
REMARK    5  A    between atoms: C_5  and  C_6
REMARK    6  A    between atoms: C_5  and  C_12
REMARK    7  A    between atoms: C_23  and  C_24
REMARK                            x       y       z     vdW  Elec       q    Type
REMARK                         _______ _______ _______ _____ _____    ______ ____
ROOT
ATOM      1  C   UNL     1      -1.787  13.856  22.651  0.00  0.00    +0.000 A 
ATOM      2  N   UNL     1      -0.797  14.379  23.379  0.00  0.00    +0.000 NA
ATOM      3  N   UNL     1       0.369  14.158  22.672  0.00  0.00    +0.000 NA
ATOM      4  C   UNL     1       0.054  13.328  21.699  0.00  0.00    +0.000 A 
ATOM      5  N   UNL     1      -1.169  12.748  22.003  0.00  0.00    +0.000 N 
ATOM      6  C   UNL     1      -1.077  11.270  22.038  0.00  0.00    +0.000 A 
ATOM      7  C   UNL     1      -0.503  10.479  23.073  0.00  0.00    +0.000 A 
ATOM      8  C   UNL     1       0.207   9.252  22.786  0.00  0.00    +0.000 A 
ATOM      9  C   UNL     1       0.340   8.756  21.491  0.00  0.00    +0.000 A 
ATOM     10  C   UNL     1      -0.243   9.489  20.460  0.00  0.00    +0.000 A 
ATOM     11  C   UNL     1      -0.893  10.710  20.763  0.00  0.00    +0.000 A 
ATOM     12  C   UNL     1      -1.029  11.563  19.581  0.00  0.00    +0.000 C 
ATOM     13  N   UNL     1      -0.217  12.570  19.396  0.00  0.00    +0.000 NA
ATOM     14  C   UNL     1       0.780  12.849  20.495  0.00  0.00    +0.000 C 
ENDROOT
BRANCH  12  15
ATOM     15  C   UNL     1      -2.016  11.059  18.583  0.00  0.00    +0.000 A 
ATOM     16  C   UNL     1      -1.603  10.263  17.487  0.00  0.00    +0.000 A 
ATOM     17  C   UNL     1      -2.419  10.128  16.369  0.00  0.00    +0.000 A 
ATOM     18  C   UNL     1      -3.672  10.732  16.366  0.00  0.00    +0.000 A 
ATOM     19  C   UNL     1      -4.106  11.449  17.483  0.00  0.00    +0.000 A 
ATOM     20  C   UNL     1      -3.281  11.613  18.595  0.00  0.00    +0.000 A 
ENDBRANCH  12  15
BRANCH   1  21
ATOM     21  C   UNL     1      -2.931  14.893  22.074  0.00  0.00    +0.000 C 
BRANCH  21  22
ATOM     22  C   UNL     1      -4.315  14.362  21.646  0.00  0.00    +0.000 A 
ATOM     23  C   UNL     1      -4.756  13.074  22.005  0.00  0.00    +0.000 A 
ATOM     24  C   UNL     1      -5.751  12.416  21.259  0.00  0.00    +0.000 A 
ATOM     25  C   UNL     1      -6.346  13.038  20.165  0.00  0.00    +0.000 A 
ATOM     26  C   UNL     1      -5.974  14.336  19.833  0.00  0.00    +0.000 A 
ATOM     27  C   UNL     1      -4.978  14.996  20.572  0.00  0.00    +0.000 A 
ENDBRANCH  21  22
BRANCH  21  28
ATOM     28  C   UNL     1      -2.389  15.844  20.832  0.00  0.00    +0.000 C 
BRANCH  28  30
ATOM     29  C   UNL     1      -0.184  16.846  20.324  0.00  0.00    +0.000 C 
ATOM     30  N   UNL     1      -1.477  17.053  21.021  0.00  0.00    +0.000 NA
ATOM     31  C   UNL     1      -1.977  18.346  20.540  0.00  0.00    +0.000 C 
ENDBRANCH  28  30
ENDBRANCH  21  28
ENDBRANCH   1  21
TORSDOF 5
ENDMDL
MODEL 4
REMARK VINA RESULT:      -7.3      1.159      1.599
REMARK  Name = 
REMARK  7 active torsions:
REMARK  status: ('A' for Active; 'I' for Inactive)
REMARK    1  A    between atoms: C_1  and  N_2
REMARK    2  A    between atoms: N_2  and  C_3
REMARK    3  A    between atoms: N_2  and  C_4
REMARK    4  A    between atoms: C_4  and  C_5
REMARK    5  A    between atoms: C_5  and  C_6
REMARK    6  A    between atoms: C_5  and  C_12
REMARK    7  A    between atoms: C_23  and  C_24
REMARK                            x       y       z     vdW  Elec       q    Type
REMARK                         _______ _______ _______ _____ _____    ______ ____
ROOT
ATOM      1  C   UNL     1      -2.279  12.621  22.882  0.00  0.00    +0.000 A 
ATOM      2  N   UNL     1      -1.511  13.239  23.783  0.00  0.00    +0.000 NA
ATOM      3  N   UNL     1      -0.331  13.556  23.140  0.00  0.00    +0.000 NA
ATOM      4  C   UNL     1      -0.358  12.917  21.989  0.00  0.00    +0.000 A 
ATOM      5  N   UNL     1      -1.337  11.936  22.061  0.00  0.00    +0.000 N 
ATOM      6  C   UNL     1      -0.782  10.592  21.784  0.00  0.00    +0.000 A 
ATOM      7  C   UNL     1       0.006   9.799  22.665  0.00  0.00    +0.000 A 
ATOM      8  C   UNL     1       1.071   8.949  22.178  0.00  0.00    +0.000 A 
ATOM      9  C   UNL     1       1.363   8.830  20.821  0.00  0.00    +0.000 A 
ATOM     10  C   UNL     1       0.585   9.566  19.929  0.00  0.00    +0.000 A 
ATOM     11  C   UNL     1      -0.421  10.425  20.437  0.00  0.00    +0.000 A 
ATOM     12  C   UNL     1      -0.811  11.443  19.460  0.00  0.00    +0.000 C 
ATOM     13  N   UNL     1      -0.358  12.664  19.562  0.00  0.00    +0.000 NA
ATOM     14  C   UNL     1       0.490  12.975  20.772  0.00  0.00    +0.000 C 
ENDROOT
BRANCH  12  15
ATOM     15  C   UNL     1      -1.580  10.904  18.301  0.00  0.00    +0.000 A 
ATOM     16  C   UNL     1      -1.704  11.646  17.101  0.00  0.00    +0.000 A 
ATOM     17  C   UNL     1      -2.714  11.350  16.193  0.00  0.00    +0.000 A 
ATOM     18  C   UNL     1      -3.562  10.276  16.446  0.00  0.00    +0.000 A 
ATOM     19  C   UNL     1      -3.384   9.499  17.592  0.00  0.00    +0.000 A 
ATOM     20  C   UNL     1      -2.391   9.809  18.522  0.00  0.00    +0.000 A 
ENDBRANCH  12  15
BRANCH   1  21
ATOM     21  C   UNL     1      -3.688  13.360  22.454  0.00  0.00    +0.000 C 
BRANCH  21  22
ATOM     22  C   UNL     1      -4.616  12.715  21.403  0.00  0.00    +0.000 A 
ATOM     23  C   UNL     1      -4.248  12.628  20.047  0.00  0.00    +0.000 A 
ATOM     24  C   UNL     1      -5.223  12.497  19.040  0.00  0.00    +0.000 A 
ATOM     25  C   UNL     1      -6.574  12.418  19.366  0.00  0.00    +0.000 A 
ATOM     26  C   UNL     1      -6.955  12.434  20.703  0.00  0.00    +0.000 A 
ATOM     27  C   UNL     1      -5.986  12.568  21.712  0.00  0.00    +0.000 A 
ENDBRANCH  21  22
BRANCH  21  28
ATOM     28  C   UNL     1      -3.489  14.939  21.997  0.00  0.00    +0.000 C 
BRANCH  28  30
ATOM     29  C   UNL     1      -4.372  15.680  24.187  0.00  0.00    +0.000 C 
ATOM     30  N   UNL     1      -3.780  16.131  22.904  0.00  0.00    +0.000 NA
ATOM     31  C   UNL     1      -2.640  16.977  23.276  0.00  0.00    +0.000 C 
ENDBRANCH  28  30
ENDBRANCH  21  28
ENDBRANCH   1  21
TORSDOF 5
ENDMDL
MODEL 5
REMARK VINA RESULT:      -7.2      1.484      2.182
REMARK  Name = 
REMARK  7 active torsions:
REMARK  status: ('A' for Active; 'I' for Inactive)
REMARK    1  A    between atoms: C_1  and  N_2
REMARK    2  A    between atoms: N_2  and  C_3
REMARK    3  A    between atoms: N_2  and  C_4
REMARK    4  A    between atoms: C_4  and  C_5
REMARK    5  A    between atoms: C_5  and  C_6
REMARK    6  A    between atoms: C_5  and  C_12
REMARK    7  A    between atoms: C_23  and  C_24
REMARK                            x       y       z     vdW  Elec       q    Type
REMARK                         _______ _______ _______ _____ _____    ______ ____
ROOT
ATOM      1  C   UNL     1      -2.806  13.297  23.287  0.00  0.00    +0.000 A 
ATOM      2  N   UNL     1      -2.065  13.887  24.230  0.00  0.00    +0.000 NA
ATOM      3  N   UNL     1      -0.834  14.140  23.658  0.00  0.00    +0.000 NA
ATOM      4  C   UNL     1      -0.822  13.492  22.512  0.00  0.00    +0.000 A 
ATOM      5  N   UNL     1      -1.850  12.560  22.531  0.00  0.00    +0.000 N 
ATOM      6  C   UNL     1      -1.345  11.188  22.297  0.00  0.00    +0.000 A 
ATOM      7  C   UNL     1      -0.652  10.367  23.230  0.00  0.00    +0.000 A 
ATOM      8  C   UNL     1       0.398   9.462  22.815  0.00  0.00    +0.000 A 
ATOM      9  C   UNL     1       0.766   9.316  21.479  0.00  0.00    +0.000 A 
ATOM     10  C   UNL     1       0.081  10.080  20.537  0.00  0.00    +0.000 A 
ATOM     11  C   UNL     1      -0.911  10.991  20.975  0.00  0.00    +0.000 A 
ATOM     12  C   UNL     1      -1.190  12.017  19.970  0.00  0.00    +0.000 C 
ATOM     13  N   UNL     1      -0.686  13.216  20.091  0.00  0.00    +0.000 NA
ATOM     14  C   UNL     1       0.101  13.497  21.349  0.00  0.00    +0.000 C 
ENDROOT
BRANCH  12  15
ATOM     15  C   UNL     1      -1.913  11.505  18.769  0.00  0.00    +0.000 A 
ATOM     16  C   UNL     1      -3.313  11.671  18.636  0.00  0.00    +0.000 A 
ATOM     17  C   UNL     1      -4.033  10.876  17.751  0.00  0.00    +0.000 A 
ATOM     18  C   UNL     1      -3.353   9.962  16.952  0.00  0.00    +0.000 A 
ATOM     19  C   UNL     1      -1.964   9.861  17.031  0.00  0.00    +0.000 A 
ATOM     20  C   UNL     1      -1.238  10.634  17.938  0.00  0.00    +0.000 A 
ENDBRANCH  12  15
BRANCH   1  21
ATOM     21  C   UNL     1      -4.149  14.099  22.768  0.00  0.00    +0.000 C 
BRANCH  21  22
ATOM     22  C   UNL     1      -4.832  13.694  21.446  0.00  0.00    +0.000 A 
ATOM     23  C   UNL     1      -5.133  14.642  20.449  0.00  0.00    +0.000 A 
ATOM     24  C   UNL     1      -6.141  14.397  19.498  0.00  0.00    +0.000 A 
ATOM     25  C   UNL     1      -6.844  13.195  19.502  0.00  0.00    +0.000 A 
ATOM     26  C   UNL     1      -6.518  12.217  20.436  0.00  0.00    +0.000 A 
ATOM     27  C   UNL     1      -5.514  12.458  21.389  0.00  0.00    +0.000 A 
ENDBRANCH  21  22
BRANCH  21  28
ATOM     28  C   UNL     1      -3.951  15.742  22.710  0.00  0.00    +0.000 C 
BRANCH  28  30
ATOM     29  C   UNL     1      -6.051  16.327  23.881  0.00  0.00    +0.000 C 
ATOM     30  N   UNL     1      -4.637  16.716  23.663  0.00  0.00    +0.000 NA
ATOM     31  C   UNL     1      -4.058  16.854  25.005  0.00  0.00    +0.000 C 
ENDBRANCH  28  30
ENDBRANCH  21  28
ENDBRANCH   1  21
TORSDOF 5
ENDMDL
MODEL 6
REMARK VINA RESULT:      -7.2      1.042      6.002
REMARK  Name = 
REMARK  7 active torsions:
REMARK  status: ('A' for Active; 'I' for Inactive)
REMARK    1  A    between atoms: C_1  and  N_2
REMARK    2  A    between atoms: N_2  and  C_3
REMARK    3  A    between atoms: N_2  and  C_4
REMARK    4  A    between atoms: C_4  and  C_5
REMARK    5  A    between atoms: C_5  and  C_6
REMARK    6  A    between atoms: C_5  and  C_12
REMARK    7  A    between atoms: C_23  and  C_24
REMARK                            x       y       z     vdW  Elec       q    Type
REMARK                         _______ _______ _______ _____ _____    ______ ____
ROOT
ATOM      1  C   UNL     1      -0.408  12.701  19.962  0.00  0.00    +0.000 A 
ATOM      2  N   UNL     1       0.838  13.078  20.259  0.00  0.00    +0.000 NA
ATOM      3  N   UNL     1       0.832  13.436  21.593  0.00  0.00    +0.000 NA
ATOM      4  C   UNL     1      -0.434  13.482  21.953  0.00  0.00    +0.000 A 
ATOM      5  N   UNL     1      -1.210  13.524  20.803  0.00  0.00    +0.000 N 
ATOM      6  C   UNL     1      -2.091  14.714  20.785  0.00  0.00    +0.000 A 
ATOM      7  C   UNL     1      -1.702  16.056  20.511  0.00  0.00    +0.000 A 
ATOM      8  C   UNL     1      -2.320  17.179  21.181  0.00  0.00    +0.000 A 
ATOM      9  C   UNL     1      -3.350  17.018  22.104  0.00  0.00    +0.000 A 
ATOM     10  C   UNL     1      -3.779  15.718  22.368  0.00  0.00    +0.000 A 
ATOM     11  C   UNL     1      -3.127  14.634  21.731  0.00  0.00    +0.000 A 
ATOM     12  C   UNL     1      -3.354  13.372  22.437  0.00  0.00    +0.000 C 
ATOM     13  N   UNL     1      -2.431  12.874  23.216  0.00  0.00    +0.000 NA
ATOM     14  C   UNL     1      -1.115  13.613  23.265  0.00  0.00    +0.000 C 
ENDROOT
BRANCH  12  15
ATOM     15  C   UNL     1      -4.749  12.857  22.318  0.00  0.00    +0.000 A 
ATOM     16  C   UNL     1      -5.348  12.660  21.050  0.00  0.00    +0.000 A 
ATOM     17  C   UNL     1      -6.731  12.569  20.933  0.00  0.00    +0.000 A 
ATOM     18  C   UNL     1      -7.514  12.608  22.082  0.00  0.00    +0.000 A 
ATOM     19  C   UNL     1      -6.911  12.721  23.336  0.00  0.00    +0.000 A 
ATOM     20  C   UNL     1      -5.527  12.844  23.459  0.00  0.00    +0.000 A 
ENDBRANCH  12  15
BRANCH   1  21
ATOM     21  C   UNL     1      -0.639  11.131  19.517  0.00  0.00    +0.000 C 
BRANCH  21  22
ATOM     22  C   UNL     1      -1.785  10.756  18.554  0.00  0.00    +0.000 A 
ATOM     23  C   UNL     1      -1.560   9.971  17.408  0.00  0.00    +0.000 A 
ATOM     24  C   UNL     1      -2.440  10.021  16.312  0.00  0.00    +0.000 A 
ATOM     25  C   UNL     1      -3.574  10.829  16.348  0.00  0.00    +0.000 A 
ATOM     26  C   UNL     1      -3.852  11.562  17.497  0.00  0.00    +0.000 A 
ATOM     27  C   UNL     1      -2.975  11.517  18.593  0.00  0.00    +0.000 A 
ENDBRANCH  21  22
BRANCH  21  28
ATOM     28  C   UNL     1      -0.749  10.094  20.803  0.00  0.00    +0.000 C 
BRANCH  28  30
ATOM     29  C   UNL     1      -0.279   9.717  23.203  0.00  0.00    +0.000 C 
ATOM     30  N   UNL     1       0.331   9.943  21.870  0.00  0.00    +0.000 NA
ATOM     31  C   UNL     1       1.296   8.852  21.692  0.00  0.00    +0.000 C 
ENDBRANCH  28  30
ENDBRANCH  21  28
ENDBRANCH   1  21
TORSDOF 5
ENDMDL
MODEL 7
REMARK VINA RESULT:      -7.1      1.544      5.825
REMARK  Name = 
REMARK  7 active torsions:
REMARK  status: ('A' for Active; 'I' for Inactive)
REMARK    1  A    between atoms: C_1  and  N_2
REMARK    2  A    between atoms: N_2  and  C_3
REMARK    3  A    between atoms: N_2  and  C_4
REMARK    4  A    between atoms: C_4  and  C_5
REMARK    5  A    between atoms: C_5  and  C_6
REMARK    6  A    between atoms: C_5  and  C_12
REMARK    7  A    between atoms: C_23  and  C_24
REMARK                            x       y       z     vdW  Elec       q    Type
REMARK                         _______ _______ _______ _____ _____    ______ ____
ROOT
ATOM      1  C   UNL     1      -0.685  12.973  20.935  0.00  0.00    +0.000 A 
ATOM      2  N   UNL     1       0.215  13.149  21.906  0.00  0.00    +0.000 NA
ATOM      3  N   UNL     1      -0.487  13.153  23.095  0.00  0.00    +0.000 NA
ATOM      4  C   UNL     1      -1.761  13.217  22.767  0.00  0.00    +0.000 A 
ATOM      5  N   UNL     1      -1.848  13.621  21.442  0.00  0.00    +0.000 N 
ATOM      6  C   UNL     1      -2.663  14.849  21.300  0.00  0.00    +0.000 A 
ATOM      7  C   UNL     1      -2.264  16.176  21.625  0.00  0.00    +0.000 A 
ATOM      8  C   UNL     1      -3.199  17.140  22.164  0.00  0.00    +0.000 A 
ATOM      9  C   UNL     1      -4.544  16.839  22.362  0.00  0.00    +0.000 A 
ATOM     10  C   UNL     1      -4.974  15.558  22.019  0.00  0.00    +0.000 A 
ATOM     11  C   UNL     1      -4.029  14.620  21.536  0.00  0.00    +0.000 A 
ATOM     12  C   UNL     1      -4.511  13.245  21.667  0.00  0.00    +0.000 C 
ATOM     13  N   UNL     1      -4.086  12.485  22.641  0.00  0.00    +0.000 NA
ATOM     14  C   UNL     1      -3.020  13.066  23.539  0.00  0.00    +0.000 C 
ENDROOT
BRANCH  12  15
ATOM     15  C   UNL     1      -5.622  12.902  20.732  0.00  0.00    +0.000 A 
ATOM     16  C   UNL     1      -6.258  11.638  20.787  0.00  0.00    +0.000 A 
ATOM     17  C   UNL     1      -6.991  11.172  19.701  0.00  0.00    +0.000 A 
ATOM     18  C   UNL     1      -7.147  11.989  18.586  0.00  0.00    +0.000 A 
ATOM     19  C   UNL     1      -6.584  13.267  18.570  0.00  0.00    +0.000 A 
ATOM     20  C   UNL     1      -5.822  13.728  19.644  0.00  0.00    +0.000 A 
ENDBRANCH  12  15
BRANCH   1  21
ATOM     21  C   UNL     1      -0.569  11.596  20.037  0.00  0.00    +0.000 C 
BRANCH  21  22
ATOM     22  C   UNL     1      -1.473  11.395  18.802  0.00  0.00    +0.000 A 
ATOM     23  C   UNL     1      -2.814  11.824  18.791  0.00  0.00    +0.000 A 
ATOM     24  C   UNL     1      -3.750  11.249  17.912  0.00  0.00    +0.000 A 
ATOM     25  C   UNL     1      -3.363  10.261  17.011  0.00  0.00    +0.000 A 
ATOM     26  C   UNL     1      -2.030   9.869  16.959  0.00  0.00    +0.000 A 
ATOM     27  C   UNL     1      -1.092  10.439  17.835  0.00  0.00    +0.000 A 
ENDBRANCH  21  22
BRANCH  21  28
ATOM     28  C   UNL     1      -0.692  10.212  20.938  0.00  0.00    +0.000 C 
BRANCH  28  30
ATOM     29  C   UNL     1      -0.091   9.503  23.230  0.00  0.00    +0.000 C 
ATOM     30  N   UNL     1       0.414   9.689  21.849  0.00  0.00    +0.000 NA
ATOM     31  C   UNL     1       1.029   8.408  21.482  0.00  0.00    +0.000 C 
ENDBRANCH  28  30
ENDBRANCH  21  28
ENDBRANCH   1  21
TORSDOF 5
ENDMDL
MODEL 8
REMARK VINA RESULT:      -7.1      1.495      2.415
REMARK  Name = 
REMARK  7 active torsions:
REMARK  status: ('A' for Active; 'I' for Inactive)
REMARK    1  A    between atoms: C_1  and  N_2
REMARK    2  A    between atoms: N_2  and  C_3
REMARK    3  A    between atoms: N_2  and  C_4
REMARK    4  A    between atoms: C_4  and  C_5
REMARK    5  A    between atoms: C_5  and  C_6
REMARK    6  A    between atoms: C_5  and  C_12
REMARK    7  A    between atoms: C_23  and  C_24
REMARK                            x       y       z     vdW  Elec       q    Type
REMARK                         _______ _______ _______ _____ _____    ______ ____
ROOT
ATOM      1  C   UNL     1      -3.054  12.473  22.927  0.00  0.00    +0.000 A 
ATOM      2  N   UNL     1      -2.339  13.218  23.774  0.00  0.00    +0.000 NA
ATOM      3  N   UNL     1      -1.327  13.794  23.030  0.00  0.00    +0.000 NA
ATOM      4  C   UNL     1      -1.347  13.193  21.859  0.00  0.00    +0.000 A 
ATOM      5  N   UNL     1      -2.086  12.025  21.984  0.00  0.00    +0.000 N 
ATOM      6  C   UNL     1      -1.297  10.836  21.588  0.00  0.00    +0.000 A 
ATOM      7  C   UNL     1      -0.270  10.207  22.347  0.00  0.00    +0.000 A 
ATOM      8  C   UNL     1       0.888   9.614  21.714  0.00  0.00    +0.000 A 
ATOM      9  C   UNL     1       1.050   9.594  20.331  0.00  0.00    +0.000 A 
ATOM     10  C   UNL     1       0.043  10.170  19.558  0.00  0.00    +0.000 A 
ATOM     11  C   UNL     1      -1.057  10.783  20.205  0.00  0.00    +0.000 A 
ATOM     12  C   UNL     1      -1.755  11.720  19.322  0.00  0.00    +0.000 C 
ATOM     13  N   UNL     1      -1.558  13.006  19.435  0.00  0.00    +0.000 NA
ATOM     14  C   UNL     1      -0.666  13.459  20.567  0.00  0.00    +0.000 C 
ENDROOT
BRANCH  12  15
ATOM     15  C   UNL     1      -2.517  11.060  18.222  0.00  0.00    +0.000 A 
ATOM     16  C   UNL     1      -1.853  10.298  17.230  0.00  0.00    +0.000 A 
ATOM     17  C   UNL     1      -2.478  10.024  16.019  0.00  0.00    +0.000 A 
ATOM     18  C   UNL     1      -3.787  10.451  15.818  0.00  0.00    +0.000 A 
ATOM     19  C   UNL     1      -4.464  11.131  16.832  0.00  0.00    +0.000 A 
ATOM     20  C   UNL     1      -3.833  11.435  18.038  0.00  0.00    +0.000 A 
ENDBRANCH  12  15
BRANCH   1  21
ATOM     21  C   UNL     1      -4.625  12.908  22.679  0.00  0.00    +0.000 C 
BRANCH  21  22
ATOM     22  C   UNL     1      -5.228  12.863  21.259  0.00  0.00    +0.000 A 
ATOM     23  C   UNL     1      -5.135  13.960  20.382  0.00  0.00    +0.000 A 
ATOM     24  C   UNL     1      -6.048  14.120  19.323  0.00  0.00    +0.000 A 
ATOM     25  C   UNL     1      -7.048  13.177  19.101  0.00  0.00    +0.000 A 
ATOM     26  C   UNL     1      -7.118  12.051  19.914  0.00  0.00    +0.000 A 
ATOM     27  C   UNL     1      -6.210  11.888  20.974  0.00  0.00    +0.000 A 
ENDBRANCH  21  22
BRANCH  21  28
ATOM     28  C   UNL     1      -5.002  14.395  23.301  0.00  0.00    +0.000 C 
BRANCH  28  30
ATOM     29  C   UNL     1      -7.120  15.627  22.959  0.00  0.00    +0.000 C 
ATOM     30  N   UNL     1      -6.364  14.752  23.887  0.00  0.00    +0.000 NA
ATOM     31  C   UNL     1      -7.268  13.639  24.198  0.00  0.00    +0.000 C 
ENDBRANCH  28  30
ENDBRANCH  21  28
ENDBRANCH   1  21
TORSDOF 5
ENDMDL
MODEL 9
REMARK VINA RESULT:      -7.1      1.942      3.785
REMARK  Name = 
REMARK  7 active torsions:
REMARK  status: ('A' for Active; 'I' for Inactive)
REMARK    1  A    between atoms: C_1  and  N_2
REMARK    2  A    between atoms: N_2  and  C_3
REMARK    3  A    between atoms: N_2  and  C_4
REMARK    4  A    between atoms: C_4  and  C_5
REMARK    5  A    between atoms: C_5  and  C_6
REMARK    6  A    between atoms: C_5  and  C_12
REMARK    7  A    between atoms: C_23  and  C_24
REMARK                            x       y       z     vdW  Elec       q    Type
REMARK                         _______ _______ _______ _____ _____    ______ ____
ROOT
ATOM      1  C   UNL     1      -1.097  14.235  22.005  0.00  0.00    +0.000 A 
ATOM      2  N   UNL     1      -0.024  14.655  22.681  0.00  0.00    +0.000 NA
ATOM      3  N   UNL     1       1.074  14.095  22.059  0.00  0.00    +0.000 NA
ATOM      4  C   UNL     1       0.601  13.203  21.214  0.00  0.00    +0.000 A 
ATOM      5  N   UNL     1      -0.717  12.937  21.557  0.00  0.00    +0.000 N 
ATOM      6  C   UNL     1      -0.931  11.496  21.822  0.00  0.00    +0.000 A 
ATOM      7  C   UNL     1      -0.537  10.778  22.986  0.00  0.00    +0.000 A 
ATOM      8  C   UNL     1      -0.093   9.403  22.917  0.00  0.00    +0.000 A 
ATOM      9  C   UNL     1      -0.059   8.693  21.720  0.00  0.00    +0.000 A 
ATOM     10  C   UNL     1      -0.474   9.357  20.567  0.00  0.00    +0.000 A 
ATOM     11  C   UNL     1      -0.860  10.717  20.655  0.00  0.00    +0.000 A 
ATOM     12  C   UNL     1      -0.812  11.382  19.353  0.00  0.00    +0.000 C 
ATOM     13  N   UNL     1       0.191  12.162  19.045  0.00  0.00    +0.000 NA
ATOM     14  C   UNL     1       1.218  12.403  20.126  0.00  0.00    +0.000 C 
ENDROOT
BRANCH  12  15
ATOM     15  C   UNL     1      -1.876  10.938  18.407  0.00  0.00    +0.000 A 
ATOM     16  C   UNL     1      -1.578  10.068  17.331  0.00  0.00    +0.000 A 
ATOM     17  C   UNL     1      -2.443   9.970  16.246  0.00  0.00    +0.000 A 
ATOM     18  C   UNL     1      -3.634  10.688  16.260  0.00  0.00    +0.000 A 
ATOM     19  C   UNL     1      -3.960  11.481  17.361  0.00  0.00    +0.000 A 
ATOM     20  C   UNL     1      -3.084  11.607  18.439  0.00  0.00    +0.000 A 
ENDBRANCH  12  15
BRANCH   1  21
ATOM     21  C   UNL     1      -2.001  15.378  21.233  0.00  0.00    +0.000 C 
BRANCH  21  22
ATOM     22  C   UNL     1      -1.322  16.411  20.310  0.00  0.00    +0.000 A 
ATOM     23  C   UNL     1      -1.716  17.762  20.296  0.00  0.00    +0.000 A 
ATOM     24  C   UNL     1      -1.467  18.578  19.178  0.00  0.00    +0.000 A 
ATOM     25  C   UNL     1      -0.794  18.074  18.068  0.00  0.00    +0.000 A 
ATOM     26  C   UNL     1      -0.336  16.761  18.086  0.00  0.00    +0.000 A 
ATOM     27  C   UNL     1      -0.585  15.942  19.199  0.00  0.00    +0.000 A 
ENDBRANCH  21  22
BRANCH  21  28
ATOM     28  C   UNL     1      -2.985  16.235  22.252  0.00  0.00    +0.000 C 
BRANCH  28  30
ATOM     29  C   UNL     1      -2.707  16.785  24.648  0.00  0.00    +0.000 C 
ATOM     30  N   UNL     1      -3.293  15.820  23.687  0.00  0.00    +0.000 NA
ATOM     31  C   UNL     1      -4.708  15.709  24.059  0.00  0.00    +0.000 C 
ENDBRANCH  28  30
ENDBRANCH  21  28
ENDBRANCH   1  21
TORSDOF 5
ENDMDL
