MODEL 1
REMARK VINA RESULT:      -8.3      0.000      0.000
REMARK  Name = 
REMARK  5 active torsions:
REMARK  status: ('A' for Active; 'I' for Inactive)
REMARK    1  A    between atoms: C_1  and  C_2
REMARK    2  A    between atoms: C_2  and  N_3
REMARK    3  A    between atoms: N_5  and  C_6
REMARK    4  A    between atoms: C_9  and  O_10
REMARK    5  A    between atoms: O_10  and  C_11
REMARK                            x       y       z     vdW  Elec       q    Type
REMARK                         _______ _______ _______ _____ _____    ______ ____
ROOT
ATOM      1  N   UNL     1       2.123   4.162  19.562  0.00  0.00    +0.000 N 
ATOM      2  N   UNL     1       1.642   5.290  20.070  0.00  0.00    +0.000 NA
ATOM      3  N   UNL     1       2.340   6.217  19.425  0.00  0.00    +0.000 N 
ATOM      4  C   UNL     1       3.284   5.714  18.539  0.00  0.00    +0.000 A 
ATOM      5  C   UNL     1       3.144   4.351  18.622  0.00  0.00    +0.000 A 
ATOM      6  C   UNL     1       3.880   3.407  17.846  0.00  0.00    +0.000 C 
ATOM      7  O   UNL     1       3.779   2.183  17.838  0.00  0.00    +0.000 OA
ATOM      8  C   UNL     1       4.753   4.063  16.813  0.00  0.00    +0.000 A 
ATOM      9  C   UNL     1       5.408   3.258  15.868  0.00  0.00    +0.000 A 
ATOM     10  C   UNL     1       6.086   3.838  14.790  0.00  0.00    +0.000 A 
ATOM     11  C   UNL     1       6.122   5.224  14.648  0.00  0.00    +0.000 A 
ATOM     12  C   UNL     1       5.521   6.035  15.606  0.00  0.00    +0.000 A 
ATOM     13  C   UNL     1       4.848   5.462  16.700  0.00  0.00    +0.000 A 
ATOM     14  C   UNL     1       4.208   6.379  17.685  0.00  0.00    +0.000 C 
ATOM     15  O   UNL     1       4.486   7.574  17.625  0.00  0.00    +0.000 OA
ENDROOT
BRANCH   3  16
ATOM     16  C   UNL     1       1.895   7.575  19.719  0.00  0.00    +0.000 A 
ATOM     17  C   UNL     1       1.569   7.928  21.025  0.00  0.00    +0.000 A 
ATOM     18  C   UNL     1       0.996   9.180  21.267  0.00  0.00    +0.000 A 
ATOM     19  C   UNL     1       0.765  10.078  20.221  0.00  0.00    +0.000 A 
ATOM     20  C   UNL     1       1.143   9.734  18.925  0.00  0.00    +0.000 A 
ATOM     21  C   UNL     1       1.705   8.476  18.671  0.00  0.00    +0.000 A 
BRANCH  19  22
ATOM     22  O   UNL     1       0.108  11.220  20.586  0.00  0.00    +0.000 OA
ATOM     23  C   UNL     1      -0.371  11.295  21.924  0.00  0.00    +0.000 C 
ENDBRANCH  19  22
ENDBRANCH   3  16
BRANCH   1  25
ATOM     24  C   UNL     1       1.959   2.874  21.690  0.00  0.00    +0.000 C 
ATOM     25  C   UNL     1       1.730   2.893  20.192  0.00  0.00    +0.000 C 
ENDBRANCH   1  25
TORSDOF 3
ENDMDL
MODEL 2
REMARK VINA RESULT:      -8.2      1.003      1.089
REMARK  Name = 
REMARK  5 active torsions:
REMARK  status: ('A' for Active; 'I' for Inactive)
REMARK    1  A    between atoms: C_1  and  C_2
REMARK    2  A    between atoms: C_2  and  N_3
REMARK    3  A    between atoms: N_5  and  C_6
REMARK    4  A    between atoms: C_9  and  O_10
REMARK    5  A    between atoms: O_10  and  C_11
REMARK                            x       y       z     vdW  Elec       q    Type
REMARK                         _______ _______ _______ _____ _____    ______ ____
ROOT
ATOM      1  N   UNL     1       2.432   4.877  20.311  0.00  0.00    +0.000 N 
ATOM      2  N   UNL     1       1.822   6.022  20.589  0.00  0.00    +0.000 NA
ATOM      3  N   UNL     1       2.310   6.841  19.664  0.00  0.00    +0.000 N 
ATOM      4  C   UNL     1       3.247   6.260  18.818  0.00  0.00    +0.000 A 
ATOM      5  C   UNL     1       3.331   4.956  19.240  0.00  0.00    +0.000 A 
ATOM      6  C   UNL     1       4.141   3.953  18.630  0.00  0.00    +0.000 C 
ATOM      7  O   UNL     1       4.235   2.765  18.925  0.00  0.00    +0.000 OA
ATOM      8  C   UNL     1       4.813   4.436  17.374  0.00  0.00    +0.000 A 
ATOM      9  C   UNL     1       5.508   3.513  16.578  0.00  0.00    +0.000 A 
ATOM     10  C   UNL     1       5.997   3.887  15.321  0.00  0.00    +0.000 A 
ATOM     11  C   UNL     1       5.801   5.183  14.850  0.00  0.00    +0.000 A 
ATOM     12  C   UNL     1       5.159   6.123  15.651  0.00  0.00    +0.000 A 
ATOM     13  C   UNL     1       4.676   5.761  16.921  0.00  0.00    +0.000 A 
ATOM     14  C   UNL     1       3.982   6.804  17.728  0.00  0.00    +0.000 C 
ATOM     15  O   UNL     1       4.062   7.971  17.353  0.00  0.00    +0.000 OA
ENDROOT
BRANCH   3  16
ATOM     16  C   UNL     1       1.682   8.157  19.677  0.00  0.00    +0.000 A 
ATOM     17  C   UNL     1       1.253   8.707  20.880  0.00  0.00    +0.000 A 
ATOM     18  C   UNL     1       0.513   9.893  20.861  0.00  0.00    +0.000 A 
ATOM     19  C   UNL     1       0.218  10.535  19.654  0.00  0.00    +0.000 A 
ATOM     20  C   UNL     1       0.698  10.003  18.459  0.00  0.00    +0.000 A 
ATOM     21  C   UNL     1       1.427   8.807  18.469  0.00  0.00    +0.000 A 
BRANCH  19  22
ATOM     22  O   UNL     1      -0.596  11.626  19.774  0.00  0.00    +0.000 OA
ATOM     23  C   UNL     1      -0.962  12.301  18.577  0.00  0.00    +0.000 C 
ENDBRANCH  19  22
ENDBRANCH   3  16
BRANCH   1  25
ATOM     24  C   UNL     1       1.201   2.790  20.897  0.00  0.00    +0.000 C 
ATOM     25  C   UNL     1       2.297   3.768  21.267  0.00  0.00    +0.000 C 
ENDBRANCH   1  25
TORSDOF 3
ENDMDL
MODEL 3
REMARK VINA RESULT:      -8.1      1.010      1.465
REMARK  Name = 
REMARK  5 active torsions:
REMARK  status: ('A' for Active; 'I' for Inactive)
REMARK    1  A    between atoms: C_1  and  C_2
REMARK    2  A    between atoms: C_2  and  N_3
REMARK    3  A    between atoms: N_5  and  C_6
REMARK    4  A    between atoms: C_9  and  O_10
REMARK    5  A    between atoms: O_10  and  C_11
REMARK                            x       y       z     vdW  Elec       q    Type
REMARK                         _______ _______ _______ _____ _____    ______ ____
ROOT
ATOM      1  N   UNL     1       2.404   4.888  20.379  0.00  0.00    +0.000 N 
ATOM      2  N   UNL     1       1.787   6.029  20.661  0.00  0.00    +0.000 NA
ATOM      3  N   UNL     1       2.267   6.853  19.737  0.00  0.00    +0.000 N 
ATOM      4  C   UNL     1       3.205   6.280  18.887  0.00  0.00    +0.000 A 
ATOM      5  C   UNL     1       3.299   4.976  19.305  0.00  0.00    +0.000 A 
ATOM      6  C   UNL     1       4.114   3.979  18.691  0.00  0.00    +0.000 C 
ATOM      7  O   UNL     1       4.216   2.791  18.983  0.00  0.00    +0.000 OA
ATOM      8  C   UNL     1       4.779   4.469  17.434  0.00  0.00    +0.000 A 
ATOM      9  C   UNL     1       5.477   3.552  16.634  0.00  0.00    +0.000 A 
ATOM     10  C   UNL     1       5.959   3.932  15.376  0.00  0.00    +0.000 A 
ATOM     11  C   UNL     1       5.753   5.228  14.908  0.00  0.00    +0.000 A 
ATOM     12  C   UNL     1       5.108   6.162  15.714  0.00  0.00    +0.000 A 
ATOM     13  C   UNL     1       4.632   5.794  16.984  0.00  0.00    +0.000 A 
ATOM     14  C   UNL     1       3.933   6.831  17.796  0.00  0.00    +0.000 C 
ATOM     15  O   UNL     1       4.004   7.999  17.423  0.00  0.00    +0.000 OA
ENDROOT
BRANCH   3  16
ATOM     16  C   UNL     1       1.630   8.165  19.754  0.00  0.00    +0.000 A 
ATOM     17  C   UNL     1       1.472   8.872  18.567  0.00  0.00    +0.000 A 
ATOM     18  C   UNL     1       1.006  10.190  18.618  0.00  0.00    +0.000 A 
ATOM     19  C   UNL     1       0.685  10.791  19.839  0.00  0.00    +0.000 A 
ATOM     20  C   UNL     1       0.797  10.055  21.017  0.00  0.00    +0.000 A 
ATOM     21  C   UNL     1       1.277   8.739  20.976  0.00  0.00    +0.000 A 
BRANCH  19  22
ATOM     22  O   UNL     1       0.340  12.110  19.749  0.00  0.00    +0.000 OA
ATOM     23  C   UNL     1      -0.429  12.507  18.620  0.00  0.00    +0.000 C 
ENDBRANCH  19  22
ENDBRANCH   3  16
BRANCH   1  25
ATOM     24  C   UNL     1       1.201   2.782  20.954  0.00  0.00    +0.000 C 
ATOM     25  C   UNL     1       2.279   3.777  21.333  0.00  0.00    +0.000 C 
ENDBRANCH   1  25
TORSDOF 3
ENDMDL
MODEL 4
REMARK VINA RESULT:      -8.0      1.937      6.590
REMARK  Name = 
REMARK  5 active torsions:
REMARK  status: ('A' for Active; 'I' for Inactive)
REMARK    1  A    between atoms: C_1  and  C_2
REMARK    2  A    between atoms: C_2  and  N_3
REMARK    3  A    between atoms: N_5  and  C_6
REMARK    4  A    between atoms: C_9  and  O_10
REMARK    5  A    between atoms: O_10  and  C_11
REMARK                            x       y       z     vdW  Elec       q    Type
REMARK                         _______ _______ _______ _____ _____    ______ ____
ROOT
ATOM      1  N   UNL     1       2.849   5.242  20.260  0.00  0.00    +0.000 N 
ATOM      2  N   UNL     1       3.759   4.743  19.433  0.00  0.00    +0.000 NA
ATOM      3  N   UNL     1       3.846   5.682  18.498  0.00  0.00    +0.000 N 
ATOM      4  C   UNL     1       2.987   6.759  18.684  0.00  0.00    +0.000 A 
ATOM      5  C   UNL     1       2.325   6.475  19.853  0.00  0.00    +0.000 A 
ATOM      6  C   UNL     1       1.368   7.329  20.475  0.00  0.00    +0.000 C 
ATOM      7  O   UNL     1       0.770   7.161  21.534  0.00  0.00    +0.000 OA
ATOM      8  C   UNL     1       1.241   8.658  19.783  0.00  0.00    +0.000 A 
ATOM      9  C   UNL     1       0.460   9.662  20.377  0.00  0.00    +0.000 A 
ATOM     10  C   UNL     1       0.459  10.960  19.856  0.00  0.00    +0.000 A 
ATOM     11  C   UNL     1       1.230  11.269  18.738  0.00  0.00    +0.000 A 
ATOM     12  C   UNL     1       1.968  10.270  18.107  0.00  0.00    +0.000 A 
ATOM     13  C   UNL     1       1.966   8.959  18.615  0.00  0.00    +0.000 A 
ATOM     14  C   UNL     1       2.788   7.936  17.910  0.00  0.00    +0.000 C 
ATOM     15  O   UNL     1       3.241   8.222  16.805  0.00  0.00    +0.000 OA
ENDROOT
BRANCH   3  16
ATOM     16  C   UNL     1       4.898   5.422  17.523  0.00  0.00    +0.000 A 
ATOM     17  C   UNL     1       6.124   6.068  17.640  0.00  0.00    +0.000 A 
ATOM     18  C   UNL     1       7.065   5.933  16.614  0.00  0.00    +0.000 A 
ATOM     19  C   UNL     1       6.793   5.147  15.490  0.00  0.00    +0.000 A 
ATOM     20  C   UNL     1       5.581   4.463  15.408  0.00  0.00    +0.000 A 
ATOM     21  C   UNL     1       4.628   4.605  16.424  0.00  0.00    +0.000 A 
BRANCH  19  22
ATOM     22  O   UNL     1       7.757   5.186  14.522  0.00  0.00    +0.000 OA
ATOM     23  C   UNL     1       7.368   4.832  13.201  0.00  0.00    +0.000 C 
ENDBRANCH  19  22
ENDBRANCH   3  16
BRANCH   1  25
ATOM     24  C   UNL     1       1.247   3.427  20.854  0.00  0.00    +0.000 C 
ATOM     25  C   UNL     1       2.331   4.374  21.328  0.00  0.00    +0.000 C 
ENDBRANCH   1  25
TORSDOF 3
ENDMDL
MODEL 5
REMARK VINA RESULT:      -7.6      1.894      6.696
REMARK  Name = 
REMARK  5 active torsions:
REMARK  status: ('A' for Active; 'I' for Inactive)
REMARK    1  A    between atoms: C_1  and  C_2
REMARK    2  A    between atoms: C_2  and  N_3
REMARK    3  A    between atoms: N_5  and  C_6
REMARK    4  A    between atoms: C_9  and  O_10
REMARK    5  A    between atoms: O_10  and  C_11
REMARK                            x       y       z     vdW  Elec       q    Type
REMARK                         _______ _______ _______ _____ _____    ______ ____
ROOT
ATOM      1  N   UNL     1       2.754   5.411  20.179  0.00  0.00    +0.000 N 
ATOM      2  N   UNL     1       3.635   4.965  19.292  0.00  0.00    +0.000 NA
ATOM      3  N   UNL     1       3.679   5.954  18.406  0.00  0.00    +0.000 N 
ATOM      4  C   UNL     1       2.821   7.011  18.683  0.00  0.00    +0.000 A 
ATOM      5  C   UNL     1       2.206   6.659  19.859  0.00  0.00    +0.000 A 
ATOM      6  C   UNL     1       1.267   7.470  20.562  0.00  0.00    +0.000 C 
ATOM      7  O   UNL     1       0.712   7.240  21.633  0.00  0.00    +0.000 OA
ATOM      8  C   UNL     1       1.104   8.833  19.948  0.00  0.00    +0.000 A 
ATOM      9  C   UNL     1       0.340   9.796  20.625  0.00  0.00    +0.000 A 
ATOM     10  C   UNL     1       0.309  11.121  20.175  0.00  0.00    +0.000 A 
ATOM     11  C   UNL     1       1.034  11.496  19.046  0.00  0.00    +0.000 A 
ATOM     12  C   UNL     1       1.754  10.539  18.335  0.00  0.00    +0.000 A 
ATOM     13  C   UNL     1       1.781   9.203  18.771  0.00  0.00    +0.000 A 
ATOM     14  C   UNL     1       2.583   8.226  17.981  0.00  0.00    +0.000 C 
ATOM     15  O   UNL     1       2.990   8.576  16.876  0.00  0.00    +0.000 OA
ENDROOT
BRANCH   3  16
ATOM     16  C   UNL     1       4.694   5.757  17.379  0.00  0.00    +0.000 A 
ATOM     17  C   UNL     1       4.516   4.775  16.410  0.00  0.00    +0.000 A 
ATOM     18  C   UNL     1       5.564   4.490  15.529  0.00  0.00    +0.000 A 
ATOM     19  C   UNL     1       6.773   5.190  15.602  0.00  0.00    +0.000 A 
ATOM     20  C   UNL     1       6.921   6.207  16.543  0.00  0.00    +0.000 A 
ATOM     21  C   UNL     1       5.881   6.489  17.438  0.00  0.00    +0.000 A 
BRANCH  19  22
ATOM     22  O   UNL     1       7.742   4.740  14.750  0.00  0.00    +0.000 OA
ATOM     23  C   UNL     1       7.496   4.874  13.356  0.00  0.00    +0.000 C 
ENDBRANCH  19  22
ENDBRANCH   3  16
BRANCH   1  25
ATOM     24  C   UNL     1       1.147   3.594  20.754  0.00  0.00    +0.000 C 
ATOM     25  C   UNL     1       2.284   4.483  21.217  0.00  0.00    +0.000 C 
ENDBRANCH   1  25
TORSDOF 3
ENDMDL
MODEL 6
REMARK VINA RESULT:      -7.3      2.261      6.617
REMARK  Name = 
REMARK  5 active torsions:
REMARK  status: ('A' for Active; 'I' for Inactive)
REMARK    1  A    between atoms: C_1  and  C_2
REMARK    2  A    between atoms: C_2  and  N_3
REMARK    3  A    between atoms: N_5  and  C_6
REMARK    4  A    between atoms: C_9  and  O_10
REMARK    5  A    between atoms: O_10  and  C_11
REMARK                            x       y       z     vdW  Elec       q    Type
REMARK                         _______ _______ _______ _____ _____    ______ ____
ROOT
ATOM      1  N   UNL     1       3.976   3.423  19.645  0.00  0.00    +0.000 N 
ATOM      2  N   UNL     1       4.809   3.272  18.622  0.00  0.00    +0.000 NA
ATOM      3  N   UNL     1       4.628   4.393  17.934  0.00  0.00    +0.000 N 
ATOM      4  C   UNL     1       3.672   5.248  18.469  0.00  0.00    +0.000 A 
ATOM      5  C   UNL     1       3.237   4.613  19.606  0.00  0.00    +0.000 A 
ATOM      6  C   UNL     1       2.280   5.142  20.520  0.00  0.00    +0.000 C 
ATOM      7  O   UNL     1       1.877   4.652  21.571  0.00  0.00    +0.000 OA
ATOM      8  C   UNL     1       1.875   6.551  20.184  0.00  0.00    +0.000 A 
ATOM      9  C   UNL     1       1.067   7.259  21.086  0.00  0.00    +0.000 A 
ATOM     10  C   UNL     1       0.814   8.622  20.893  0.00  0.00    +0.000 A 
ATOM     11  C   UNL     1       1.360   9.288  19.797  0.00  0.00    +0.000 A 
ATOM     12  C   UNL     1       2.120   8.586  18.866  0.00  0.00    +0.000 A 
ATOM     13  C   UNL     1       2.369   7.214  19.044  0.00  0.00    +0.000 A 
ATOM     14  C   UNL     1       3.204   6.517  18.026  0.00  0.00    +0.000 C 
ATOM     15  O   UNL     1       3.442   7.107  16.975  0.00  0.00    +0.000 OA
ENDROOT
BRANCH   3  16
ATOM     16  C   UNL     1       5.546   4.528  16.809  0.00  0.00    +0.000 A 
ATOM     17  C   UNL     1       6.695   5.300  16.943  0.00  0.00    +0.000 A 
ATOM     18  C   UNL     1       7.482   5.550  15.815  0.00  0.00    +0.000 A 
ATOM     19  C   UNL     1       7.136   5.021  14.567  0.00  0.00    +0.000 A 
ATOM     20  C   UNL     1       6.011   4.206  14.455  0.00  0.00    +0.000 A 
ATOM     21  C   UNL     1       5.210   3.963  15.578  0.00  0.00    +0.000 A 
BRANCH  19  22
ATOM     22  O   UNL     1       7.935   5.428  13.536  0.00  0.00    +0.000 OA
ATOM     23  C   UNL     1       7.567   5.015  12.225  0.00  0.00    +0.000 C 
ENDBRANCH  19  22
ENDBRANCH   3  16
BRANCH   1  25
ATOM     24  C   UNL     1       5.005   1.488  20.832  0.00  0.00    +0.000 C 
ATOM     25  C   UNL     1       3.745   2.271  20.528  0.00  0.00    +0.000 C 
ENDBRANCH   1  25
TORSDOF 3
ENDMDL
MODEL 7
REMARK VINA RESULT:      -7.1      2.004      4.150
REMARK  Name = 
REMARK  5 active torsions:
REMARK  status: ('A' for Active; 'I' for Inactive)
REMARK    1  A    between atoms: C_1  and  C_2
REMARK    2  A    between atoms: C_2  and  N_3
REMARK    3  A    between atoms: N_5  and  C_6
REMARK    4  A    between atoms: C_9  and  O_10
REMARK    5  A    between atoms: O_10  and  C_11
REMARK                            x       y       z     vdW  Elec       q    Type
REMARK                         _______ _______ _______ _____ _____    ______ ____
ROOT
ATOM      1  N   UNL     1       4.228   6.899  17.612  0.00  0.00    +0.000 N 
ATOM      2  N   UNL     1       3.462   7.978  17.717  0.00  0.00    +0.000 NA
ATOM      3  N   UNL     1       2.535   7.590  18.586  0.00  0.00    +0.000 N 
ATOM      4  C   UNL     1       2.665   6.276  19.017  0.00  0.00    +0.000 A 
ATOM      5  C   UNL     1       3.787   5.811  18.377  0.00  0.00    +0.000 A 
ATOM      6  C   UNL     1       4.346   4.511  18.551  0.00  0.00    +0.000 C 
ATOM      7  O   UNL     1       5.364   4.044  18.046  0.00  0.00    +0.000 OA
ATOM      8  C   UNL     1       3.648   3.720  19.622  0.00  0.00    +0.000 A 
ATOM      9  C   UNL     1       4.190   2.487  20.018  0.00  0.00    +0.000 A 
ATOM     10  C   UNL     1       3.671   1.808  21.126  0.00  0.00    +0.000 A 
ATOM     11  C   UNL     1       2.606   2.347  21.844  0.00  0.00    +0.000 A 
ATOM     12  C   UNL     1       2.025   3.542  21.430  0.00  0.00    +0.000 A 
ATOM     13  C   UNL     1       2.530   4.227  20.311  0.00  0.00    +0.000 A 
ATOM     14  C   UNL     1       1.880   5.511  19.924  0.00  0.00    +0.000 C 
ATOM     15  O   UNL     1       0.807   5.794  20.450  0.00  0.00    +0.000 OA
ENDROOT
BRANCH   3  16
ATOM     16  C   UNL     1       1.631   8.666  18.975  0.00  0.00    +0.000 A 
ATOM     17  C   UNL     1       1.392   8.915  20.323  0.00  0.00    +0.000 A 
ATOM     18  C   UNL     1       0.406   9.840  20.679  0.00  0.00    +0.000 A 
ATOM     19  C   UNL     1      -0.324  10.523  19.701  0.00  0.00    +0.000 A 
ATOM     20  C   UNL     1      -0.040  10.304  18.354  0.00  0.00    +0.000 A 
ATOM     21  C   UNL     1       0.936   9.368  17.989  0.00  0.00    +0.000 A 
BRANCH  19  22
ATOM     22  O   UNL     1      -1.322  11.319  20.189  0.00  0.00    +0.000 OA
ATOM     23  C   UNL     1      -2.026  12.127  19.254  0.00  0.00    +0.000 C 
ENDBRANCH  19  22
ENDBRANCH   3  16
BRANCH   1  25
ATOM     24  C   UNL     1       6.657   7.112  17.096  0.00  0.00    +0.000 C 
ATOM     25  C   UNL     1       5.258   6.879  16.564  0.00  0.00    +0.000 C 
ENDBRANCH   1  25
TORSDOF 3
ENDMDL
MODEL 8
REMARK VINA RESULT:      -6.9      1.985      4.238
REMARK  Name = 
REMARK  5 active torsions:
REMARK  status: ('A' for Active; 'I' for Inactive)
REMARK    1  A    between atoms: C_1  and  C_2
REMARK    2  A    between atoms: C_2  and  N_3
REMARK    3  A    between atoms: N_5  and  C_6
REMARK    4  A    between atoms: C_9  and  O_10
REMARK    5  A    between atoms: O_10  and  C_11
REMARK                            x       y       z     vdW  Elec       q    Type
REMARK                         _______ _______ _______ _____ _____    ______ ____
ROOT
ATOM      1  N   UNL     1       4.228   6.908  17.621  0.00  0.00    +0.000 N 
ATOM      2  N   UNL     1       3.440   7.969  17.740  0.00  0.00    +0.000 NA
ATOM      3  N   UNL     1       2.522   7.552  18.604  0.00  0.00    +0.000 N 
ATOM      4  C   UNL     1       2.680   6.235  19.019  0.00  0.00    +0.000 A 
ATOM      5  C   UNL     1       3.811   5.802  18.373  0.00  0.00    +0.000 A 
ATOM      6  C   UNL     1       4.397   4.512  18.531  0.00  0.00    +0.000 C 
ATOM      7  O   UNL     1       5.424   4.072  18.020  0.00  0.00    +0.000 OA
ATOM      8  C   UNL     1       3.717   3.693  19.593  0.00  0.00    +0.000 A 
ATOM      9  C   UNL     1       4.285   2.468  19.974  0.00  0.00    +0.000 A 
ATOM     10  C   UNL     1       3.781   1.764  21.074  0.00  0.00    +0.000 A 
ATOM     11  C   UNL     1       2.705   2.272  21.799  0.00  0.00    +0.000 A 
ATOM     12  C   UNL     1       2.099   3.461  21.400  0.00  0.00    +0.000 A 
ATOM     13  C   UNL     1       2.589   4.168  20.289  0.00  0.00    +0.000 A 
ATOM     14  C   UNL     1       1.912   5.443  19.918  0.00  0.00    +0.000 C 
ATOM     15  O   UNL     1       0.834   5.698  20.448  0.00  0.00    +0.000 OA
ENDROOT
BRANCH   3  16
ATOM     16  C   UNL     1       1.596   8.604  19.007  0.00  0.00    +0.000 A 
ATOM     17  C   UNL     1       1.004   9.410  18.040  0.00  0.00    +0.000 A 
ATOM     18  C   UNL     1       0.244  10.512  18.447  0.00  0.00    +0.000 A 
ATOM     19  C   UNL     1       0.062  10.797  19.804  0.00  0.00    +0.000 A 
ATOM     20  C   UNL     1       0.617   9.952  20.763  0.00  0.00    +0.000 A 
ATOM     21  C   UNL     1       1.391   8.854  20.364  0.00  0.00    +0.000 A 
BRANCH  19  22
ATOM     22  O   UNL     1      -0.615  11.957  20.055  0.00  0.00    +0.000 OA
ATOM     23  C   UNL     1      -1.034  12.723  18.932  0.00  0.00    +0.000 C 
ENDBRANCH  19  22
ENDBRANCH   3  16
BRANCH   1  25
ATOM     24  C   UNL     1       6.655   7.159  17.108  0.00  0.00    +0.000 C 
ATOM     25  C   UNL     1       5.258   6.922  16.572  0.00  0.00    +0.000 C 
ENDBRANCH   1  25
TORSDOF 3
ENDMDL
MODEL 9
REMARK VINA RESULT:      -6.9      2.113      6.637
REMARK  Name = 
REMARK  5 active torsions:
REMARK  status: ('A' for Active; 'I' for Inactive)
REMARK    1  A    between atoms: C_1  and  C_2
REMARK    2  A    between atoms: C_2  and  N_3
REMARK    3  A    between atoms: N_5  and  C_6
REMARK    4  A    between atoms: C_9  and  O_10
REMARK    5  A    between atoms: O_10  and  C_11
REMARK                            x       y       z     vdW  Elec       q    Type
REMARK                         _______ _______ _______ _____ _____    ______ ____
ROOT
ATOM      1  N   UNL     1       3.681   3.771  19.396  0.00  0.00    +0.000 N 
ATOM      2  N   UNL     1       4.498   3.714  18.351  0.00  0.00    +0.000 NA
ATOM      3  N   UNL     1       4.330   4.904  17.787  0.00  0.00    +0.000 N 
ATOM      4  C   UNL     1       3.398   5.715  18.422  0.00  0.00    +0.000 A 
ATOM      5  C   UNL     1       2.965   4.971  19.492  0.00  0.00    +0.000 A 
ATOM      6  C   UNL     1       2.030   5.419  20.471  0.00  0.00    +0.000 C 
ATOM      7  O   UNL     1       1.630   4.828  21.470  0.00  0.00    +0.000 OA
ATOM      8  C   UNL     1       1.648   6.862  20.289  0.00  0.00    +0.000 A 
ATOM      9  C   UNL     1       0.864   7.486  21.272  0.00  0.00    +0.000 A 
ATOM     10  C   UNL     1       0.635   8.866  21.226  0.00  0.00    +0.000 A 
ATOM     11  C   UNL     1       1.180   9.633  20.199  0.00  0.00    +0.000 A 
ATOM     12  C   UNL     1       1.915   9.019  19.189  0.00  0.00    +0.000 A 
ATOM     13  C   UNL     1       2.140   7.631  19.219  0.00  0.00    +0.000 A 
ATOM     14  C   UNL     1       2.948   7.031  18.121  0.00  0.00    +0.000 C 
ATOM     15  O   UNL     1       3.185   7.723  17.134  0.00  0.00    +0.000 OA
ENDROOT
BRANCH   3  16
ATOM     16  C   UNL     1       5.236   5.139  16.669  0.00  0.00    +0.000 A 
ATOM     17  C   UNL     1       5.039   4.469  15.466  0.00  0.00    +0.000 A 
ATOM     18  C   UNL     1       6.002   4.583  14.458  0.00  0.00    +0.000 A 
ATOM     19  C   UNL     1       7.143   5.371  14.642  0.00  0.00    +0.000 A 
ATOM     20  C   UNL     1       7.304   6.079  15.831  0.00  0.00    +0.000 A 
ATOM     21  C   UNL     1       6.351   5.959  16.851  0.00  0.00    +0.000 A 
BRANCH  19  22
ATOM     22  O   UNL     1       8.046   5.311  13.618  0.00  0.00    +0.000 OA
ATOM     23  C   UNL     1       7.578   4.830  12.364  0.00  0.00    +0.000 C 
ENDBRANCH  19  22
ENDBRANCH   3  16
BRANCH   1  25
ATOM     24  C   UNL     1       2.167   1.823  19.748  0.00  0.00    +0.000 C 
ATOM     25  C   UNL     1       3.439   2.537  20.157  0.00  0.00    +0.000 C 
ENDBRANCH   1  25
TORSDOF 3
ENDMDL
