MODEL 1
REMARK VINA RESULT:      -6.5      0.000      0.000
REMARK  Name = 
REMARK  13 active torsions:
REMARK  status: ('A' for Active; 'I' for Inactive)
REMARK    1  A    between atoms: C_1  and  O_2
REMARK    2  A    between atoms: O_2  and  C_3
REMARK    3  A    between atoms: C_8  and  O_9
REMARK    4  A    between atoms: O_9  and  C_10
REMARK    5  A    between atoms: C_10  and  C_11
REMARK    6  A    between atoms: C_11  and  C_12
REMARK    7  A    between atoms: C_12  and  N_13
REMARK    8  A    between atoms: N_13  and  C_14
REMARK    9  A    between atoms: C_14  and  C_15
REMARK   10  A    between atoms: C_15  and  O_16
REMARK   11  A    between atoms: C_15  and  C_17
REMARK   12  A    between atoms: C_17  and  O_18
REMARK   13  A    between atoms: O_18  and  C_19
REMARK                            x       y       z     vdW  Elec       q    Type
REMARK                         _______ _______ _______ _____ _____    ______ ____
ROOT
ATOM      1  N   UNL     1       7.062   5.399  18.523  0.00  0.00    +0.000 NA
ATOM      2  H   UNL     1       7.215   4.876  19.381  0.00  0.00    +0.000 HD
ENDROOT
BRANCH   1   3
ATOM      3  C   UNL     1       7.328   4.505  17.390  0.00  0.00    +0.000 C 
BRANCH   3   4
ATOM      4  C   UNL     1       6.170   4.301  16.406  0.00  0.00    +0.000 C 
BRANCH   4   5
ATOM      5  C   UNL     1       4.920   3.687  17.033  0.00  0.00    +0.000 C 
BRANCH   5   6
ATOM      6  O   UNL     1       4.232   4.681  17.792  0.00  0.00    +0.000 OA
BRANCH   6  12
ATOM      7  C   UNL     1       2.400   4.950  19.388  0.00  0.00    +0.000 A 
ATOM      8  C   UNL     1       1.331   4.313  20.034  0.00  0.00    +0.000 A 
ATOM      9  C   UNL     1       0.884   3.057  19.609  0.00  0.00    +0.000 A 
ATOM     10  C   UNL     1       1.469   2.444  18.506  0.00  0.00    +0.000 A 
ATOM     11  C   UNL     1       2.535   3.064  17.856  0.00  0.00    +0.000 A 
ATOM     12  C   UNL     1       3.019   4.296  18.309  0.00  0.00    +0.000 A 
BRANCH   7  14
ATOM     13  C   UNL     1       2.379   7.330  19.191  0.00  0.00    +0.000 C 
ATOM     14  O   UNL     1       2.928   6.153  19.773  0.00  0.00    +0.000 OA
ENDBRANCH   7  14
ENDBRANCH   6  12
ENDBRANCH   5   6
ENDBRANCH   4   5
ENDBRANCH   3   4
ENDBRANCH   1   3
BRANCH   1  15
ATOM     15  C   UNL     1       7.902   6.613  18.496  0.00  0.00    +0.000 C 
BRANCH  15  16
ATOM     16  C   UNL     1       7.453   7.599  17.398  0.00  0.00    +0.000 C 
BRANCH  16  17
ATOM     17  O   UNL     1       6.020   7.634  17.366  0.00  0.00    +0.000 OA
ATOM     18  H   UNL     1       5.776   7.576  16.421  0.00  0.00    +0.000 HD
ENDBRANCH  16  17
BRANCH  16  19
ATOM     19  C   UNL     1       8.009   9.009  17.646  0.00  0.00    +0.000 C 
BRANCH  19  20
ATOM     20  O   UNL     1       8.686   9.042  18.904  0.00  0.00    +0.000 OA
BRANCH  20  21
ATOM     21  C   UNL     1       9.304  10.223  19.214  0.00  0.00    +0.000 A 
ATOM     22  C   UNL     1       9.658  10.995  18.108  0.00  0.00    +0.000 A 
ATOM     23  C   UNL     1      10.315  12.215  18.282  0.00  0.00    +0.000 A 
ATOM     24  C   UNL     1      10.608  12.673  19.565  0.00  0.00    +0.000 A 
ATOM     25  C   UNL     1      10.232  11.914  20.676  0.00  0.00    +0.000 A 
ATOM     26  C   UNL     1       9.579  10.691  20.501  0.00  0.00    +0.000 A 
ENDBRANCH  20  21
ENDBRANCH  19  20
ENDBRANCH  16  19
ENDBRANCH  15  16
ENDBRANCH   1  15
TORSDOF 12
ENDMDL
MODEL 2
REMARK VINA RESULT:      -6.5      1.685      9.587
REMARK  Name = 
REMARK  13 active torsions:
REMARK  status: ('A' for Active; 'I' for Inactive)
REMARK    1  A    between atoms: C_1  and  O_2
REMARK    2  A    between atoms: O_2  and  C_3
REMARK    3  A    between atoms: C_8  and  O_9
REMARK    4  A    between atoms: O_9  and  C_10
REMARK    5  A    between atoms: C_10  and  C_11
REMARK    6  A    between atoms: C_11  and  C_12
REMARK    7  A    between atoms: C_12  and  N_13
REMARK    8  A    between atoms: N_13  and  C_14
REMARK    9  A    between atoms: C_14  and  C_15
REMARK   10  A    between atoms: C_15  and  O_16
REMARK   11  A    between atoms: C_15  and  C_17
REMARK   12  A    between atoms: C_17  and  O_18
REMARK   13  A    between atoms: O_18  and  C_19
REMARK                            x       y       z     vdW  Elec       q    Type
REMARK                         _______ _______ _______ _____ _____    ______ ____
ROOT
ATOM      1  N   UNL     1       6.831   6.596  17.875  0.00  0.00    +0.000 NA
ATOM      2  H   UNL     1       6.017   7.204  17.920  0.00  0.00    +0.000 HD
ENDROOT
BRANCH   1   3
ATOM      3  C   UNL     1       8.000   7.364  18.314  0.00  0.00    +0.000 C 
BRANCH   3   4
ATOM      4  C   UNL     1       8.095   8.805  17.798  0.00  0.00    +0.000 C 
BRANCH   4   5
ATOM      5  C   UNL     1       8.896   9.739  18.703  0.00  0.00    +0.000 C 
BRANCH   5   6
ATOM      6  O   UNL     1       8.873  11.060  18.161  0.00  0.00    +0.000 OA
BRANCH   6  12
ATOM      7  C   UNL     1      10.234  13.059  18.519  0.00  0.00    +0.000 A 
ATOM      8  C   UNL     1      10.931  13.825  19.463  0.00  0.00    +0.000 A 
ATOM      9  C   UNL     1      10.774  13.588  20.833  0.00  0.00    +0.000 A 
ATOM     10  C   UNL     1       9.884  12.615  21.277  0.00  0.00    +0.000 A 
ATOM     11  C   UNL     1       9.186  11.844  20.349  0.00  0.00    +0.000 A 
ATOM     12  C   UNL     1       9.378  12.042  18.977  0.00  0.00    +0.000 A 
BRANCH   7  14
ATOM     13  C   UNL     1      11.685  13.350  16.644  0.00  0.00    +0.000 C 
ATOM     14  O   UNL     1      10.369  13.196  17.163  0.00  0.00    +0.000 OA
ENDBRANCH   7  14
ENDBRANCH   6  12
ENDBRANCH   5   6
ENDBRANCH   4   5
ENDBRANCH   3   4
ENDBRANCH   1   3
BRANCH   1  15
ATOM     15  C   UNL     1       6.993   6.043  16.516  0.00  0.00    +0.000 C 
BRANCH  15  16
ATOM     16  C   UNL     1       6.948   4.500  16.514  0.00  0.00    +0.000 C 
BRANCH  16  17
ATOM     17  O   UNL     1       7.343   4.025  17.808  0.00  0.00    +0.000 OA
ATOM     18  H   UNL     1       6.560   4.141  18.381  0.00  0.00    +0.000 HD
ENDBRANCH  16  17
BRANCH  16  19
ATOM     19  C   UNL     1       5.546   3.979  16.166  0.00  0.00    +0.000 C 
BRANCH  19  20
ATOM     20  O   UNL     1       4.562   4.764  16.842  0.00  0.00    +0.000 OA
BRANCH  20  21
ATOM     21  C   UNL     1       3.545   4.062  17.431  0.00  0.00    +0.000 A 
ATOM     22  C   UNL     1       3.867   2.744  17.754  0.00  0.00    +0.000 A 
ATOM     23  C   UNL     1       2.914   1.910  18.341  0.00  0.00    +0.000 A 
ATOM     24  C   UNL     1       1.638   2.396  18.620  0.00  0.00    +0.000 A 
ATOM     25  C   UNL     1       1.320   3.723  18.321  0.00  0.00    +0.000 A 
ATOM     26  C   UNL     1       2.273   4.556  17.729  0.00  0.00    +0.000 A 
ENDBRANCH  20  21
ENDBRANCH  19  20
ENDBRANCH  16  19
ENDBRANCH  15  16
ENDBRANCH   1  15
TORSDOF 12
ENDMDL
MODEL 3
REMARK VINA RESULT:      -6.5      4.551      7.631
REMARK  Name = 
REMARK  13 active torsions:
REMARK  status: ('A' for Active; 'I' for Inactive)
REMARK    1  A    between atoms: C_1  and  O_2
REMARK    2  A    between atoms: O_2  and  C_3
REMARK    3  A    between atoms: C_8  and  O_9
REMARK    4  A    between atoms: O_9  and  C_10
REMARK    5  A    between atoms: C_10  and  C_11
REMARK    6  A    between atoms: C_11  and  C_12
REMARK    7  A    between atoms: C_12  and  N_13
REMARK    8  A    between atoms: N_13  and  C_14
REMARK    9  A    between atoms: C_14  and  C_15
REMARK   10  A    between atoms: C_15  and  O_16
REMARK   11  A    between atoms: C_15  and  C_17
REMARK   12  A    between atoms: C_17  and  O_18
REMARK   13  A    between atoms: O_18  and  C_19
REMARK                            x       y       z     vdW  Elec       q    Type
REMARK                         _______ _______ _______ _____ _____    ______ ____
ROOT
ATOM      1  N   UNL     1       4.942   6.694  17.619  0.00  0.00    +0.000 NA
ATOM      2  H   UNL     1       5.150   6.458  18.586  0.00  0.00    +0.000 HD
ENDROOT
BRANCH   1   3
ATOM      3  C   UNL     1       3.599   7.282  17.570  0.00  0.00    +0.000 C 
BRANCH   3   4
ATOM      4  C   UNL     1       2.510   6.546  18.360  0.00  0.00    +0.000 C 
BRANCH   4   5
ATOM      5  C   UNL     1       2.182   7.182  19.709  0.00  0.00    +0.000 C 
BRANCH   5   6
ATOM      6  O   UNL     1       1.840   8.554  19.516  0.00  0.00    +0.000 OA
BRANCH   6  12
ATOM      7  C   UNL     1       0.021  10.086  20.085  0.00  0.00    +0.000 A 
ATOM      8  C   UNL     1      -0.643  10.751  21.125  0.00  0.00    +0.000 A 
ATOM      9  C   UNL     1      -0.406  10.406  22.461  0.00  0.00    +0.000 A 
ATOM     10  C   UNL     1       0.459   9.363  22.771  0.00  0.00    +0.000 A 
ATOM     11  C   UNL     1       1.129   8.695  21.747  0.00  0.00    +0.000 A 
ATOM     12  C   UNL     1       0.936   9.070  20.413  0.00  0.00    +0.000 A 
BRANCH   7  14
ATOM     13  C   UNL     1      -1.437  10.462  18.230  0.00  0.00    +0.000 C 
ATOM     14  O   UNL     1      -0.117  10.396  18.758  0.00  0.00    +0.000 OA
ENDBRANCH   7  14
ENDBRANCH   6  12
ENDBRANCH   5   6
ENDBRANCH   4   5
ENDBRANCH   3   4
ENDBRANCH   1   3
BRANCH   1  15
ATOM     15  C   UNL     1       5.074   5.506  16.753  0.00  0.00    +0.000 C 
BRANCH  15  16
ATOM     16  C   UNL     1       5.644   4.295  17.522  0.00  0.00    +0.000 C 
BRANCH  16  17
ATOM     17  O   UNL     1       7.052   4.206  17.266  0.00  0.00    +0.000 OA
ATOM     18  H   UNL     1       7.296   3.279  17.456  0.00  0.00    +0.000 HD
ENDBRANCH  16  17
BRANCH  16  19
ATOM     19  C   UNL     1       5.390   4.418  19.032  0.00  0.00    +0.000 C 
BRANCH  19  20
ATOM     20  O   UNL     1       4.864   3.187  19.531  0.00  0.00    +0.000 OA
BRANCH  20  21
ATOM     21  C   UNL     1       3.500   3.075  19.516  0.00  0.00    +0.000 A 
ATOM     22  C   UNL     1       2.862   3.659  20.610  0.00  0.00    +0.000 A 
ATOM     23  C   UNL     1       1.472   3.599  20.730  0.00  0.00    +0.000 A 
ATOM     24  C   UNL     1       0.714   2.966  19.747  0.00  0.00    +0.000 A 
ATOM     25  C   UNL     1       1.347   2.403  18.637  0.00  0.00    +0.000 A 
ATOM     26  C   UNL     1       2.739   2.459  18.519  0.00  0.00    +0.000 A 
ENDBRANCH  20  21
ENDBRANCH  19  20
ENDBRANCH  16  19
ENDBRANCH  15  16
ENDBRANCH   1  15
TORSDOF 12
ENDMDL
MODEL 4
REMARK VINA RESULT:      -6.4      3.231      5.580
REMARK  Name = 
REMARK  13 active torsions:
REMARK  status: ('A' for Active; 'I' for Inactive)
REMARK    1  A    between atoms: C_1  and  O_2
REMARK    2  A    between atoms: O_2  and  C_3
REMARK    3  A    between atoms: C_8  and  O_9
REMARK    4  A    between atoms: O_9  and  C_10
REMARK    5  A    between atoms: C_10  and  C_11
REMARK    6  A    between atoms: C_11  and  C_12
REMARK    7  A    between atoms: C_12  and  N_13
REMARK    8  A    between atoms: N_13  and  C_14
REMARK    9  A    between atoms: C_14  and  C_15
REMARK   10  A    between atoms: C_15  and  O_16
REMARK   11  A    between atoms: C_15  and  C_17
REMARK   12  A    between atoms: C_17  and  O_18
REMARK   13  A    between atoms: O_18  and  C_19
REMARK                            x       y       z     vdW  Elec       q    Type
REMARK                         _______ _______ _______ _____ _____    ______ ____
ROOT
ATOM      1  N   UNL     1       2.039   2.260  19.542  0.00  0.00    +0.000 NA
ATOM      2  H   UNL     1       1.535   3.014  19.082  0.00  0.00    +0.000 HD
ENDROOT
BRANCH   1   3
ATOM      3  C   UNL     1       2.540   2.764  20.825  0.00  0.00    +0.000 C 
BRANCH   3   4
ATOM      4  C   UNL     1       1.995   4.125  21.276  0.00  0.00    +0.000 C 
BRANCH   4   5
ATOM      5  C   UNL     1       2.325   5.274  20.325  0.00  0.00    +0.000 C 
BRANCH   5   6
ATOM      6  O   UNL     1       1.779   6.488  20.840  0.00  0.00    +0.000 OA
BRANCH   6  12
ATOM      7  C   UNL     1       1.077   8.731  20.168  0.00  0.00    +0.000 A 
ATOM      8  C   UNL     1       1.000   9.646  19.109  0.00  0.00    +0.000 A 
ATOM      9  C   UNL     1       1.689   9.415  17.913  0.00  0.00    +0.000 A 
ATOM     10  C   UNL     1       2.499   8.293  17.778  0.00  0.00    +0.000 A 
ATOM     11  C   UNL     1       2.582   7.373  18.822  0.00  0.00    +0.000 A 
ATOM     12  C   UNL     1       1.855   7.573  20.001  0.00  0.00    +0.000 A 
BRANCH   7  14
ATOM     13  C   UNL     1       1.103   9.386  22.465  0.00  0.00    +0.000 C 
ATOM     14  O   UNL     1       0.395   8.859  21.349  0.00  0.00    +0.000 OA
ENDBRANCH   7  14
ENDBRANCH   6  12
ENDBRANCH   5   6
ENDBRANCH   4   5
ENDBRANCH   3   4
ENDBRANCH   1   3
BRANCH   1  15
ATOM     15  C   UNL     1       3.117   1.749  18.673  0.00  0.00    +0.000 C 
BRANCH  15  16
ATOM     16  C   UNL     1       3.564   2.798  17.634  0.00  0.00    +0.000 C 
BRANCH  16  17
ATOM     17  O   UNL     1       2.491   3.724  17.420  0.00  0.00    +0.000 OA
ATOM     18  H   UNL     1       2.724   4.520  17.937  0.00  0.00    +0.000 HD
ENDBRANCH  16  17
BRANCH  16  19
ATOM     19  C   UNL     1       4.823   3.546  18.097  0.00  0.00    +0.000 C 
BRANCH  19  20
ATOM     20  O   UNL     1       4.724   4.923  17.728  0.00  0.00    +0.000 OA
BRANCH  20  21
ATOM     21  C   UNL     1       5.845   5.678  17.948  0.00  0.00    +0.000 A 
ATOM     22  C   UNL     1       5.919   6.838  17.177  0.00  0.00    +0.000 A 
ATOM     23  C   UNL     1       7.021   7.688  17.288  0.00  0.00    +0.000 A 
ATOM     24  C   UNL     1       8.047   7.388  18.182  0.00  0.00    +0.000 A 
ATOM     25  C   UNL     1       7.964   6.240  18.974  0.00  0.00    +0.000 A 
ATOM     26  C   UNL     1       6.863   5.387  18.859  0.00  0.00    +0.000 A 
ENDBRANCH  20  21
ENDBRANCH  19  20
ENDBRANCH  16  19
ENDBRANCH  15  16
ENDBRANCH   1  15
TORSDOF 12
ENDMDL
MODEL 5
REMARK VINA RESULT:      -6.4      1.770      9.357
REMARK  Name = 
REMARK  13 active torsions:
REMARK  status: ('A' for Active; 'I' for Inactive)
REMARK    1  A    between atoms: C_1  and  O_2
REMARK    2  A    between atoms: O_2  and  C_3
REMARK    3  A    between atoms: C_8  and  O_9
REMARK    4  A    between atoms: O_9  and  C_10
REMARK    5  A    between atoms: C_10  and  C_11
REMARK    6  A    between atoms: C_11  and  C_12
REMARK    7  A    between atoms: C_12  and  N_13
REMARK    8  A    between atoms: N_13  and  C_14
REMARK    9  A    between atoms: C_14  and  C_15
REMARK   10  A    between atoms: C_15  and  O_16
REMARK   11  A    between atoms: C_15  and  C_17
REMARK   12  A    between atoms: C_17  and  O_18
REMARK   13  A    between atoms: O_18  and  C_19
REMARK                            x       y       z     vdW  Elec       q    Type
REMARK                         _______ _______ _______ _____ _____    ______ ____
ROOT
ATOM      1  N   UNL     1       7.539   6.576  17.053  0.00  0.00    +0.000 NA
ATOM      2  H   UNL     1       8.159   5.770  17.065  0.00  0.00    +0.000 HD
ENDROOT
BRANCH   1   3
ATOM      3  C   UNL     1       8.034   7.549  18.033  0.00  0.00    +0.000 C 
BRANCH   3   4
ATOM      4  C   UNL     1       7.683   9.017  17.764  0.00  0.00    +0.000 C 
BRANCH   4   5
ATOM      5  C   UNL     1       8.830   9.991  18.033  0.00  0.00    +0.000 C 
BRANCH   5   6
ATOM      6  O   UNL     1       9.170   9.952  19.418  0.00  0.00    +0.000 OA
BRANCH   6  12
ATOM      7  C   UNL     1       9.490  11.747  21.048  0.00  0.00    +0.000 A 
ATOM      8  C   UNL     1      10.060  13.007  21.277  0.00  0.00    +0.000 A 
ATOM      9  C   UNL     1      10.982  13.550  20.376  0.00  0.00    +0.000 A 
ATOM     10  C   UNL     1      11.382  12.821  19.261  0.00  0.00    +0.000 A 
ATOM     11  C   UNL     1      10.821  11.569  19.018  0.00  0.00    +0.000 A 
ATOM     12  C   UNL     1       9.860  11.043  19.888  0.00  0.00    +0.000 A 
BRANCH   7  14
ATOM     13  C   UNL     1       7.857  12.010  22.771  0.00  0.00    +0.000 C 
ATOM     14  O   UNL     1       8.545  11.169  21.853  0.00  0.00    +0.000 OA
ENDBRANCH   7  14
ENDBRANCH   6  12
ENDBRANCH   5   6
ENDBRANCH   4   5
ENDBRANCH   3   4
ENDBRANCH   1   3
BRANCH   1  15
ATOM     15  C   UNL     1       6.146   6.165  17.315  0.00  0.00    +0.000 C 
BRANCH  15  16
ATOM     16  C   UNL     1       6.058   4.698  17.787  0.00  0.00    +0.000 C 
BRANCH  16  17
ATOM     17  O   UNL     1       7.387   4.180  17.935  0.00  0.00    +0.000 OA
ATOM     18  H   UNL     1       7.296   3.208  17.902  0.00  0.00    +0.000 HD
ENDBRANCH  16  17
BRANCH  16  19
ATOM     19  C   UNL     1       5.296   4.580  19.115  0.00  0.00    +0.000 C 
BRANCH  19  20
ATOM     20  O   UNL     1       4.763   3.261  19.246  0.00  0.00    +0.000 OA
BRANCH  20  21
ATOM     21  C   UNL     1       3.438   3.187  19.582  0.00  0.00    +0.000 A 
ATOM     22  C   UNL     1       2.565   3.236  18.496  0.00  0.00    +0.000 A 
ATOM     23  C   UNL     1       1.184   3.192  18.700  0.00  0.00    +0.000 A 
ATOM     24  C   UNL     1       0.672   3.082  19.991  0.00  0.00    +0.000 A 
ATOM     25  C   UNL     1       1.545   3.007  21.080  0.00  0.00    +0.000 A 
ATOM     26  C   UNL     1       2.927   3.057  20.875  0.00  0.00    +0.000 A 
ENDBRANCH  20  21
ENDBRANCH  19  20
ENDBRANCH  16  19
ENDBRANCH  15  16
ENDBRANCH   1  15
TORSDOF 12
ENDMDL
MODEL 6
REMARK VINA RESULT:      -6.4      1.461      9.078
REMARK  Name = 
REMARK  13 active torsions:
REMARK  status: ('A' for Active; 'I' for Inactive)
REMARK    1  A    between atoms: C_1  and  O_2
REMARK    2  A    between atoms: O_2  and  C_3
REMARK    3  A    between atoms: C_8  and  O_9
REMARK    4  A    between atoms: O_9  and  C_10
REMARK    5  A    between atoms: C_10  and  C_11
REMARK    6  A    between atoms: C_11  and  C_12
REMARK    7  A    between atoms: C_12  and  N_13
REMARK    8  A    between atoms: N_13  and  C_14
REMARK    9  A    between atoms: C_14  and  C_15
REMARK   10  A    between atoms: C_15  and  O_16
REMARK   11  A    between atoms: C_15  and  C_17
REMARK   12  A    between atoms: C_17  and  O_18
REMARK   13  A    between atoms: O_18  and  C_19
REMARK                            x       y       z     vdW  Elec       q    Type
REMARK                         _______ _______ _______ _____ _____    ______ ____
ROOT
ATOM      1  N   UNL     1       7.762   5.400  17.445  0.00  0.00    +0.000 NA
ATOM      2  H   UNL     1       8.229   5.359  18.347  0.00  0.00    +0.000 HD
ENDROOT
BRANCH   1   3
ATOM      3  C   UNL     1       7.546   6.811  17.107  0.00  0.00    +0.000 C 
BRANCH   3   4
ATOM      4  C   UNL     1       7.934   7.831  18.184  0.00  0.00    +0.000 C 
BRANCH   4   5
ATOM      5  C   UNL     1       8.300   9.209  17.634  0.00  0.00    +0.000 C 
BRANCH   5   6
ATOM      6  O   UNL     1       8.321  10.156  18.701  0.00  0.00    +0.000 OA
BRANCH   6  12
ATOM      7  C   UNL     1       9.919  11.173  20.246  0.00  0.00    +0.000 A 
ATOM      8  C   UNL     1      11.051  11.992  20.360  0.00  0.00    +0.000 A 
ATOM      9  C   UNL     1      11.798  12.342  19.229  0.00  0.00    +0.000 A 
ATOM     10  C   UNL     1      11.451  11.838  17.980  0.00  0.00    +0.000 A 
ATOM     11  C   UNL     1      10.326  11.026  17.851  0.00  0.00    +0.000 A 
ATOM     12  C   UNL     1       9.546  10.715  18.970  0.00  0.00    +0.000 A 
BRANCH   7  14
ATOM     13  C   UNL     1       8.573  11.879  22.089  0.00  0.00    +0.000 C 
ATOM     14  O   UNL     1       9.109  10.827  21.294  0.00  0.00    +0.000 OA
ENDBRANCH   7  14
ENDBRANCH   6  12
ENDBRANCH   5   6
ENDBRANCH   4   5
ENDBRANCH   3   4
ENDBRANCH   1   3
BRANCH   1  15
ATOM     15  C   UNL     1       6.506   4.624  17.473  0.00  0.00    +0.000 C 
BRANCH  15  16
ATOM     16  C   UNL     1       5.783   4.751  18.830  0.00  0.00    +0.000 C 
BRANCH  16  17
ATOM     17  O   UNL     1       6.729   5.175  19.821  0.00  0.00    +0.000 OA
ATOM     18  H   UNL     1       6.973   6.090  19.577  0.00  0.00    +0.000 HD
ENDBRANCH  16  17
BRANCH  16  19
ATOM     19  C   UNL     1       4.616   5.747  18.754  0.00  0.00    +0.000 C 
BRANCH  19  20
ATOM     20  O   UNL     1       3.751   5.558  19.875  0.00  0.00    +0.000 OA
BRANCH  20  21
ATOM     21  C   UNL     1       2.814   4.570  19.741  0.00  0.00    +0.000 A 
ATOM     22  C   UNL     1       2.294   4.440  18.453  0.00  0.00    +0.000 A 
ATOM     23  C   UNL     1       1.314   3.484  18.183  0.00  0.00    +0.000 A 
ATOM     24  C   UNL     1       0.860   2.643  19.197  0.00  0.00    +0.000 A 
ATOM     25  C   UNL     1       1.397   2.753  20.482  0.00  0.00    +0.000 A 
ATOM     26  C   UNL     1       2.375   3.714  20.754  0.00  0.00    +0.000 A 
ENDBRANCH  20  21
ENDBRANCH  19  20
ENDBRANCH  16  19
ENDBRANCH  15  16
ENDBRANCH   1  15
TORSDOF 12
ENDMDL
MODEL 7
REMARK VINA RESULT:      -6.4      1.506      9.344
REMARK  Name = 
REMARK  13 active torsions:
REMARK  status: ('A' for Active; 'I' for Inactive)
REMARK    1  A    between atoms: C_1  and  O_2
REMARK    2  A    between atoms: O_2  and  C_3
REMARK    3  A    between atoms: C_8  and  O_9
REMARK    4  A    between atoms: O_9  and  C_10
REMARK    5  A    between atoms: C_10  and  C_11
REMARK    6  A    between atoms: C_11  and  C_12
REMARK    7  A    between atoms: C_12  and  N_13
REMARK    8  A    between atoms: N_13  and  C_14
REMARK    9  A    between atoms: C_14  and  C_15
REMARK   10  A    between atoms: C_15  and  O_16
REMARK   11  A    between atoms: C_15  and  C_17
REMARK   12  A    between atoms: C_17  and  O_18
REMARK   13  A    between atoms: O_18  and  C_19
REMARK                            x       y       z     vdW  Elec       q    Type
REMARK                         _______ _______ _______ _____ _____    ______ ____
ROOT
ATOM      1  N   UNL     1       6.426   6.208  17.873  0.00  0.00    +0.000 NA
ATOM      2  H   UNL     1       5.984   6.702  18.644  0.00  0.00    +0.000 HD
ENDROOT
BRANCH   1   3
ATOM      3  C   UNL     1       7.667   6.913  17.533  0.00  0.00    +0.000 C 
BRANCH   3   4
ATOM      4  C   UNL     1       7.621   8.443  17.620  0.00  0.00    +0.000 C 
BRANCH   4   5
ATOM      5  C   UNL     1       8.656   9.044  18.570  0.00  0.00    +0.000 C 
BRANCH   5   6
ATOM      6  O   UNL     1       8.729  10.454  18.362  0.00  0.00    +0.000 OA
BRANCH   6  12
ATOM      7  C   UNL     1       9.932  11.553  20.185  0.00  0.00    +0.000 A 
ATOM      8  C   UNL     1      10.981  12.422  20.515  0.00  0.00    +0.000 A 
ATOM      9  C   UNL     1      11.930  12.794  19.556  0.00  0.00    +0.000 A 
ATOM     10  C   UNL     1      11.869  12.266  18.271  0.00  0.00    +0.000 A 
ATOM     11  C   UNL     1      10.829  11.404  17.928  0.00  0.00    +0.000 A 
ATOM     12  C   UNL     1       9.849  11.069  18.868  0.00  0.00    +0.000 A 
BRANCH   7  14
ATOM     13  C   UNL     1       8.663  12.041  22.149  0.00  0.00    +0.000 C 
ATOM     14  O   UNL     1       8.938  11.181  21.050  0.00  0.00    +0.000 OA
ENDBRANCH   7  14
ENDBRANCH   6  12
ENDBRANCH   5   6
ENDBRANCH   4   5
ENDBRANCH   3   4
ENDBRANCH   1   3
BRANCH   1  15
ATOM     15  C   UNL     1       5.503   6.099  16.727  0.00  0.00    +0.000 C 
BRANCH  15  16
ATOM     16  C   UNL     1       5.363   4.642  16.239  0.00  0.00    +0.000 C 
BRANCH  16  17
ATOM     17  O   UNL     1       6.569   3.932  16.551  0.00  0.00    +0.000 OA
ATOM     18  H   UNL     1       6.711   4.061  17.509  0.00  0.00    +0.000 HD
ENDBRANCH  16  17
BRANCH  16  19
ATOM     19  C   UNL     1       4.158   3.946  16.890  0.00  0.00    +0.000 C 
BRANCH  19  20
ATOM     20  O   UNL     1       4.222   4.104  18.308  0.00  0.00    +0.000 OA
BRANCH  20  21
ATOM     21  C   UNL     1       3.064   3.836  18.987  0.00  0.00    +0.000 A 
ATOM     22  C   UNL     1       2.234   2.902  18.366  0.00  0.00    +0.000 A 
ATOM     23  C   UNL     1       1.012   2.553  18.942  0.00  0.00    +0.000 A 
ATOM     24  C   UNL     1       0.620   3.127  20.151  0.00  0.00    +0.000 A 
ATOM     25  C   UNL     1       1.460   4.044  20.788  0.00  0.00    +0.000 A 
ATOM     26  C   UNL     1       2.682   4.396  20.208  0.00  0.00    +0.000 A 
ENDBRANCH  20  21
ENDBRANCH  19  20
ENDBRANCH  16  19
ENDBRANCH  15  16
ENDBRANCH   1  15
TORSDOF 12
ENDMDL
MODEL 8
REMARK VINA RESULT:      -6.4      3.986      6.030
REMARK  Name = 
REMARK  13 active torsions:
REMARK  status: ('A' for Active; 'I' for Inactive)
REMARK    1  A    between atoms: C_1  and  O_2
REMARK    2  A    between atoms: O_2  and  C_3
REMARK    3  A    between atoms: C_8  and  O_9
REMARK    4  A    between atoms: O_9  and  C_10
REMARK    5  A    between atoms: C_10  and  C_11
REMARK    6  A    between atoms: C_11  and  C_12
REMARK    7  A    between atoms: C_12  and  N_13
REMARK    8  A    between atoms: N_13  and  C_14
REMARK    9  A    between atoms: C_14  and  C_15
REMARK   10  A    between atoms: C_15  and  O_16
REMARK   11  A    between atoms: C_15  and  C_17
REMARK   12  A    between atoms: C_17  and  O_18
REMARK   13  A    between atoms: O_18  and  C_19
REMARK                            x       y       z     vdW  Elec       q    Type
REMARK                         _______ _______ _______ _____ _____    ______ ____
ROOT
ATOM      1  N   UNL     1       4.496   5.864  17.344  0.00  0.00    +0.000 NA
ATOM      2  H   UNL     1       4.840   5.664  16.408  0.00  0.00    +0.000 HD
ENDROOT
BRANCH   1   3
ATOM      3  C   UNL     1       4.242   7.305  17.438  0.00  0.00    +0.000 C 
BRANCH   3   4
ATOM      4  C   UNL     1       2.873   7.715  17.997  0.00  0.00    +0.000 C 
BRANCH   4   5
ATOM      5  C   UNL     1       2.383   6.839  19.148  0.00  0.00    +0.000 C 
BRANCH   5   6
ATOM      6  O   UNL     1       1.900   5.600  18.630  0.00  0.00    +0.000 OA
BRANCH   6  12
ATOM      7  C   UNL     1       1.768   3.197  19.063  0.00  0.00    +0.000 A 
ATOM      8  C   UNL     1       1.632   2.209  20.048  0.00  0.00    +0.000 A 
ATOM      9  C   UNL     1       1.758   2.530  21.405  0.00  0.00    +0.000 A 
ATOM     10  C   UNL     1       2.069   3.829  21.790  0.00  0.00    +0.000 A 
ATOM     11  C   UNL     1       2.204   4.823  20.822  0.00  0.00    +0.000 A 
ATOM     12  C   UNL     1       2.028   4.519  19.468  0.00  0.00    +0.000 A 
BRANCH   7  14
ATOM     13  C   UNL     1       2.780   2.721  16.952  0.00  0.00    +0.000 C 
ATOM     14  O   UNL     1       1.610   2.976  17.721  0.00  0.00    +0.000 OA
ENDBRANCH   7  14
ENDBRANCH   6  12
ENDBRANCH   5   6
ENDBRANCH   4   5
ENDBRANCH   3   4
ENDBRANCH   1   3
BRANCH   1  15
ATOM     15  C   UNL     1       5.453   5.389  18.362  0.00  0.00    +0.000 C 
BRANCH  15  16
ATOM     16  C   UNL     1       6.913   5.497  17.874  0.00  0.00    +0.000 C 
BRANCH  16  17
ATOM     17  O   UNL     1       7.563   4.235  18.076  0.00  0.00    +0.000 OA
ATOM     18  H   UNL     1       7.853   3.943  17.190  0.00  0.00    +0.000 HD
ENDBRANCH  16  17
BRANCH  16  19
ATOM     19  C   UNL     1       6.982   5.893  16.392  0.00  0.00    +0.000 C 
BRANCH  19  20
ATOM     20  O   UNL     1       7.717   4.907  15.666  0.00  0.00    +0.000 OA
BRANCH  20  21
ATOM     21  C   UNL     1       7.238   4.609  14.418  0.00  0.00    +0.000 A 
ATOM     22  C   UNL     1       6.055   3.870  14.417  0.00  0.00    +0.000 A 
ATOM     23  C   UNL     1       5.470   3.480  13.211  0.00  0.00    +0.000 A 
ATOM     24  C   UNL     1       6.058   3.842  12.000  0.00  0.00    +0.000 A 
ATOM     25  C   UNL     1       7.229   4.604  11.998  0.00  0.00    +0.000 A 
ATOM     26  C   UNL     1       7.817   4.990  13.206  0.00  0.00    +0.000 A 
ENDBRANCH  20  21
ENDBRANCH  19  20
ENDBRANCH  16  19
ENDBRANCH  15  16
ENDBRANCH   1  15
TORSDOF 12
ENDMDL
MODEL 9
REMARK VINA RESULT:      -6.3      4.591      7.989
REMARK  Name = 
REMARK  13 active torsions:
REMARK  status: ('A' for Active; 'I' for Inactive)
REMARK    1  A    between atoms: C_1  and  O_2
REMARK    2  A    between atoms: O_2  and  C_3
REMARK    3  A    between atoms: C_8  and  O_9
REMARK    4  A    between atoms: O_9  and  C_10
REMARK    5  A    between atoms: C_10  and  C_11
REMARK    6  A    between atoms: C_11  and  C_12
REMARK    7  A    between atoms: C_12  and  N_13
REMARK    8  A    between atoms: N_13  and  C_14
REMARK    9  A    between atoms: C_14  and  C_15
REMARK   10  A    between atoms: C_15  and  O_16
REMARK   11  A    between atoms: C_15  and  C_17
REMARK   12  A    between atoms: C_17  and  O_18
REMARK   13  A    between atoms: O_18  and  C_19
REMARK                            x       y       z     vdW  Elec       q    Type
REMARK                         _______ _______ _______ _____ _____    ______ ____
ROOT
ATOM      1  N   UNL     1       4.423   5.789  19.261  0.00  0.00    +0.000 NA
ATOM      2  H   UNL     1       4.529   4.865  19.672  0.00  0.00    +0.000 HD
ENDROOT
BRANCH   1   3
ATOM      3  C   UNL     1       3.030   6.212  19.445  0.00  0.00    +0.000 C 
BRANCH   3   4
ATOM      4  C   UNL     1       2.340   6.816  18.216  0.00  0.00    +0.000 C 
BRANCH   4   5
ATOM      5  C   UNL     1       2.058   8.313  18.333  0.00  0.00    +0.000 C 
BRANCH   5   6
ATOM      6  O   UNL     1       1.529   8.597  19.628  0.00  0.00    +0.000 OA
BRANCH   6  12
ATOM      7  C   UNL     1      -0.136  10.050  20.674  0.00  0.00    +0.000 A 
ATOM      8  C   UNL     1      -0.908  11.210  20.527  0.00  0.00    +0.000 A 
ATOM      9  C   UNL     1      -0.647  12.117  19.494  0.00  0.00    +0.000 A 
ATOM     10  C   UNL     1       0.418  11.900  18.626  0.00  0.00    +0.000 A 
ATOM     11  C   UNL     1       1.192  10.748  18.758  0.00  0.00    +0.000 A 
ATOM     12  C   UNL     1       0.903   9.813  19.757  0.00  0.00    +0.000 A 
BRANCH   7  14
ATOM     13  C   UNL     1       0.004   9.395  22.967  0.00  0.00    +0.000 C 
ATOM     14  O   UNL     1      -0.358   9.090  21.626  0.00  0.00    +0.000 OA
ENDBRANCH   7  14
ENDBRANCH   6  12
ENDBRANCH   5   6
ENDBRANCH   4   5
ENDBRANCH   3   4
ENDBRANCH   1   3
BRANCH   1  15
ATOM     15  C   UNL     1       4.830   5.779  17.843  0.00  0.00    +0.000 C 
BRANCH  15  16
ATOM     16  C   UNL     1       5.270   4.373  17.381  0.00  0.00    +0.000 C 
BRANCH  16  17
ATOM     17  O   UNL     1       6.098   3.791  18.397  0.00  0.00    +0.000 OA
ATOM     18  H   UNL     1       6.343   2.906  18.062  0.00  0.00    +0.000 HD
ENDBRANCH  16  17
BRANCH  16  19
ATOM     19  C   UNL     1       4.060   3.468  17.105  0.00  0.00    +0.000 C 
BRANCH  19  20
ATOM     20  O   UNL     1       3.971   2.466  18.119  0.00  0.00    +0.000 OA
BRANCH  20  21
ATOM     21  C   UNL     1       2.982   2.649  19.048  0.00  0.00    +0.000 A 
ATOM     22  C   UNL     1       3.419   2.600  20.371  0.00  0.00    +0.000 A 
ATOM     23  C   UNL     1       2.509   2.750  21.420  0.00  0.00    +0.000 A 
ATOM     24  C   UNL     1       1.160   2.966  21.147  0.00  0.00    +0.000 A 
ATOM     25  C   UNL     1       0.722   3.041  19.823  0.00  0.00    +0.000 A 
ATOM     26  C   UNL     1       1.633   2.886  18.773  0.00  0.00    +0.000 A 
ENDBRANCH  20  21
ENDBRANCH  19  20
ENDBRANCH  16  19
ENDBRANCH  15  16
ENDBRANCH   1  15
TORSDOF 12
ENDMDL
