MODEL 1
REMARK VINA RESULT:      -7.5      0.000      0.000
REMARK  Name = 
REMARK  6 active torsions:
REMARK  status: ('A' for Active; 'I' for Inactive)
REMARK    1  A    between atoms: C_2  and  O_3
REMARK    2  A    between atoms: C_2  and  C_4
REMARK    3  A    between atoms: C_4  and  S_5
REMARK    4  A    between atoms: S_5  and  C_6
REMARK    5  A    between atoms: C_11  and  O_12
REMARK    6  A    between atoms: C_17  and  O_18
REMARK                            x       y       z     vdW  Elec       q    Type
REMARK                         _______ _______ _______ _____ _____    ______ ____
ROOT
ATOM      1  C   UNL     1       3.636   5.520  17.484  0.00  0.00    +0.000 C 
ATOM      2  C   UNL     1       3.400   4.182  18.169  0.00  0.00    +0.000 A 
ATOM      3  C   UNL     1       3.734   2.986  17.501  0.00  0.00    +0.000 A 
ATOM      4  C   UNL     1       3.731   1.756  18.154  0.00  0.00    +0.000 A 
ATOM      5  C   UNL     1       3.277   1.675  19.460  0.00  0.00    +0.000 A 
ATOM      6  C   UNL     1       2.801   2.822  20.095  0.00  0.00    +0.000 A 
ATOM      7  C   UNL     1       2.868   4.082  19.466  0.00  0.00    +0.000 A 
ATOM      8  C   UNL     1       2.318   5.298  20.122  0.00  0.00    +0.000 C 
ATOM      9  O   UNL     1       1.792   5.270  21.233  0.00  0.00    +0.000 OA
ATOM     10  C   UNL     1       2.342   6.595  19.413  0.00  0.00    +0.000 A 
ATOM     11  C   UNL     1       1.730   7.720  19.997  0.00  0.00    +0.000 A 
ATOM     12  C   UNL     1       1.739   8.958  19.363  0.00  0.00    +0.000 A 
ATOM     13  C   UNL     1       2.353   9.081  18.122  0.00  0.00    +0.000 A 
ATOM     14  C   UNL     1       2.946   7.968  17.519  0.00  0.00    +0.000 A 
ATOM     15  C   UNL     1       2.959   6.706  18.156  0.00  0.00    +0.000 A 
ENDROOT
BRANCH   6  16
ATOM     16  O   UNL     1       2.269   2.681  21.346  0.00  0.00    +0.000 OA
ATOM     17  H   UNL     1       1.345   2.976  21.355  0.00  0.00    +0.000 HD
ENDBRANCH   6  16
BRANCH  11  18
ATOM     18  O   UNL     1       1.082   7.685  21.209  0.00  0.00    +0.000 OA
ATOM     19  H   UNL     1       0.490   8.472  21.249  0.00  0.00    +0.000 HD
ENDBRANCH  11  18
BRANCH   1  20
ATOM     20  S   UNL     1       5.481   5.900  17.344  0.00  0.00    +0.000 S 
BRANCH  20  21
ATOM     21  C   UNL     1       6.082   5.374  18.990  0.00  0.00    +0.000 C 
BRANCH  21  23
ATOM     22  O   UNL     1       8.079   6.656  18.633  0.00  0.00    +0.000 OA
ATOM     23  C   UNL     1       7.465   5.871  19.345  0.00  0.00    +0.000 C 
BRANCH  23  24
ATOM     24  O   UNL     1       7.990   5.375  20.485  0.00  0.00    +0.000 OA
ATOM     25  H   UNL     1       8.097   6.086  21.159  0.00  0.00    +0.000 HD
ENDBRANCH  23  24
ENDBRANCH  21  23
ENDBRANCH  20  21
ENDBRANCH   1  20
TORSDOF 6
ENDMDL
MODEL 2
REMARK VINA RESULT:      -7.5      1.584      1.770
REMARK  Name = 
REMARK  6 active torsions:
REMARK  status: ('A' for Active; 'I' for Inactive)
REMARK    1  A    between atoms: C_2  and  O_3
REMARK    2  A    between atoms: C_2  and  C_4
REMARK    3  A    between atoms: C_4  and  S_5
REMARK    4  A    between atoms: S_5  and  C_6
REMARK    5  A    between atoms: C_11  and  O_12
REMARK    6  A    between atoms: C_17  and  O_18
REMARK                            x       y       z     vdW  Elec       q    Type
REMARK                         _______ _______ _______ _____ _____    ______ ____
ROOT
ATOM      1  C   UNL     1       3.529   5.695  17.452  0.00  0.00    +0.000 C 
ATOM      2  C   UNL     1       3.369   4.348  18.140  0.00  0.00    +0.000 A 
ATOM      3  C   UNL     1       3.716   3.166  17.454  0.00  0.00    +0.000 A 
ATOM      4  C   UNL     1       3.784   1.935  18.101  0.00  0.00    +0.000 A 
ATOM      5  C   UNL     1       3.388   1.834  19.425  0.00  0.00    +0.000 A 
ATOM      6  C   UNL     1       2.900   2.961  20.085  0.00  0.00    +0.000 A 
ATOM      7  C   UNL     1       2.895   4.225  19.459  0.00  0.00    +0.000 A 
ATOM      8  C   UNL     1       2.331   5.419  20.143  0.00  0.00    +0.000 C 
ATOM      9  O   UNL     1       1.855   5.369  21.274  0.00  0.00    +0.000 OA
ATOM     10  C   UNL     1       2.280   6.719  19.438  0.00  0.00    +0.000 A 
ATOM     11  C   UNL     1       1.654   7.820  20.053  0.00  0.00    +0.000 A 
ATOM     12  C   UNL     1       1.593   9.059  19.424  0.00  0.00    +0.000 A 
ATOM     13  C   UNL     1       2.149   9.207  18.159  0.00  0.00    +0.000 A 
ATOM     14  C   UNL     1       2.755   8.117  17.527  0.00  0.00    +0.000 A 
ATOM     15  C   UNL     1       2.839   6.855  18.157  0.00  0.00    +0.000 A 
ENDROOT
BRANCH   6  16
ATOM     16  O   UNL     1       2.426   2.798  21.356  0.00  0.00    +0.000 OA
ATOM     17  H   UNL     1       1.719   3.436  21.537  0.00  0.00    +0.000 HD
ENDBRANCH   6  16
BRANCH  11  18
ATOM     18  O   UNL     1       1.060   7.758  21.290  0.00  0.00    +0.000 OA
ATOM     19  H   UNL     1       0.297   8.382  21.282  0.00  0.00    +0.000 HD
ENDBRANCH  11  18
BRANCH   1  20
ATOM     20  S   UNL     1       5.351   6.141  17.236  0.00  0.00    +0.000 S 
BRANCH  20  21
ATOM     21  C   UNL     1       5.685   5.482  15.562  0.00  0.00    +0.000 C 
BRANCH  21  23
ATOM     22  O   UNL     1       7.689   5.351  14.249  0.00  0.00    +0.000 OA
ATOM     23  C   UNL     1       7.128   5.105  15.308  0.00  0.00    +0.000 C 
BRANCH  23  24
ATOM     24  O   UNL     1       7.749   4.458  16.316  0.00  0.00    +0.000 OA
ATOM     25  H   UNL     1       7.357   3.563  16.450  0.00  0.00    +0.000 HD
ENDBRANCH  23  24
ENDBRANCH  21  23
ENDBRANCH  20  21
ENDBRANCH   1  20
TORSDOF 6
ENDMDL
MODEL 3
REMARK VINA RESULT:      -7.4      2.610      5.054
REMARK  Name = 
REMARK  6 active torsions:
REMARK  status: ('A' for Active; 'I' for Inactive)
REMARK    1  A    between atoms: C_2  and  O_3
REMARK    2  A    between atoms: C_2  and  C_4
REMARK    3  A    between atoms: C_4  and  S_5
REMARK    4  A    between atoms: S_5  and  C_6
REMARK    5  A    between atoms: C_11  and  O_12
REMARK    6  A    between atoms: C_17  and  O_18
REMARK                            x       y       z     vdW  Elec       q    Type
REMARK                         _______ _______ _______ _____ _____    ______ ____
ROOT
ATOM      1  C   UNL     1       3.488   6.190  18.634  0.00  0.00    +0.000 C 
ATOM      2  C   UNL     1       2.698   5.004  19.166  0.00  0.00    +0.000 A 
ATOM      3  C   UNL     1       1.812   5.183  20.247  0.00  0.00    +0.000 A 
ATOM      4  C   UNL     1       0.920   4.187  20.637  0.00  0.00    +0.000 A 
ATOM      5  C   UNL     1       0.975   2.942  20.031  0.00  0.00    +0.000 A 
ATOM      6  C   UNL     1       1.944   2.693  19.059  0.00  0.00    +0.000 A 
ATOM      7  C   UNL     1       2.803   3.718  18.609  0.00  0.00    +0.000 A 
ATOM      8  C   UNL     1       3.866   3.443  17.607  0.00  0.00    +0.000 C 
ATOM      9  O   UNL     1       4.044   2.329  17.120  0.00  0.00    +0.000 OA
ATOM     10  C   UNL     1       4.795   4.520  17.201  0.00  0.00    +0.000 A 
ATOM     11  C   UNL     1       5.861   4.229  16.330  0.00  0.00    +0.000 A 
ATOM     12  C   UNL     1       6.750   5.218  15.921  0.00  0.00    +0.000 A 
ATOM     13  C   UNL     1       6.589   6.514  16.395  0.00  0.00    +0.000 A 
ATOM     14  C   UNL     1       5.548   6.814  17.278  0.00  0.00    +0.000 A 
ATOM     15  C   UNL     1       4.626   5.825  17.691  0.00  0.00    +0.000 A 
ENDROOT
BRANCH   6  16
ATOM     16  O   UNL     1       2.030   1.425  18.558  0.00  0.00    +0.000 OA
ATOM     17  H   UNL     1       2.928   1.249  18.237  0.00  0.00    +0.000 HD
ENDBRANCH   6  16
BRANCH  11  18
ATOM     18  O   UNL     1       6.109   2.972  15.831  0.00  0.00    +0.000 OA
ATOM     19  H   UNL     1       7.074   2.799  15.935  0.00  0.00    +0.000 HD
ENDBRANCH  11  18
BRANCH   1  20
ATOM     20  S   UNL     1       2.362   7.419  17.745  0.00  0.00    +0.000 S 
BRANCH  20  21
ATOM     21  C   UNL     1       1.940   8.568  19.105  0.00  0.00    +0.000 C 
BRANCH  21  23
ATOM     22  O   UNL     1       0.685  10.599  19.344  0.00  0.00    +0.000 OA
ATOM     23  C   UNL     1       1.435   9.920  18.654  0.00  0.00    +0.000 C 
BRANCH  23  24
ATOM     24  O   UNL     1       1.843  10.319  17.431  0.00  0.00    +0.000 OA
ATOM     25  H   UNL     1       1.454   9.747  16.730  0.00  0.00    +0.000 HD
ENDBRANCH  23  24
ENDBRANCH  21  23
ENDBRANCH  20  21
ENDBRANCH   1  20
TORSDOF 6
ENDMDL
MODEL 4
REMARK VINA RESULT:      -7.4      1.656      5.099
REMARK  Name = 
REMARK  6 active torsions:
REMARK  status: ('A' for Active; 'I' for Inactive)
REMARK    1  A    between atoms: C_2  and  O_3
REMARK    2  A    between atoms: C_2  and  C_4
REMARK    3  A    between atoms: C_4  and  S_5
REMARK    4  A    between atoms: S_5  and  C_6
REMARK    5  A    between atoms: C_11  and  O_12
REMARK    6  A    between atoms: C_17  and  O_18
REMARK                            x       y       z     vdW  Elec       q    Type
REMARK                         _______ _______ _______ _____ _____    ______ ____
ROOT
ATOM      1  C   UNL     1       3.739   6.003  17.407  0.00  0.00    +0.000 C 
ATOM      2  C   UNL     1       5.212   6.194  17.736  0.00  0.00    +0.000 A 
ATOM      3  C   UNL     1       5.986   7.097  16.981  0.00  0.00    +0.000 A 
ATOM      4  C   UNL     1       7.274   7.460  17.366  0.00  0.00    +0.000 A 
ATOM      5  C   UNL     1       7.866   6.836  18.452  0.00  0.00    +0.000 A 
ATOM      6  C   UNL     1       7.175   5.831  19.128  0.00  0.00    +0.000 A 
ATOM      7  C   UNL     1       5.844   5.509  18.789  0.00  0.00    +0.000 A 
ATOM      8  C   UNL     1       5.122   4.406  19.477  0.00  0.00    +0.000 C 
ATOM      9  O   UNL     1       5.635   3.734  20.369  0.00  0.00    +0.000 OA
ATOM     10  C   UNL     1       3.750   4.046  19.056  0.00  0.00    +0.000 A 
ATOM     11  C   UNL     1       3.110   2.938  19.642  0.00  0.00    +0.000 A 
ATOM     12  C   UNL     1       1.818   2.574  19.277  0.00  0.00    +0.000 A 
ATOM     13  C   UNL     1       1.154   3.312  18.305  0.00  0.00    +0.000 A 
ATOM     14  C   UNL     1       1.784   4.403  17.698  0.00  0.00    +0.000 A 
ATOM     15  C   UNL     1       3.090   4.795  18.068  0.00  0.00    +0.000 A 
ENDROOT
BRANCH   6  16
ATOM     16  O   UNL     1       7.830   5.172  20.129  0.00  0.00    +0.000 OA
ATOM     17  H   UNL     1       7.873   4.222  19.937  0.00  0.00    +0.000 HD
ENDBRANCH   6  16
BRANCH  11  18
ATOM     18  O   UNL     1       3.700   2.140  20.593  0.00  0.00    +0.000 OA
ATOM     19  H   UNL     1       4.277   1.495  20.120  0.00  0.00    +0.000 HD
ENDBRANCH  11  18
BRANCH   1  20
ATOM     20  S   UNL     1       2.732   7.534  17.866  0.00  0.00    +0.000 S 
BRANCH  20  21
ATOM     21  C   UNL     1       2.392   7.221  19.636  0.00  0.00    +0.000 C 
BRANCH  21  23
ATOM     22  O   UNL     1       1.042   9.204  19.713  0.00  0.00    +0.000 OA
ATOM     23  C   UNL     1       1.615   8.316  20.332  0.00  0.00    +0.000 C 
BRANCH  23  24
ATOM     24  O   UNL     1       1.615   8.267  21.680  0.00  0.00    +0.000 OA
ATOM     25  H   UNL     1       0.829   7.773  22.011  0.00  0.00    +0.000 HD
ENDBRANCH  23  24
ENDBRANCH  21  23
ENDBRANCH  20  21
ENDBRANCH   1  20
TORSDOF 6
ENDMDL
MODEL 5
REMARK VINA RESULT:      -7.4      2.225      5.296
REMARK  Name = 
REMARK  6 active torsions:
REMARK  status: ('A' for Active; 'I' for Inactive)
REMARK    1  A    between atoms: C_2  and  O_3
REMARK    2  A    between atoms: C_2  and  C_4
REMARK    3  A    between atoms: C_4  and  S_5
REMARK    4  A    between atoms: S_5  and  C_6
REMARK    5  A    between atoms: C_11  and  O_12
REMARK    6  A    between atoms: C_17  and  O_18
REMARK                            x       y       z     vdW  Elec       q    Type
REMARK                         _______ _______ _______ _____ _____    ______ ____
ROOT
ATOM      1  C   UNL     1       2.772   5.781  18.330  0.00  0.00    +0.000 C 
ATOM      2  C   UNL     1       4.170   5.736  17.732  0.00  0.00    +0.000 A 
ATOM      3  C   UNL     1       4.477   6.536  16.613  0.00  0.00    +0.000 A 
ATOM      4  C   UNL     1       5.783   6.687  16.155  0.00  0.00    +0.000 A 
ATOM      5  C   UNL     1       6.802   5.946  16.733  0.00  0.00    +0.000 A 
ATOM      6  C   UNL     1       6.500   5.035  17.745  0.00  0.00    +0.000 A 
ATOM      7  C   UNL     1       5.192   4.929  18.261  0.00  0.00    +0.000 A 
ATOM      8  C   UNL     1       4.858   3.926  19.307  0.00  0.00    +0.000 C 
ATOM      9  O   UNL     1       5.693   3.156  19.776  0.00  0.00    +0.000 OA
ATOM     10  C   UNL     1       3.464   3.792  19.784  0.00  0.00    +0.000 A 
ATOM     11  C   UNL     1       3.137   2.774  20.700  0.00  0.00    +0.000 A 
ATOM     12  C   UNL     1       1.839   2.622  21.176  0.00  0.00    +0.000 A 
ATOM     13  C   UNL     1       0.845   3.483  20.727  0.00  0.00    +0.000 A 
ATOM     14  C   UNL     1       1.151   4.485  19.801  0.00  0.00    +0.000 A 
ATOM     15  C   UNL     1       2.467   4.664  19.319  0.00  0.00    +0.000 A 
ENDROOT
BRANCH   6  16
ATOM     16  O   UNL     1       7.515   4.252  18.218  0.00  0.00    +0.000 OA
ATOM     17  H   UNL     1       7.427   4.128  19.176  0.00  0.00    +0.000 HD
ENDBRANCH   6  16
BRANCH  11  18
ATOM     18  O   UNL     1       4.050   1.865  21.180  0.00  0.00    +0.000 OA
ATOM     19  H   UNL     1       3.619   1.378  21.920  0.00  0.00    +0.000 HD
ENDBRANCH  11  18
BRANCH   1  20
ATOM     20  S   UNL     1       2.450   7.430  19.193  0.00  0.00    +0.000 S 
BRANCH  20  21
ATOM     21  C   UNL     1       1.844   8.451  17.801  0.00  0.00    +0.000 C 
BRANCH  21  23
ATOM     22  O   UNL     1       0.737  10.171  19.056  0.00  0.00    +0.000 OA
ATOM     23  C   UNL     1       1.523   9.884  18.163  0.00  0.00    +0.000 C 
BRANCH  23  24
ATOM     24  O   UNL     1       2.138  10.827  17.419  0.00  0.00    +0.000 OA
ATOM     25  H   UNL     1       2.421  11.585  17.981  0.00  0.00    +0.000 HD
ENDBRANCH  23  24
ENDBRANCH  21  23
ENDBRANCH  20  21
ENDBRANCH   1  20
TORSDOF 6
ENDMDL
MODEL 6
REMARK VINA RESULT:      -7.3      2.718      4.488
REMARK  Name = 
REMARK  6 active torsions:
REMARK  status: ('A' for Active; 'I' for Inactive)
REMARK    1  A    between atoms: C_2  and  O_3
REMARK    2  A    between atoms: C_2  and  C_4
REMARK    3  A    between atoms: C_4  and  S_5
REMARK    4  A    between atoms: S_5  and  C_6
REMARK    5  A    between atoms: C_11  and  O_12
REMARK    6  A    between atoms: C_17  and  O_18
REMARK                            x       y       z     vdW  Elec       q    Type
REMARK                         _______ _______ _______ _____ _____    ______ ____
ROOT
ATOM      1  C   UNL     1       2.920   5.951  20.081  0.00  0.00    +0.000 C 
ATOM      2  C   UNL     1       3.975   5.681  19.020  0.00  0.00    +0.000 A 
ATOM      3  C   UNL     1       4.927   4.661  19.225  0.00  0.00    +0.000 A 
ATOM      4  C   UNL     1       5.778   4.238  18.208  0.00  0.00    +0.000 A 
ATOM      5  C   UNL     1       5.782   4.907  16.994  0.00  0.00    +0.000 A 
ATOM      6  C   UNL     1       4.953   6.014  16.817  0.00  0.00    +0.000 A 
ATOM      7  C   UNL     1       4.037   6.404  17.816  0.00  0.00    +0.000 A 
ATOM      8  C   UNL     1       3.187   7.612  17.648  0.00  0.00    +0.000 C 
ATOM      9  O   UNL     1       3.230   8.317  16.643  0.00  0.00    +0.000 OA
ATOM     10  C   UNL     1       2.282   8.036  18.739  0.00  0.00    +0.000 A 
ATOM     11  C   UNL     1       1.555   9.235  18.615  0.00  0.00    +0.000 A 
ATOM     12  C   UNL     1       0.689   9.661  19.617  0.00  0.00    +0.000 A 
ATOM     13  C   UNL     1       0.552   8.894  20.768  0.00  0.00    +0.000 A 
ATOM     14  C   UNL     1       1.284   7.712  20.915  0.00  0.00    +0.000 A 
ATOM     15  C   UNL     1       2.156   7.256  19.901  0.00  0.00    +0.000 A 
ENDROOT
BRANCH   6  16
ATOM     16  O   UNL     1       5.059   6.705  15.643  0.00  0.00    +0.000 OA
ATOM     17  H   UNL     1       5.906   7.176  15.604  0.00  0.00    +0.000 HD
ENDBRANCH   6  16
BRANCH  11  18
ATOM     18  O   UNL     1       1.646  10.065  17.523  0.00  0.00    +0.000 OA
ATOM     19  H   UNL     1       2.578  10.381  17.471  0.00  0.00    +0.000 HD
ENDBRANCH  11  18
BRANCH   1  20
ATOM     20  S   UNL     1       1.662   4.545  20.170  0.00  0.00    +0.000 S 
BRANCH  20  21
ATOM     21  C   UNL     1       1.530   4.071  18.408  0.00  0.00    +0.000 C 
BRANCH  21  23
ATOM     22  O   UNL     1       2.891   2.389  17.367  0.00  0.00    +0.000 OA
ATOM     23  C   UNL     1       1.948   2.649  18.104  0.00  0.00    +0.000 C 
BRANCH  23  24
ATOM     24  O   UNL     1       1.199   1.684  18.677  0.00  0.00    +0.000 OA
ATOM     25  H   UNL     1       1.128   0.900  18.085  0.00  0.00    +0.000 HD
ENDBRANCH  23  24
ENDBRANCH  21  23
ENDBRANCH  20  21
ENDBRANCH   1  20
TORSDOF 6
ENDMDL
MODEL 7
REMARK VINA RESULT:      -7.2      2.225      5.490
REMARK  Name = 
REMARK  6 active torsions:
REMARK  status: ('A' for Active; 'I' for Inactive)
REMARK    1  A    between atoms: C_2  and  O_3
REMARK    2  A    between atoms: C_2  and  C_4
REMARK    3  A    between atoms: C_4  and  S_5
REMARK    4  A    between atoms: S_5  and  C_6
REMARK    5  A    between atoms: C_11  and  O_12
REMARK    6  A    between atoms: C_17  and  O_18
REMARK                            x       y       z     vdW  Elec       q    Type
REMARK                         _______ _______ _______ _____ _____    ______ ____
ROOT
ATOM      1  C   UNL     1       3.368   6.108  17.735  0.00  0.00    +0.000 C 
ATOM      2  C   UNL     1       4.878   6.290  17.762  0.00  0.00    +0.000 A 
ATOM      3  C   UNL     1       5.460   7.401  17.119  0.00  0.00    +0.000 A 
ATOM      4  C   UNL     1       6.804   7.724  17.286  0.00  0.00    +0.000 A 
ATOM      5  C   UNL     1       7.629   6.874  18.004  0.00  0.00    +0.000 A 
ATOM      6  C   UNL     1       7.109   5.690  18.527  0.00  0.00    +0.000 A 
ATOM      7  C   UNL     1       5.734   5.392  18.423  0.00  0.00    +0.000 A 
ATOM      8  C   UNL     1       5.186   4.109  18.938  0.00  0.00    +0.000 C 
ATOM      9  O   UNL     1       5.889   3.258  19.479  0.00  0.00    +0.000 OA
ATOM     10  C   UNL     1       3.752   3.793  18.757  0.00  0.00    +0.000 A 
ATOM     11  C   UNL     1       3.261   2.536  19.156  0.00  0.00    +0.000 A 
ATOM     12  C   UNL     1       1.917   2.206  19.009  0.00  0.00    +0.000 A 
ATOM     13  C   UNL     1       1.049   3.133  18.445  0.00  0.00    +0.000 A 
ATOM     14  C   UNL     1       1.526   4.378  18.024  0.00  0.00    +0.000 A 
ATOM     15  C   UNL     1       2.885   4.734  18.180  0.00  0.00    +0.000 A 
ENDROOT
BRANCH   6  16
ATOM     16  O   UNL     1       7.976   4.831  19.141  0.00  0.00    +0.000 OA
ATOM     17  H   UNL     1       8.235   5.176  20.010  0.00  0.00    +0.000 HD
ENDBRANCH   6  16
BRANCH  11  18
ATOM     18  O   UNL     1       4.051   1.553  19.702  0.00  0.00    +0.000 OA
ATOM     19  H   UNL     1       4.906   1.971  19.959  0.00  0.00    +0.000 HD
ENDBRANCH  11  18
BRANCH   1  20
ATOM     20  S   UNL     1       2.503   7.406  18.800  0.00  0.00    +0.000 S 
BRANCH  20  21
ATOM     21  C   UNL     1       2.106   8.685  17.554  0.00  0.00    +0.000 C 
BRANCH  21  23
ATOM     22  O   UNL     1       1.026  10.146  19.122  0.00  0.00    +0.000 OA
ATOM     23  C   UNL     1       1.734  10.033  18.130  0.00  0.00    +0.000 C 
BRANCH  23  24
ATOM     24  O   UNL     1       2.213  11.105  17.465  0.00  0.00    +0.000 OA
ATOM     25  H   UNL     1       3.197  11.138  17.516  0.00  0.00    +0.000 HD
ENDBRANCH  23  24
ENDBRANCH  21  23
ENDBRANCH  20  21
ENDBRANCH   1  20
TORSDOF 6
ENDMDL
MODEL 8
REMARK VINA RESULT:      -6.9      2.522      3.888
REMARK  Name = 
REMARK  6 active torsions:
REMARK  status: ('A' for Active; 'I' for Inactive)
REMARK    1  A    between atoms: C_2  and  O_3
REMARK    2  A    between atoms: C_2  and  C_4
REMARK    3  A    between atoms: C_4  and  S_5
REMARK    4  A    between atoms: S_5  and  C_6
REMARK    5  A    between atoms: C_11  and  O_12
REMARK    6  A    between atoms: C_17  and  O_18
REMARK                            x       y       z     vdW  Elec       q    Type
REMARK                         _______ _______ _______ _____ _____    ______ ____
ROOT
ATOM      1  C   UNL     1       4.353   6.086  17.103  0.00  0.00    +0.000 C 
ATOM      2  C   UNL     1       3.498   5.087  17.868  0.00  0.00    +0.000 A 
ATOM      3  C   UNL     1       2.134   4.942  17.543  0.00  0.00    +0.000 A 
ATOM      4  C   UNL     1       1.362   3.907  18.066  0.00  0.00    +0.000 A 
ATOM      5  C   UNL     1       1.905   3.062  19.021  0.00  0.00    +0.000 A 
ATOM      6  C   UNL     1       3.208   3.277  19.468  0.00  0.00    +0.000 A 
ATOM      7  C   UNL     1       4.019   4.277  18.892  0.00  0.00    +0.000 A 
ATOM      8  C   UNL     1       5.391   4.539  19.400  0.00  0.00    +0.000 C 
ATOM      9  O   UNL     1       5.887   3.902  20.327  0.00  0.00    +0.000 OA
ATOM     10  C   UNL     1       6.196   5.638  18.822  0.00  0.00    +0.000 A 
ATOM     11  C   UNL     1       7.454   5.945  19.374  0.00  0.00    +0.000 A 
ATOM     12  C   UNL     1       8.242   6.966  18.852  0.00  0.00    +0.000 A 
ATOM     13  C   UNL     1       7.769   7.704  17.773  0.00  0.00    +0.000 A 
ATOM     14  C   UNL     1       6.512   7.425  17.228  0.00  0.00    +0.000 A 
ATOM     15  C   UNL     1       5.706   6.382  17.736  0.00  0.00    +0.000 A 
ENDROOT
BRANCH   6  16
ATOM     16  O   UNL     1       3.670   2.486  20.481  0.00  0.00    +0.000 OA
ATOM     17  H   UNL     1       3.137   2.615  21.281  0.00  0.00    +0.000 HD
ENDBRANCH   6  16
BRANCH  11  18
ATOM     18  O   UNL     1       7.989   5.282  20.452  0.00  0.00    +0.000 OA
ATOM     19  H   UNL     1       7.333   4.604  20.736  0.00  0.00    +0.000 HD
ENDBRANCH  11  18
BRANCH   1  20
ATOM     20  S   UNL     1       4.649   5.515  15.327  0.00  0.00    +0.000 S 
BRANCH  20  21
ATOM     21  C   UNL     1       5.812   4.127  15.587  0.00  0.00    +0.000 C 
BRANCH  21  23
ATOM     22  O   UNL     1       7.749   5.194  14.654  0.00  0.00    +0.000 OA
ATOM     23  C   UNL     1       7.274   4.514  15.554  0.00  0.00    +0.000 C 
BRANCH  23  24
ATOM     24  O   UNL     1       8.027   4.040  16.569  0.00  0.00    +0.000 OA
ATOM     25  H   UNL     1       8.780   4.647  16.758  0.00  0.00    +0.000 HD
ENDBRANCH  23  24
ENDBRANCH  21  23
ENDBRANCH  20  21
ENDBRANCH   1  20
TORSDOF 6
ENDMDL
MODEL 9
REMARK VINA RESULT:      -6.9      1.157      1.325
REMARK  Name = 
REMARK  6 active torsions:
REMARK  status: ('A' for Active; 'I' for Inactive)
REMARK    1  A    between atoms: C_2  and  O_3
REMARK    2  A    between atoms: C_2  and  C_4
REMARK    3  A    between atoms: C_4  and  S_5
REMARK    4  A    between atoms: S_5  and  C_6
REMARK    5  A    between atoms: C_11  and  O_12
REMARK    6  A    between atoms: C_17  and  O_18
REMARK                            x       y       z     vdW  Elec       q    Type
REMARK                         _______ _______ _______ _____ _____    ______ ____
ROOT
ATOM      1  C   UNL     1       2.886   5.938  17.360  0.00  0.00    +0.000 C 
ATOM      2  C   UNL     1       2.635   4.588  18.015  0.00  0.00    +0.000 A 
ATOM      3  C   UNL     1       2.769   3.408  17.257  0.00  0.00    +0.000 A 
ATOM      4  C   UNL     1       2.752   2.149  17.851  0.00  0.00    +0.000 A 
ATOM      5  C   UNL     1       2.481   2.033  19.204  0.00  0.00    +0.000 A 
ATOM      6  C   UNL     1       2.199   3.178  19.949  0.00  0.00    +0.000 A 
ATOM      7  C   UNL     1       2.284   4.461  19.370  0.00  0.00    +0.000 A 
ATOM      8  C   UNL     1       1.938   5.679  20.150  0.00  0.00    +0.000 C 
ATOM      9  O   UNL     1       1.574   5.633  21.322  0.00  0.00    +0.000 OA
ATOM     10  C   UNL     1       1.973   7.007  19.499  0.00  0.00    +0.000 A 
ATOM     11  C   UNL     1       1.548   8.144  20.212  0.00  0.00    +0.000 A 
ATOM     12  C   UNL     1       1.574   9.410  19.636  0.00  0.00    +0.000 A 
ATOM     13  C   UNL     1       2.015   9.550  18.325  0.00  0.00    +0.000 A 
ATOM     14  C   UNL     1       2.420   8.428  17.597  0.00  0.00    +0.000 A 
ATOM     15  C   UNL     1       2.415   7.137  18.172  0.00  0.00    +0.000 A 
ENDROOT
BRANCH   6  16
ATOM     16  O   UNL     1       1.838   3.012  21.257  0.00  0.00    +0.000 OA
ATOM     17  H   UNL     1       1.528   3.852  21.630  0.00  0.00    +0.000 HD
ENDBRANCH   6  16
BRANCH  11  18
ATOM     18  O   UNL     1       1.076   8.095  21.502  0.00  0.00    +0.000 OA
ATOM     19  H   UNL     1       1.699   7.535  22.022  0.00  0.00    +0.000 HD
ENDBRANCH  11  18
BRANCH   1  20
ATOM     20  S   UNL     1       4.719   6.180  16.971  0.00  0.00    +0.000 S 
BRANCH  20  21
ATOM     21  C   UNL     1       5.479   5.841  18.600  0.00  0.00    +0.000 C 
BRANCH  21  23
ATOM     22  O   UNL     1       5.630   3.607  19.462  0.00  0.00    +0.000 OA
ATOM     23  C   UNL     1       6.102   4.469  18.733  0.00  0.00    +0.000 C 
BRANCH  23  24
ATOM     24  O   UNL     1       7.227   4.266  18.015  0.00  0.00    +0.000 OA
ATOM     25  H   UNL     1       7.838   3.657  18.490  0.00  0.00    +0.000 HD
ENDBRANCH  23  24
ENDBRANCH  21  23
ENDBRANCH  20  21
ENDBRANCH   1  20
TORSDOF 6
ENDMDL
