MODEL 1
REMARK VINA RESULT:      -6.6      0.000      0.000
REMARK  Name = 
REMARK  7 active torsions:
REMARK  status: ('A' for Active; 'I' for Inactive)
REMARK    1  A    between atoms: C_1  and  C_2
REMARK    2  A    between atoms: C_2  and  C_3
REMARK    3  A    between atoms: C_7  and  C_8
REMARK    4  A    between atoms: C_8  and  C_9
REMARK    5  A    between atoms: C_10  and  N_11
REMARK    6  A    between atoms: C_12  and  N_14
REMARK    7  A    between atoms: N_19  and  C_20
REMARK                            x       y       z     vdW  Elec       q    Type
REMARK                         _______ _______ _______ _____ _____    ______ ____
ROOT
ATOM      1  N   UNL     1       2.308   5.756  18.048  0.00  0.00    +0.000 N 
ATOM      2  C   UNL     1       2.921   6.719  18.819  0.00  0.00    +0.000 C 
ATOM      3  O   UNL     1       3.817   6.470  19.620  0.00  0.00    +0.000 OA
ATOM      4  H   UNL     1       1.354   6.013  17.837  0.00  0.00    +0.000 HD
ENDROOT
BRANCH   2   5
ATOM      5  N   UNL     1       2.315   7.947  18.689  0.00  0.00    +0.000 NA
ATOM      6  C   UNL     1       1.591   8.401  19.666  0.00  0.00    +0.000 C 
ATOM      7  C   UNL     1       1.484   7.857  21.085  0.00  0.00    +0.000 C 
ATOM      8  C   UNL     1       0.049   8.250  21.430  0.00  0.00    +0.000 C 
ATOM      9  C   UNL     1      -0.155   9.588  20.725  0.00  0.00    +0.000 C 
ATOM     10  N   UNL     1       0.765   9.507  19.602  0.00  0.00    +0.000 N 
ATOM     11  C   UNL     1       0.847  10.586  18.654  0.00  0.00    +0.000 C 
ENDBRANCH   2   5
BRANCH   1  17
ATOM     12  C   UNL     1       1.998   3.499  19.000  0.00  0.00    +0.000 A 
ATOM     13  C   UNL     1       2.294   2.122  18.957  0.00  0.00    +0.000 A 
ATOM     14  C   UNL     1       3.276   1.625  18.108  0.00  0.00    +0.000 A 
ATOM     15  C   UNL     1       3.990   2.504  17.302  0.00  0.00    +0.000 A 
ATOM     16  C   UNL     1       3.720   3.889  17.304  0.00  0.00    +0.000 A 
ATOM     17  C   UNL     1       2.668   4.383  18.114  0.00  0.00    +0.000 A 
BRANCH  12  19
ATOM     18  C   UNL     1       1.254   3.257  21.413  0.00  0.00    +0.000 C 
ATOM     19  C   UNL     1       1.026   3.957  20.075  0.00  0.00    +0.000 C 
ENDBRANCH  12  19
BRANCH  16  20
ATOM     20  C   UNL     1       4.585   4.743  16.400  0.00  0.00    +0.000 C 
ATOM     21  C   UNL     1       5.695   3.979  15.691  0.00  0.00    +0.000 C 
ENDBRANCH  16  20
ENDBRANCH   1  17
TORSDOF 4
ENDMDL
MODEL 2
REMARK VINA RESULT:      -6.1      0.387      3.010
REMARK  Name = 
REMARK  7 active torsions:
REMARK  status: ('A' for Active; 'I' for Inactive)
REMARK    1  A    between atoms: C_1  and  C_2
REMARK    2  A    between atoms: C_2  and  C_3
REMARK    3  A    between atoms: C_7  and  C_8
REMARK    4  A    between atoms: C_8  and  C_9
REMARK    5  A    between atoms: C_10  and  N_11
REMARK    6  A    between atoms: C_12  and  N_14
REMARK    7  A    between atoms: N_19  and  C_20
REMARK                            x       y       z     vdW  Elec       q    Type
REMARK                         _______ _______ _______ _____ _____    ______ ____
ROOT
ATOM      1  N   UNL     1       2.478   5.543  17.984  0.00  0.00    +0.000 N 
ATOM      2  C   UNL     1       3.138   6.487  18.739  0.00  0.00    +0.000 C 
ATOM      3  O   UNL     1       4.035   6.210  19.530  0.00  0.00    +0.000 OA
ATOM      4  H   UNL     1       1.532   5.835  17.784  0.00  0.00    +0.000 HD
ENDROOT
BRANCH   2   5
ATOM      5  N   UNL     1       2.577   7.736  18.608  0.00  0.00    +0.000 NA
ATOM      6  C   UNL     1       1.835   8.199  19.568  0.00  0.00    +0.000 C 
ATOM      7  C   UNL     1       1.662   7.637  20.973  0.00  0.00    +0.000 C 
ATOM      8  C   UNL     1       0.229   8.072  21.276  0.00  0.00    +0.000 C 
ATOM      9  C   UNL     1       0.093   9.427  20.586  0.00  0.00    +0.000 C 
ATOM     10  N   UNL     1       1.048   9.333  19.494  0.00  0.00    +0.000 N 
ATOM     11  C   UNL     1       1.197  10.423  18.567  0.00  0.00    +0.000 C 
ENDBRANCH   2   5
BRANCH   1  17
ATOM     12  C   UNL     1       3.765   3.589  17.196  0.00  0.00    +0.000 A 
ATOM     13  C   UNL     1       4.136   2.241  17.369  0.00  0.00    +0.000 A 
ATOM     14  C   UNL     1       3.516   1.443  18.323  0.00  0.00    +0.000 A 
ATOM     15  C   UNL     1       2.499   1.979  19.105  0.00  0.00    +0.000 A 
ATOM     16  C   UNL     1       2.102   3.326  18.973  0.00  0.00    +0.000 A 
ATOM     17  C   UNL     1       2.787   4.158  18.054  0.00  0.00    +0.000 A 
BRANCH  12  19
ATOM     18  C   UNL     1       5.855   4.681  16.259  0.00  0.00    +0.000 C 
ATOM     19  C   UNL     1       4.389   4.325  16.021  0.00  0.00    +0.000 C 
ENDBRANCH  12  19
BRANCH  16  20
ATOM     20  C   UNL     1       0.966   3.782  19.865  0.00  0.00    +0.000 C 
ATOM     21  C   UNL     1       1.192   3.523  21.348  0.00  0.00    +0.000 C 
ENDBRANCH  16  20
ENDBRANCH   1  17
TORSDOF 4
ENDMDL
MODEL 3
REMARK VINA RESULT:      -6.1      2.864      6.550
REMARK  Name = 
REMARK  7 active torsions:
REMARK  status: ('A' for Active; 'I' for Inactive)
REMARK    1  A    between atoms: C_1  and  C_2
REMARK    2  A    between atoms: C_2  and  C_3
REMARK    3  A    between atoms: C_7  and  C_8
REMARK    4  A    between atoms: C_8  and  C_9
REMARK    5  A    between atoms: C_10  and  N_11
REMARK    6  A    between atoms: C_12  and  N_14
REMARK    7  A    between atoms: N_19  and  C_20
REMARK                            x       y       z     vdW  Elec       q    Type
REMARK                         _______ _______ _______ _____ _____    ______ ____
ROOT
ATOM      1  N   UNL     1       4.908   5.399  16.535  0.00  0.00    +0.000 N 
ATOM      2  C   UNL     1       6.252   5.166  16.727  0.00  0.00    +0.000 C 
ATOM      3  O   UNL     1       6.735   4.862  17.813  0.00  0.00    +0.000 OA
ATOM      4  H   UNL     1       4.758   6.060  15.785  0.00  0.00    +0.000 HD
ENDROOT
BRANCH   2   5
ATOM      5  N   UNL     1       6.991   5.454  15.603  0.00  0.00    +0.000 NA
ATOM      6  C   UNL     1       6.644   4.930  14.467  0.00  0.00    +0.000 C 
ATOM      7  C   UNL     1       5.357   4.186  14.132  0.00  0.00    +0.000 C 
ATOM      8  C   UNL     1       5.858   3.228  13.052  0.00  0.00    +0.000 C 
ATOM      9  C   UNL     1       6.917   4.030  12.300  0.00  0.00    +0.000 C 
ATOM     10  N   UNL     1       7.397   4.960  13.309  0.00  0.00    +0.000 N 
ATOM     11  C   UNL     1       8.452   5.888  12.995  0.00  0.00    +0.000 C 
ENDBRANCH   2   5
BRANCH   1  17
ATOM     12  C   UNL     1       3.599   4.037  18.124  0.00  0.00    +0.000 A 
ATOM     13  C   UNL     1       2.748   3.980  19.246  0.00  0.00    +0.000 A 
ATOM     14  C   UNL     1       2.206   5.136  19.795  0.00  0.00    +0.000 A 
ATOM     15  C   UNL     1       2.492   6.367  19.216  0.00  0.00    +0.000 A 
ATOM     16  C   UNL     1       3.348   6.472  18.099  0.00  0.00    +0.000 A 
ATOM     17  C   UNL     1       3.959   5.302  17.588  0.00  0.00    +0.000 A 
BRANCH  12  19
ATOM     18  C   UNL     1       3.541   1.509  18.327  0.00  0.00    +0.000 C 
ATOM     19  C   UNL     1       4.006   2.710  17.506  0.00  0.00    +0.000 C 
ENDBRANCH  12  19
BRANCH  16  20
ATOM     20  C   UNL     1       3.560   7.866  17.546  0.00  0.00    +0.000 C 
ATOM     21  C   UNL     1       2.384   8.810  17.758  0.00  0.00    +0.000 C 
ENDBRANCH  16  20
ENDBRANCH   1  17
TORSDOF 4
ENDMDL
MODEL 4
REMARK VINA RESULT:      -6.1      2.306      6.023
REMARK  Name = 
REMARK  7 active torsions:
REMARK  status: ('A' for Active; 'I' for Inactive)
REMARK    1  A    between atoms: C_1  and  C_2
REMARK    2  A    between atoms: C_2  and  C_3
REMARK    3  A    between atoms: C_7  and  C_8
REMARK    4  A    between atoms: C_8  and  C_9
REMARK    5  A    between atoms: C_10  and  N_11
REMARK    6  A    between atoms: C_12  and  N_14
REMARK    7  A    between atoms: N_19  and  C_20
REMARK                            x       y       z     vdW  Elec       q    Type
REMARK                         _______ _______ _______ _____ _____    ______ ____
ROOT
ATOM      1  N   UNL     1       2.906   4.583  17.217  0.00  0.00    +0.000 N 
ATOM      2  C   UNL     1       4.106   3.911  17.153  0.00  0.00    +0.000 C 
ATOM      3  O   UNL     1       4.789   3.655  18.140  0.00  0.00    +0.000 OA
ATOM      4  H   UNL     1       2.735   5.104  16.369  0.00  0.00    +0.000 HD
ENDROOT
BRANCH   2   5
ATOM      5  N   UNL     1       4.509   3.697  15.855  0.00  0.00    +0.000 NA
ATOM      6  C   UNL     1       5.680   4.112  15.481  0.00  0.00    +0.000 C 
ATOM      7  C   UNL     1       6.816   4.628  16.355  0.00  0.00    +0.000 C 
ATOM      8  C   UNL     1       7.489   5.607  15.395  0.00  0.00    +0.000 C 
ATOM      9  C   UNL     1       7.338   4.954  14.023  0.00  0.00    +0.000 C 
ATOM     10  N   UNL     1       6.134   4.154  14.176  0.00  0.00    +0.000 N 
ATOM     11  C   UNL     1       5.625   3.394  13.065  0.00  0.00    +0.000 C 
ENDBRANCH   2   5
BRANCH   1  17
ATOM     12  C   UNL     1       1.603   4.153  19.270  0.00  0.00    +0.000 A 
ATOM     13  C   UNL     1       1.167   4.595  20.536  0.00  0.00    +0.000 A 
ATOM     14  C   UNL     1       1.400   5.898  20.960  0.00  0.00    +0.000 A 
ATOM     15  C   UNL     1       2.057   6.785  20.114  0.00  0.00    +0.000 A 
ATOM     16  C   UNL     1       2.520   6.383  18.844  0.00  0.00    +0.000 A 
ATOM     17  C   UNL     1       2.350   5.035  18.445  0.00  0.00    +0.000 A 
BRANCH  12  19
ATOM     18  C   UNL     1       2.099   1.666  19.323  0.00  0.00    +0.000 C 
ATOM     19  C   UNL     1       1.157   2.766  18.839  0.00  0.00    +0.000 C 
ENDBRANCH  12  19
BRANCH  16  20
ATOM     20  C   UNL     1       3.198   7.449  18.009  0.00  0.00    +0.000 C 
ATOM     21  C   UNL     1       2.358   8.700  17.789  0.00  0.00    +0.000 C 
ENDBRANCH  16  20
ENDBRANCH   1  17
TORSDOF 4
ENDMDL
MODEL 5
REMARK VINA RESULT:      -6.0      1.646      1.985
REMARK  Name = 
REMARK  7 active torsions:
REMARK  status: ('A' for Active; 'I' for Inactive)
REMARK    1  A    between atoms: C_1  and  C_2
REMARK    2  A    between atoms: C_2  and  C_3
REMARK    3  A    between atoms: C_7  and  C_8
REMARK    4  A    between atoms: C_8  and  C_9
REMARK    5  A    between atoms: C_10  and  N_11
REMARK    6  A    between atoms: C_12  and  N_14
REMARK    7  A    between atoms: N_19  and  C_20
REMARK                            x       y       z     vdW  Elec       q    Type
REMARK                         _______ _______ _______ _____ _____    ______ ____
ROOT
ATOM      1  N   UNL     1       2.722   7.314  19.149  0.00  0.00    +0.000 N 
ATOM      2  C   UNL     1       1.785   8.119  18.540  0.00  0.00    +0.000 C 
ATOM      3  O   UNL     1       1.198   7.809  17.508  0.00  0.00    +0.000 OA
ATOM      4  H   UNL     1       3.405   7.866  19.648  0.00  0.00    +0.000 HD
ENDROOT
BRANCH   2   5
ATOM      5  N   UNL     1       1.698   9.354  19.140  0.00  0.00    +0.000 NA
ATOM      6  C   UNL     1       1.139   9.451  20.307  0.00  0.00    +0.000 C 
ATOM      7  C   UNL     1       0.741   8.325  21.253  0.00  0.00    +0.000 C 
ATOM      8  C   UNL     1      -0.458   8.958  21.957  0.00  0.00    +0.000 C 
ATOM      9  C   UNL     1      -0.093  10.436  22.066  0.00  0.00    +0.000 C 
ATOM     10  N   UNL     1       0.798  10.635  20.935  0.00  0.00    +0.000 N 
ATOM     11  C   UNL     1       1.344  11.938  20.664  0.00  0.00    +0.000 C 
ENDBRANCH   2   5
BRANCH   1  17
ATOM     12  C   UNL     1       2.448   4.861  19.092  0.00  0.00    +0.000 A 
ATOM     13  C   UNL     1       2.745   3.629  18.475  0.00  0.00    +0.000 A 
ATOM     14  C   UNL     1       3.699   3.543  17.468  0.00  0.00    +0.000 A 
ATOM     15  C   UNL     1       4.384   4.687  17.076  0.00  0.00    +0.000 A 
ATOM     16  C   UNL     1       4.112   5.943  17.658  0.00  0.00    +0.000 A 
ATOM     17  C   UNL     1       3.087   6.043  18.631  0.00  0.00    +0.000 A 
BRANCH  12  19
ATOM     18  C   UNL     1       1.110   3.397  20.673  0.00  0.00    +0.000 C 
ATOM     19  C   UNL     1       1.512   4.819  20.289  0.00  0.00    +0.000 C 
ENDBRANCH  12  19
BRANCH  16  20
ATOM     20  C   UNL     1       4.944   7.107  17.163  0.00  0.00    +0.000 C 
ATOM     21  C   UNL     1       6.446   6.862  17.195  0.00  0.00    +0.000 C 
ENDBRANCH  16  20
ENDBRANCH   1  17
TORSDOF 4
ENDMDL
MODEL 6
REMARK VINA RESULT:      -6.0      1.702      3.435
REMARK  Name = 
REMARK  7 active torsions:
REMARK  status: ('A' for Active; 'I' for Inactive)
REMARK    1  A    between atoms: C_1  and  C_2
REMARK    2  A    between atoms: C_2  and  C_3
REMARK    3  A    between atoms: C_7  and  C_8
REMARK    4  A    between atoms: C_8  and  C_9
REMARK    5  A    between atoms: C_10  and  N_11
REMARK    6  A    between atoms: C_12  and  N_14
REMARK    7  A    between atoms: N_19  and  C_20
REMARK                            x       y       z     vdW  Elec       q    Type
REMARK                         _______ _______ _______ _____ _____    ______ ____
ROOT
ATOM      1  N   UNL     1       3.072   7.002  19.569  0.00  0.00    +0.000 N 
ATOM      2  C   UNL     1       2.135   7.583  18.742  0.00  0.00    +0.000 C 
ATOM      3  O   UNL     1       1.703   7.041  17.729  0.00  0.00    +0.000 OA
ATOM      4  H   UNL     1       3.636   7.704  20.027  0.00  0.00    +0.000 HD
ENDROOT
BRANCH   2   5
ATOM      5  N   UNL     1       1.860   8.880  19.106  0.00  0.00    +0.000 NA
ATOM      6  C   UNL     1       1.199   9.102  20.201  0.00  0.00    +0.000 C 
ATOM      7  C   UNL     1       0.855   8.112  21.306  0.00  0.00    +0.000 C 
ATOM      8  C   UNL     1      -0.462   8.698  21.812  0.00  0.00    +0.000 C 
ATOM      9  C   UNL     1      -0.278  10.208  21.677  0.00  0.00    +0.000 C 
ATOM     10  N   UNL     1       0.676  10.323  20.586  0.00  0.00    +0.000 N 
ATOM     11  C   UNL     1       1.091  11.619  20.121  0.00  0.00    +0.000 C 
ENDBRANCH   2   5
BRANCH   1  17
ATOM     12  C   UNL     1       4.723   5.554  18.442  0.00  0.00    +0.000 A 
ATOM     13  C   UNL     1       5.317   4.283  18.306  0.00  0.00    +0.000 A 
ATOM     14  C   UNL     1       4.797   3.174  18.963  0.00  0.00    +0.000 A 
ATOM     15  C   UNL     1       3.663   3.317  19.753  0.00  0.00    +0.000 A 
ATOM     16  C   UNL     1       3.042   4.572  19.927  0.00  0.00    +0.000 A 
ATOM     17  C   UNL     1       3.616   5.714  19.318  0.00  0.00    +0.000 A 
BRANCH  12  19
ATOM     18  C   UNL     1       5.120   6.354  16.068  0.00  0.00    +0.000 C 
ATOM     19  C   UNL     1       5.268   6.662  17.556  0.00  0.00    +0.000 C 
ENDBRANCH  12  19
BRANCH  16  20
ATOM     20  C   UNL     1       1.798   4.592  20.791  0.00  0.00    +0.000 C 
ATOM     21  C   UNL     1       1.281   3.212  21.176  0.00  0.00    +0.000 C 
ENDBRANCH  16  20
ENDBRANCH   1  17
TORSDOF 4
ENDMDL
MODEL 7
REMARK VINA RESULT:      -5.9      0.996      1.701
REMARK  Name = 
REMARK  7 active torsions:
REMARK  status: ('A' for Active; 'I' for Inactive)
REMARK    1  A    between atoms: C_1  and  C_2
REMARK    2  A    between atoms: C_2  and  C_3
REMARK    3  A    between atoms: C_7  and  C_8
REMARK    4  A    between atoms: C_8  and  C_9
REMARK    5  A    between atoms: C_10  and  N_11
REMARK    6  A    between atoms: C_12  and  N_14
REMARK    7  A    between atoms: N_19  and  C_20
REMARK                            x       y       z     vdW  Elec       q    Type
REMARK                         _______ _______ _______ _____ _____    ______ ____
ROOT
ATOM      1  N   UNL     1       1.868   5.597  18.892  0.00  0.00    +0.000 N 
ATOM      2  C   UNL     1       2.432   6.409  19.850  0.00  0.00    +0.000 C 
ATOM      3  O   UNL     1       3.486   6.146  20.421  0.00  0.00    +0.000 OA
ATOM      4  H   UNL     1       0.861   5.686  18.886  0.00  0.00    +0.000 HD
ENDROOT
BRANCH   2   5
ATOM      5  N   UNL     1       1.607   7.457  20.188  0.00  0.00    +0.000 NA
ATOM      6  C   UNL     1       1.500   8.463  19.374  0.00  0.00    +0.000 C 
ATOM      7  C   UNL     1       1.999   8.566  17.938  0.00  0.00    +0.000 C 
ATOM      8  C   UNL     1       2.279  10.064  17.844  0.00  0.00    +0.000 C 
ATOM      9  C   UNL     1       1.190  10.706  18.700  0.00  0.00    +0.000 C 
ATOM     10  N   UNL     1       0.880   9.665  19.665  0.00  0.00    +0.000 N 
ATOM     11  C   UNL     1      -0.098   9.899  20.694  0.00  0.00    +0.000 C 
ENDBRANCH   2   5
BRANCH   1  17
ATOM     12  C   UNL     1       1.991   3.132  18.963  0.00  0.00    +0.000 A 
ATOM     13  C   UNL     1       2.526   1.936  18.442  0.00  0.00    +0.000 A 
ATOM     14  C   UNL     1       3.555   1.958  17.509  0.00  0.00    +0.000 A 
ATOM     15  C   UNL     1       4.079   3.178  17.097  0.00  0.00    +0.000 A 
ATOM     16  C   UNL     1       3.567   4.399  17.583  0.00  0.00    +0.000 A 
ATOM     17  C   UNL     1       2.468   4.378  18.476  0.00  0.00    +0.000 A 
BRANCH  12  19
ATOM     18  C   UNL     1       1.644   2.956  21.469  0.00  0.00    +0.000 C 
ATOM     19  C   UNL     1       0.984   2.996  20.093  0.00  0.00    +0.000 C 
ENDBRANCH  12  19
BRANCH  16  20
ATOM     20  C   UNL     1       4.240   5.658  17.077  0.00  0.00    +0.000 C 
ATOM     21  C   UNL     1       5.215   5.429  15.930  0.00  0.00    +0.000 C 
ENDBRANCH  16  20
ENDBRANCH   1  17
TORSDOF 4
ENDMDL
MODEL 8
REMARK VINA RESULT:      -5.9      1.785      3.243
REMARK  Name = 
REMARK  7 active torsions:
REMARK  status: ('A' for Active; 'I' for Inactive)
REMARK    1  A    between atoms: C_1  and  C_2
REMARK    2  A    between atoms: C_2  and  C_3
REMARK    3  A    between atoms: C_7  and  C_8
REMARK    4  A    between atoms: C_8  and  C_9
REMARK    5  A    between atoms: C_10  and  N_11
REMARK    6  A    between atoms: C_12  and  N_14
REMARK    7  A    between atoms: N_19  and  C_20
REMARK                            x       y       z     vdW  Elec       q    Type
REMARK                         _______ _______ _______ _____ _____    ______ ____
ROOT
ATOM      1  N   UNL     1       4.065   5.659  18.486  0.00  0.00    +0.000 N 
ATOM      2  C   UNL     1       3.378   6.825  18.228  0.00  0.00    +0.000 C 
ATOM      3  O   UNL     1       3.471   7.441  17.172  0.00  0.00    +0.000 OA
ATOM      4  H   UNL     1       4.254   5.559  19.473  0.00  0.00    +0.000 HD
ENDROOT
BRANCH   2   5
ATOM      5  N   UNL     1       2.703   7.281  19.337  0.00  0.00    +0.000 NA
ATOM      6  C   UNL     1       1.911   8.302  19.218  0.00  0.00    +0.000 C 
ATOM      7  C   UNL     1       1.424   8.967  17.936  0.00  0.00    +0.000 C 
ATOM      8  C   UNL     1       1.246  10.406  18.415  0.00  0.00    +0.000 C 
ATOM      9  C   UNL     1       0.766  10.267  19.858  0.00  0.00    +0.000 C 
ATOM     10  N   UNL     1       1.333   8.993  20.267  0.00  0.00    +0.000 N 
ATOM     11  C   UNL     1       1.133   8.508  21.606  0.00  0.00    +0.000 C 
ENDBRANCH   2   5
BRANCH   1  17
ATOM     12  C   UNL     1       4.495   4.011  16.698  0.00  0.00    +0.000 A 
ATOM     13  C   UNL     1       5.348   3.524  15.688  0.00  0.00    +0.000 A 
ATOM     14  C   UNL     1       6.641   4.014  15.543  0.00  0.00    +0.000 A 
ATOM     15  C   UNL     1       7.105   4.986  16.421  0.00  0.00    +0.000 A 
ATOM     16  C   UNL     1       6.283   5.510  17.440  0.00  0.00    +0.000 A 
ATOM     17  C   UNL     1       4.942   5.065  17.538  0.00  0.00    +0.000 A 
BRANCH  12  19
ATOM     18  C   UNL     1       3.235   2.158  17.887  0.00  0.00    +0.000 C 
ATOM     19  C   UNL     1       3.165   3.297  16.873  0.00  0.00    +0.000 C 
ENDBRANCH  12  19
BRANCH  16  20
ATOM     20  C   UNL     1       6.914   6.546  18.347  0.00  0.00    +0.000 C 
ATOM     21  C   UNL     1       7.633   7.668  17.610  0.00  0.00    +0.000 C 
ENDBRANCH  16  20
ENDBRANCH   1  17
TORSDOF 4
ENDMDL
MODEL 9
REMARK VINA RESULT:      -5.9      1.618      2.020
REMARK  Name = 
REMARK  7 active torsions:
REMARK  status: ('A' for Active; 'I' for Inactive)
REMARK    1  A    between atoms: C_1  and  C_2
REMARK    2  A    between atoms: C_2  and  C_3
REMARK    3  A    between atoms: C_7  and  C_8
REMARK    4  A    between atoms: C_8  and  C_9
REMARK    5  A    between atoms: C_10  and  N_11
REMARK    6  A    between atoms: C_12  and  N_14
REMARK    7  A    between atoms: N_19  and  C_20
REMARK                            x       y       z     vdW  Elec       q    Type
REMARK                         _______ _______ _______ _____ _____    ______ ____
ROOT
ATOM      1  N   UNL     1       3.365   7.335  18.146  0.00  0.00    +0.000 N 
ATOM      2  C   UNL     1       2.192   7.978  17.817  0.00  0.00    +0.000 C 
ATOM      3  O   UNL     1       1.206   7.396  17.375  0.00  0.00    +0.000 OA
ATOM      4  H   UNL     1       4.160   7.946  18.027  0.00  0.00    +0.000 HD
ENDROOT
BRANCH   2   5
ATOM      5  N   UNL     1       2.313   9.345  17.904  0.00  0.00    +0.000 NA
ATOM      6  C   UNL     1       1.594   9.988  18.772  0.00  0.00    +0.000 C 
ATOM      7  C   UNL     1       0.761   9.413  19.911  0.00  0.00    +0.000 C 
ATOM      8  C   UNL     1      -0.346  10.461  20.008  0.00  0.00    +0.000 C 
ATOM      9  C   UNL     1       0.353  11.779  19.686  0.00  0.00    +0.000 C 
ATOM     10  N   UNL     1       1.455  11.363  18.834  0.00  0.00    +0.000 N 
ATOM     11  C   UNL     1       2.351  12.342  18.280  0.00  0.00    +0.000 C 
ENDBRANCH   2   5
BRANCH   1  17
ATOM     12  C   UNL     1       2.900   5.033  18.908  0.00  0.00    +0.000 A 
ATOM     13  C   UNL     1       2.983   3.645  18.673  0.00  0.00    +0.000 A 
ATOM     14  C   UNL     1       3.724   3.141  17.611  0.00  0.00    +0.000 A 
ATOM     15  C   UNL     1       4.409   4.018  16.779  0.00  0.00    +0.000 A 
ATOM     16  C   UNL     1       4.346   5.414  16.970  0.00  0.00    +0.000 A 
ATOM     17  C   UNL     1       3.530   5.930  18.006  0.00  0.00    +0.000 A 
BRANCH  12  19
ATOM     18  C   UNL     1       1.174   4.452  20.674  0.00  0.00    +0.000 C 
ATOM     19  C   UNL     1       2.202   5.469  20.185  0.00  0.00    +0.000 C 
ENDBRANCH  12  19
BRANCH  16  20
ATOM     20  C   UNL     1       5.157   6.260  16.011  0.00  0.00    +0.000 C 
ATOM     21  C   UNL     1       5.946   5.460  14.983  0.00  0.00    +0.000 C 
ENDBRANCH  16  20
ENDBRANCH   1  17
TORSDOF 4
ENDMDL
