MODEL 1
REMARK VINA RESULT:      -8.4      0.000      0.000
REMARK  Name = 
REMARK  7 active torsions:
REMARK  status: ('A' for Active; 'I' for Inactive)
REMARK    1  A    between atoms: C_1  and  N_2
REMARK    2  A    between atoms: N_2  and  C_3
REMARK    3  A    between atoms: N_2  and  S_4
REMARK    4  A    between atoms: S_4  and  C_7
REMARK    5  A    between atoms: C_12  and  N_13
REMARK    6  A    between atoms: C_14  and  C_16
REMARK    7  A    between atoms: C_16  and  N_17
REMARK                            x       y       z     vdW  Elec       q    Type
REMARK                         _______ _______ _______ _____ _____    ______ ____
ROOT
ATOM      1  N   UNL     1       2.771   7.320  19.564  0.00  0.00    +0.000 N 
ATOM      2  C   UNL     1       2.019   8.375  19.068  0.00  0.00    +0.000 C 
ATOM      3  O   UNL     1       1.714   8.506  17.886  0.00  0.00    +0.000 OA
ATOM      4  H   UNL     1       2.754   7.164  20.568  0.00  0.00    +0.000 HD
ENDROOT
BRANCH   1  10
ATOM      5  C   UNL     1       4.517   5.193  17.037  0.00  0.00    +0.000 A 
ATOM      6  C   UNL     1       3.902   3.957  17.254  0.00  0.00    +0.000 A 
ATOM      7  C   UNL     1       2.919   3.843  18.237  0.00  0.00    +0.000 A 
ATOM      8  C   UNL     1       2.574   4.956  19.011  0.00  0.00    +0.000 A 
ATOM      9 CL   UNL     1       1.327   4.774  20.196  0.00  0.00    +0.000 Cl
ATOM     10  C   UNL     1       3.173   6.208  18.782  0.00  0.00    +0.000 A 
ATOM     11  C   UNL     1       4.161   6.318  17.796  0.00  0.00    +0.000 A 
BRANCH   5  12
ATOM     12  S   UNL     1       5.841   5.310  15.844  0.00  0.00    +0.000 S 
ATOM     13  O   UNL     1       5.585   6.485  15.036  0.00  0.00    +0.000 OA
ATOM     14  O   UNL     1       5.983   4.005  15.235  0.00  0.00    +0.000 OA
BRANCH  12  16
ATOM     15  C   UNL     1       7.441   7.003  17.224  0.00  0.00    +0.000 C 
ATOM     16  N   UNL     1       7.208   5.610  16.809  0.00  0.00    +0.000 NA
ATOM     17  C   UNL     1       7.494   4.627  17.870  0.00  0.00    +0.000 C 
ENDBRANCH  12  16
ENDBRANCH   5  12
ENDBRANCH   1  10
BRANCH   2  18
ATOM     18  C   UNL     1       1.621   9.419  20.121  0.00  0.00    +0.000 C 
BRANCH  18  19
ATOM     19  N   UNL     1       0.577  10.231  19.544  0.00  0.00    +0.000 N 
ATOM     20  C   UNL     1       0.813  11.345  18.802  0.00  0.00    +0.000 C 
ATOM     21  O   UNL     1       1.896  11.863  18.588  0.00  0.00    +0.000 OA
ATOM     22  N   UNL     1      -0.389  11.811  18.330  0.00  0.00    +0.000 N 
ATOM     23  C   UNL     1      -1.447  10.859  18.563  0.00  0.00    +0.000 C 
ATOM     24  C   UNL     1      -1.717   9.995  17.307  0.00  0.00    +0.000 C 
ATOM     25  C   UNL     1      -3.227  10.005  17.037  0.00  0.00    +0.000 C 
ATOM     26  C   UNL     1      -3.753  11.034  17.987  0.00  0.00    +0.000 A 
ATOM     27  C   UNL     1      -5.050  11.513  18.035  0.00  0.00    +0.000 A 
ATOM     28  C   UNL     1      -5.365  12.491  18.977  0.00  0.00    +0.000 A 
ATOM     29  C   UNL     1      -4.383  12.969  19.853  0.00  0.00    +0.000 A 
ATOM     30  C   UNL     1      -3.076  12.469  19.802  0.00  0.00    +0.000 A 
ATOM     31  C   UNL     1      -2.764  11.492  18.864  0.00  0.00    +0.000 A 
ATOM     32  C   UNL     1      -0.772   9.976  19.618  0.00  0.00    +0.000 C 
ATOM     33  O   UNL     1      -1.307   9.126  20.313  0.00  0.00    +0.000 OA
ATOM     34  H   UNL     1      -0.448  12.609  17.709  0.00  0.00    +0.000 HD
ENDBRANCH  18  19
ENDBRANCH   2  18
TORSDOF 5
ENDMDL
MODEL 2
REMARK VINA RESULT:      -8.1      2.993      4.194
REMARK  Name = 
REMARK  7 active torsions:
REMARK  status: ('A' for Active; 'I' for Inactive)
REMARK    1  A    between atoms: C_1  and  N_2
REMARK    2  A    between atoms: N_2  and  C_3
REMARK    3  A    between atoms: N_2  and  S_4
REMARK    4  A    between atoms: S_4  and  C_7
REMARK    5  A    between atoms: C_12  and  N_13
REMARK    6  A    between atoms: C_14  and  C_16
REMARK    7  A    between atoms: C_16  and  N_17
REMARK                            x       y       z     vdW  Elec       q    Type
REMARK                         _______ _______ _______ _____ _____    ______ ____
ROOT
ATOM      1  N   UNL     1       3.073   7.833  17.446  0.00  0.00    +0.000 N 
ATOM      2  C   UNL     1       2.325   8.565  18.357  0.00  0.00    +0.000 C 
ATOM      3  O   UNL     1       1.927   8.124  19.431  0.00  0.00    +0.000 OA
ATOM      4  H   UNL     1       3.563   8.349  16.721  0.00  0.00    +0.000 HD
ENDROOT
BRANCH   1  10
ATOM      5  C   UNL     1       3.250   4.207  18.332  0.00  0.00    +0.000 A 
ATOM      6  C   UNL     1       4.623   3.970  18.223  0.00  0.00    +0.000 A 
ATOM      7  C   UNL     1       5.472   5.013  17.853  0.00  0.00    +0.000 A 
ATOM      8  C   UNL     1       4.943   6.277  17.574  0.00  0.00    +0.000 A 
ATOM      9 CL   UNL     1       6.039   7.548  17.152  0.00  0.00    +0.000 Cl
ATOM     10  C   UNL     1       3.565   6.528  17.705  0.00  0.00    +0.000 A 
ATOM     11  C   UNL     1       2.716   5.478  18.073  0.00  0.00    +0.000 A 
BRANCH   5  12
ATOM     12  S   UNL     1       2.158   2.846  18.711  0.00  0.00    +0.000 S 
ATOM     13  O   UNL     1       2.953   1.636  18.669  0.00  0.00    +0.000 OA
ATOM     14  O   UNL     1       0.985   2.995  17.877  0.00  0.00    +0.000 OA
BRANCH  12  16
ATOM     15  C   UNL     1       2.654   2.697  21.369  0.00  0.00    +0.000 C 
ATOM     16  N   UNL     1       1.715   3.141  20.325  0.00  0.00    +0.000 NA
ATOM     17  C   UNL     1       1.098   4.449  20.611  0.00  0.00    +0.000 C 
ENDBRANCH  12  16
ENDBRANCH   5  12
ENDBRANCH   1  10
BRANCH   2  18
ATOM     18  C   UNL     1       1.983   9.988  17.896  0.00  0.00    +0.000 C 
BRANCH  18  19
ATOM     19  N   UNL     1       0.836  10.420  18.658  0.00  0.00    +0.000 N 
ATOM     20  C   UNL     1      -0.445  10.102  18.335  0.00  0.00    +0.000 C 
ATOM     21  O   UNL     1      -0.819   9.500  17.342  0.00  0.00    +0.000 OA
ATOM     22  N   UNL     1      -1.271  10.586  19.319  0.00  0.00    +0.000 N 
ATOM     23  C   UNL     1      -0.514  11.043  20.459  0.00  0.00    +0.000 C 
ATOM     24  C   UNL     1      -0.452   9.962  21.565  0.00  0.00    +0.000 C 
ATOM     25  C   UNL     1      -0.837  10.620  22.896  0.00  0.00    +0.000 C 
ATOM     26  C   UNL     1      -1.322  11.978  22.496  0.00  0.00    +0.000 A 
ATOM     27  C   UNL     1      -1.913  12.911  23.329  0.00  0.00    +0.000 A 
ATOM     28  C   UNL     1      -2.323  14.127  22.783  0.00  0.00    +0.000 A 
ATOM     29  C   UNL     1      -2.133  14.387  21.421  0.00  0.00    +0.000 A 
ATOM     30  C   UNL     1      -1.524  13.440  20.590  0.00  0.00    +0.000 A 
ATOM     31  C   UNL     1      -1.113  12.229  21.136  0.00  0.00    +0.000 A 
ATOM     32  C   UNL     1       0.873  11.156  19.818  0.00  0.00    +0.000 C 
ATOM     33  O   UNL     1       1.859  11.697  20.297  0.00  0.00    +0.000 OA
ATOM     34  H   UNL     1      -2.270  10.422  19.310  0.00  0.00    +0.000 HD
ENDBRANCH  18  19
ENDBRANCH   2  18
TORSDOF 5
ENDMDL
MODEL 3
REMARK VINA RESULT:      -7.9      3.299      4.935
REMARK  Name = 
REMARK  7 active torsions:
REMARK  status: ('A' for Active; 'I' for Inactive)
REMARK    1  A    between atoms: C_1  and  N_2
REMARK    2  A    between atoms: N_2  and  C_3
REMARK    3  A    between atoms: N_2  and  S_4
REMARK    4  A    between atoms: S_4  and  C_7
REMARK    5  A    between atoms: C_12  and  N_13
REMARK    6  A    between atoms: C_14  and  C_16
REMARK    7  A    between atoms: C_16  and  N_17
REMARK                            x       y       z     vdW  Elec       q    Type
REMARK                         _______ _______ _______ _____ _____    ______ ____
ROOT
ATOM      1  N   UNL     1       1.005   7.762  19.738  0.00  0.00    +0.000 N 
ATOM      2  C   UNL     1       1.095   8.665  20.787  0.00  0.00    +0.000 C 
ATOM      3  O   UNL     1       2.023   8.696  21.589  0.00  0.00    +0.000 OA
ATOM      4  H   UNL     1       0.348   7.975  18.992  0.00  0.00    +0.000 HD
ENDROOT
BRANCH   1  10
ATOM      5  C   UNL     1       3.174   4.721  19.656  0.00  0.00    +0.000 A 
ATOM      6  C   UNL     1       4.118   5.090  18.694  0.00  0.00    +0.000 A 
ATOM      7  C   UNL     1       4.022   6.339  18.082  0.00  0.00    +0.000 A 
ATOM      8  C   UNL     1       2.973   7.201  18.418  0.00  0.00    +0.000 A 
ATOM      9 CL   UNL     1       2.914   8.754  17.656  0.00  0.00    +0.000 Cl
ATOM     10  C   UNL     1       2.033   6.845  19.402  0.00  0.00    +0.000 A 
ATOM     11  C   UNL     1       2.131   5.589  20.011  0.00  0.00    +0.000 A 
BRANCH   5  12
ATOM     12  S   UNL     1       3.246   3.084  20.365  0.00  0.00    +0.000 S 
ATOM     13  O   UNL     1       2.475   3.115  21.591  0.00  0.00    +0.000 OA
ATOM     14  O   UNL     1       4.636   2.681  20.370  0.00  0.00    +0.000 OA
BRANCH  12  16
ATOM     15  C   UNL     1       0.995   2.460  18.995  0.00  0.00    +0.000 C 
ATOM     16  N   UNL     1       2.411   2.132  19.231  0.00  0.00    +0.000 NA
ATOM     17  C   UNL     1       3.143   1.778  18.001  0.00  0.00    +0.000 C 
ENDBRANCH  12  16
ENDBRANCH   5  12
ENDBRANCH   1  10
BRANCH   2  18
ATOM     18  C   UNL     1      -0.099   9.623  20.903  0.00  0.00    +0.000 C 
BRANCH  18  19
ATOM     19  N   UNL     1       0.151  10.728  20.010  0.00  0.00    +0.000 N 
ATOM     20  C   UNL     1      -0.190  10.724  18.694  0.00  0.00    +0.000 C 
ATOM     21  O   UNL     1      -0.663   9.792  18.065  0.00  0.00    +0.000 OA
ATOM     22  N   UNL     1       0.097  11.960  18.170  0.00  0.00    +0.000 N 
ATOM     23  C   UNL     1       0.427  12.905  19.210  0.00  0.00    +0.000 C 
ATOM     24  C   UNL     1      -0.797  13.769  19.597  0.00  0.00    +0.000 C 
ATOM     25  C   UNL     1      -0.362  15.240  19.591  0.00  0.00    +0.000 C 
ATOM     26  C   UNL     1       1.009  15.205  18.993  0.00  0.00    +0.000 A 
ATOM     27  C   UNL     1       1.776  16.303  18.646  0.00  0.00    +0.000 A 
ATOM     28  C   UNL     1       3.032  16.086  18.080  0.00  0.00    +0.000 A 
ATOM     29  C   UNL     1       3.498  14.782  17.876  0.00  0.00    +0.000 A 
ATOM     30  C   UNL     1       2.717  13.679  18.241  0.00  0.00    +0.000 A 
ATOM     31  C   UNL     1       1.467  13.896  18.807  0.00  0.00    +0.000 A 
ATOM     32  C   UNL     1       0.712  11.933  20.360  0.00  0.00    +0.000 C 
ATOM     33  O   UNL     1       1.234  12.200  21.432  0.00  0.00    +0.000 OA
ATOM     34  H   UNL     1      -0.122  12.201  17.212  0.00  0.00    +0.000 HD
ENDBRANCH  18  19
ENDBRANCH   2  18
TORSDOF 5
ENDMDL
MODEL 4
REMARK VINA RESULT:      -7.9      3.172      4.357
REMARK  Name = 
REMARK  7 active torsions:
REMARK  status: ('A' for Active; 'I' for Inactive)
REMARK    1  A    between atoms: C_1  and  N_2
REMARK    2  A    between atoms: N_2  and  C_3
REMARK    3  A    between atoms: N_2  and  S_4
REMARK    4  A    between atoms: S_4  and  C_7
REMARK    5  A    between atoms: C_12  and  N_13
REMARK    6  A    between atoms: C_14  and  C_16
REMARK    7  A    between atoms: C_16  and  N_17
REMARK                            x       y       z     vdW  Elec       q    Type
REMARK                         _______ _______ _______ _____ _____    ______ ____
ROOT
ATOM      1  N   UNL     1       3.008   7.623  17.845  0.00  0.00    +0.000 N 
ATOM      2  C   UNL     1       2.189   8.458  18.590  0.00  0.00    +0.000 C 
ATOM      3  O   UNL     1       1.800   8.204  19.726  0.00  0.00    +0.000 OA
ATOM      4  H   UNL     1       3.477   8.025  17.038  0.00  0.00    +0.000 HD
ENDROOT
BRANCH   1  10
ATOM      5  C   UNL     1       3.473   4.375  19.632  0.00  0.00    +0.000 A 
ATOM      6  C   UNL     1       4.814   4.101  19.348  0.00  0.00    +0.000 A 
ATOM      7  C   UNL     1       5.545   4.994  18.566  0.00  0.00    +0.000 A 
ATOM      8  C   UNL     1       4.929   6.140  18.054  0.00  0.00    +0.000 A 
ATOM      9 CL   UNL     1       5.886   7.234  17.115  0.00  0.00    +0.000 Cl
ATOM     10  C   UNL     1       3.587   6.433  18.355  0.00  0.00    +0.000 A 
ATOM     11  C   UNL     1       2.855   5.533  19.138  0.00  0.00    +0.000 A 
BRANCH   5  12
ATOM     12  S   UNL     1       2.515   3.182  20.553  0.00  0.00    +0.000 S 
ATOM     13  O   UNL     1       1.364   3.879  21.088  0.00  0.00    +0.000 OA
ATOM     14  O   UNL     1       3.433   2.481  21.426  0.00  0.00    +0.000 OA
BRANCH  12  16
ATOM     15  C   UNL     1       0.673   2.386  18.736  0.00  0.00    +0.000 C 
ATOM     16  N   UNL     1       1.979   2.104  19.353  0.00  0.00    +0.000 NA
ATOM     17  C   UNL     1       2.992   1.633  18.390  0.00  0.00    +0.000 C 
ENDBRANCH  12  16
ENDBRANCH   5  12
ENDBRANCH   1  10
BRANCH   2  18
ATOM     18  C   UNL     1       1.757   9.738  17.861  0.00  0.00    +0.000 C 
BRANCH  18  19
ATOM     19  N   UNL     1       0.686  10.326  18.628  0.00  0.00    +0.000 N 
ATOM     20  C   UNL     1      -0.631  10.139  18.348  0.00  0.00    +0.000 C 
ATOM     21  O   UNL     1      -1.096   9.541  17.392  0.00  0.00    +0.000 OA
ATOM     22  N   UNL     1      -1.372  10.753  19.327  0.00  0.00    +0.000 N 
ATOM     23  C   UNL     1      -0.538  11.171  20.428  0.00  0.00    +0.000 C 
ATOM     24  C   UNL     1      -0.564  10.138  21.581  0.00  0.00    +0.000 C 
ATOM     25  C   UNL     1      -0.839  10.890  22.889  0.00  0.00    +0.000 C 
ATOM     26  C   UNL     1      -1.181  12.276  22.439  0.00  0.00    +0.000 A 
ATOM     27  C   UNL     1      -1.643  13.303  23.242  0.00  0.00    +0.000 A 
ATOM     28  C   UNL     1      -1.932  14.532  22.652  0.00  0.00    +0.000 A 
ATOM     29  C   UNL     1      -1.752  14.712  21.275  0.00  0.00    +0.000 A 
ATOM     30  C   UNL     1      -1.274  13.669  20.475  0.00  0.00    +0.000 A 
ATOM     31  C   UNL     1      -0.984  12.444  21.065  0.00  0.00    +0.000 A 
ATOM     32  C   UNL     1       0.836  11.102  19.752  0.00  0.00    +0.000 C 
ATOM     33  O   UNL     1       1.887  11.550  20.184  0.00  0.00    +0.000 OA
ATOM     34  H   UNL     1      -2.382  10.700  19.349  0.00  0.00    +0.000 HD
ENDBRANCH  18  19
ENDBRANCH   2  18
TORSDOF 5
ENDMDL
MODEL 5
REMARK VINA RESULT:      -7.8      2.452      4.032
REMARK  Name = 
REMARK  7 active torsions:
REMARK  status: ('A' for Active; 'I' for Inactive)
REMARK    1  A    between atoms: C_1  and  N_2
REMARK    2  A    between atoms: N_2  and  C_3
REMARK    3  A    between atoms: N_2  and  S_4
REMARK    4  A    between atoms: S_4  and  C_7
REMARK    5  A    between atoms: C_12  and  N_13
REMARK    6  A    between atoms: C_14  and  C_16
REMARK    7  A    between atoms: C_16  and  N_17
REMARK                            x       y       z     vdW  Elec       q    Type
REMARK                         _______ _______ _______ _____ _____    ______ ____
ROOT
ATOM      1  N   UNL     1       1.320   7.597  19.396  0.00  0.00    +0.000 N 
ATOM      2  C   UNL     1       1.326   8.386  20.536  0.00  0.00    +0.000 C 
ATOM      3  O   UNL     1       2.177   8.314  21.418  0.00  0.00    +0.000 OA
ATOM      4  H   UNL     1       0.737   7.899  18.620  0.00  0.00    +0.000 HD
ENDROOT
BRANCH   1  10
ATOM      5  C   UNL     1       4.365   6.107  17.826  0.00  0.00    +0.000 A 
ATOM      6  C   UNL     1       4.390   4.846  18.429  0.00  0.00    +0.000 A 
ATOM      7  C   UNL     1       3.399   4.508  19.351  0.00  0.00    +0.000 A 
ATOM      8  C   UNL     1       2.406   5.436  19.680  0.00  0.00    +0.000 A 
ATOM      9 CL   UNL     1       1.180   4.958  20.804  0.00  0.00    +0.000 Cl
ATOM     10  C   UNL     1       2.363   6.697  19.060  0.00  0.00    +0.000 A 
ATOM     11  C   UNL     1       3.361   7.035  18.138  0.00  0.00    +0.000 A 
BRANCH   5  12
ATOM     12  S   UNL     1       5.689   6.570  16.721  0.00  0.00    +0.000 S 
ATOM     13  O   UNL     1       6.544   7.491  17.440  0.00  0.00    +0.000 OA
ATOM     14  O   UNL     1       5.083   6.946  15.462  0.00  0.00    +0.000 OA
BRANCH  12  16
ATOM     15  C   UNL     1       6.884   4.744  15.117  0.00  0.00    +0.000 C 
ATOM     16  N   UNL     1       6.538   5.113  16.500  0.00  0.00    +0.000 NA
ATOM     17  C   UNL     1       7.609   4.821  17.470  0.00  0.00    +0.000 C 
ENDBRANCH  12  16
ENDBRANCH   5  12
ENDBRANCH   1  10
BRANCH   2  18
ATOM     18  C   UNL     1       0.139   9.353  20.644  0.00  0.00    +0.000 C 
BRANCH  18  19
ATOM     19  N   UNL     1       0.452  10.507  19.836  0.00  0.00    +0.000 N 
ATOM     20  C   UNL     1       0.180  10.591  18.506  0.00  0.00    +0.000 C 
ATOM     21  O   UNL     1      -0.274   9.708  17.797  0.00  0.00    +0.000 OA
ATOM     22  N   UNL     1       0.513  11.851  18.077  0.00  0.00    +0.000 N 
ATOM     23  C   UNL     1       0.804  12.723  19.189  0.00  0.00    +0.000 C 
ATOM     24  C   UNL     1      -0.425  13.585  19.566  0.00  0.00    +0.000 C 
ATOM     25  C   UNL     1       0.033  15.045  19.675  0.00  0.00    +0.000 C 
ATOM     26  C   UNL     1       1.433  15.021  19.147  0.00  0.00    +0.000 A 
ATOM     27  C   UNL     1       2.234  16.123  18.908  0.00  0.00    +0.000 A 
ATOM     28  C   UNL     1       3.514  15.918  18.395  0.00  0.00    +0.000 A 
ATOM     29  C   UNL     1       3.969  14.621  18.134  0.00  0.00    +0.000 A 
ATOM     30  C   UNL     1       3.153  13.512  18.389  0.00  0.00    +0.000 A 
ATOM     31  C   UNL     1       1.878  13.718  18.903  0.00  0.00    +0.000 A 
ATOM     32  C   UNL     1       1.013  11.676  20.289  0.00  0.00    +0.000 C 
ATOM     33  O   UNL     1       1.483  11.867  21.401  0.00  0.00    +0.000 OA
ATOM     34  H   UNL     1       0.348  12.155  17.125  0.00  0.00    +0.000 HD
ENDBRANCH  18  19
ENDBRANCH   2  18
TORSDOF 5
ENDMDL
MODEL 6
REMARK VINA RESULT:      -7.8      2.495      3.854
REMARK  Name = 
REMARK  7 active torsions:
REMARK  status: ('A' for Active; 'I' for Inactive)
REMARK    1  A    between atoms: C_1  and  N_2
REMARK    2  A    between atoms: N_2  and  C_3
REMARK    3  A    between atoms: N_2  and  S_4
REMARK    4  A    between atoms: S_4  and  C_7
REMARK    5  A    between atoms: C_12  and  N_13
REMARK    6  A    between atoms: C_14  and  C_16
REMARK    7  A    between atoms: C_16  and  N_17
REMARK                            x       y       z     vdW  Elec       q    Type
REMARK                         _______ _______ _______ _____ _____    ______ ____
ROOT
ATOM      1  N   UNL     1       1.916   6.591  20.461  0.00  0.00    +0.000 N 
ATOM      2  C   UNL     1       1.773   7.837  19.868  0.00  0.00    +0.000 C 
ATOM      3  O   UNL     1       2.461   8.236  18.933  0.00  0.00    +0.000 OA
ATOM      4  H   UNL     1       1.151   6.258  21.041  0.00  0.00    +0.000 HD
ENDROOT
BRANCH   1  10
ATOM      5  C   UNL     1       4.943   4.859  19.121  0.00  0.00    +0.000 A 
ATOM      6  C   UNL     1       4.475   3.547  19.008  0.00  0.00    +0.000 A 
ATOM      7  C   UNL     1       3.164   3.253  19.381  0.00  0.00    +0.000 A 
ATOM      8  C   UNL     1       2.338   4.263  19.884  0.00  0.00    +0.000 A 
ATOM      9 CL   UNL     1       0.709   3.856  20.303  0.00  0.00    +0.000 Cl
ATOM     10  C   UNL     1       2.796   5.589  19.978  0.00  0.00    +0.000 A 
ATOM     11  C   UNL     1       4.113   5.881  19.606  0.00  0.00    +0.000 A 
BRANCH   5  12
ATOM     12  S   UNL     1       6.650   5.211  18.733  0.00  0.00    +0.000 S 
ATOM     13  O   UNL     1       7.120   4.149  17.868  0.00  0.00    +0.000 OA
ATOM     14  O   UNL     1       7.320   5.505  19.982  0.00  0.00    +0.000 OA
BRANCH  12  16
ATOM     15  C   UNL     1       7.736   7.519  17.825  0.00  0.00    +0.000 C 
ATOM     16  N   UNL     1       6.554   6.642  17.820  0.00  0.00    +0.000 NA
ATOM     17  C   UNL     1       5.907   6.539  16.499  0.00  0.00    +0.000 C 
ENDBRANCH  12  16
ENDBRANCH   5  12
ENDBRANCH   1  10
BRANCH   2  18
ATOM     18  C   UNL     1       0.694   8.723  20.506  0.00  0.00    +0.000 C 
BRANCH  18  19
ATOM     19  N   UNL     1       0.676   9.968  19.777  0.00  0.00    +0.000 N 
ATOM     20  C   UNL     1       0.152  10.102  18.530  0.00  0.00    +0.000 C 
ATOM     21  O   UNL     1      -0.289   9.211  17.824  0.00  0.00    +0.000 OA
ATOM     22  N   UNL     1       0.209  11.428  18.179  0.00  0.00    +0.000 N 
ATOM     23  C   UNL     1       0.568  12.253  19.308  0.00  0.00    +0.000 C 
ATOM     24  C   UNL     1      -0.684  12.871  19.976  0.00  0.00    +0.000 C 
ATOM     25  C   UNL     1      -0.437  14.375  20.152  0.00  0.00    +0.000 C 
ATOM     26  C   UNL     1       0.828  14.620  19.391  0.00  0.00    +0.000 A 
ATOM     27  C   UNL     1       1.398  15.853  19.131  0.00  0.00    +0.000 A 
ATOM     28  C   UNL     1       2.576  15.900  18.387  0.00  0.00    +0.000 A 
ATOM     29  C   UNL     1       3.163  14.718  17.921  0.00  0.00    +0.000 A 
ATOM     30  C   UNL     1       2.583  13.475  18.200  0.00  0.00    +0.000 A 
ATOM     31  C   UNL     1       1.410  13.429  18.943  0.00  0.00    +0.000 A 
ATOM     32  C   UNL     1       1.132  11.178  20.243  0.00  0.00    +0.000 C 
ATOM     33  O   UNL     1       1.766  11.361  21.271  0.00  0.00    +0.000 OA
ATOM     34  H   UNL     1      -0.174  11.769  17.306  0.00  0.00    +0.000 HD
ENDBRANCH  18  19
ENDBRANCH   2  18
TORSDOF 5
ENDMDL
MODEL 7
REMARK VINA RESULT:      -7.8      3.487      4.312
REMARK  Name = 
REMARK  7 active torsions:
REMARK  status: ('A' for Active; 'I' for Inactive)
REMARK    1  A    between atoms: C_1  and  N_2
REMARK    2  A    between atoms: N_2  and  C_3
REMARK    3  A    between atoms: N_2  and  S_4
REMARK    4  A    between atoms: S_4  and  C_7
REMARK    5  A    between atoms: C_12  and  N_13
REMARK    6  A    between atoms: C_14  and  C_16
REMARK    7  A    between atoms: C_16  and  N_17
REMARK                            x       y       z     vdW  Elec       q    Type
REMARK                         _______ _______ _______ _____ _____    ______ ____
ROOT
ATOM      1  N   UNL     1       1.560   8.461  21.352  0.00  0.00    +0.000 N 
ATOM      2  C   UNL     1       0.287   8.852  21.738  0.00  0.00    +0.000 C 
ATOM      3  O   UNL     1      -0.746   8.441  21.217  0.00  0.00    +0.000 OA
ATOM      4  H   UNL     1       2.323   8.651  21.995  0.00  0.00    +0.000 HD
ENDROOT
BRANCH   1  10
ATOM      5  C   UNL     1       2.094   5.130  19.745  0.00  0.00    +0.000 A 
ATOM      6  C   UNL     1       2.340   5.506  18.421  0.00  0.00    +0.000 A 
ATOM      7  C   UNL     1       2.323   6.858  18.078  0.00  0.00    +0.000 A 
ATOM      8  C   UNL     1       2.038   7.821  19.051  0.00  0.00    +0.000 A 
ATOM      9 CL   UNL     1       2.060   9.487  18.584  0.00  0.00    +0.000 Cl
ATOM     10  C   UNL     1       1.812   7.451  20.389  0.00  0.00    +0.000 A 
ATOM     11  C   UNL     1       1.827   6.093  20.729  0.00  0.00    +0.000 A 
BRANCH   5  12
ATOM     12  S   UNL     1       2.022   3.395  20.159  0.00  0.00    +0.000 S 
ATOM     13  O   UNL     1       0.788   2.875  19.607  0.00  0.00    +0.000 OA
ATOM     14  O   UNL     1       2.311   3.281  21.572  0.00  0.00    +0.000 OA
BRANCH  12  16
ATOM     15  C   UNL     1       4.457   2.215  20.064  0.00  0.00    +0.000 C 
ATOM     16  N   UNL     1       3.320   2.732  19.285  0.00  0.00    +0.000 NA
ATOM     17  C   UNL     1       2.973   1.890  18.125  0.00  0.00    +0.000 C 
ENDBRANCH  12  16
ENDBRANCH   5  12
ENDBRANCH   1  10
BRANCH   2  18
ATOM     18  C   UNL     1       0.259   9.895  22.864  0.00  0.00    +0.000 C 
BRANCH  18  19
ATOM     19  N   UNL     1      -0.250  11.121  22.299  0.00  0.00    +0.000 N 
ATOM     20  C   UNL     1       0.439  11.881  21.407  0.00  0.00    +0.000 C 
ATOM     21  O   UNL     1       1.583  11.701  21.025  0.00  0.00    +0.000 OA
ATOM     22  N   UNL     1      -0.372  12.913  21.002  0.00  0.00    +0.000 N 
ATOM     23  C   UNL     1      -1.729  12.719  21.454  0.00  0.00    +0.000 C 
ATOM     24  C   UNL     1      -2.609  12.091  20.346  0.00  0.00    +0.000 C 
ATOM     25  C   UNL     1      -3.892  12.923  20.227  0.00  0.00    +0.000 C 
ATOM     26  C   UNL     1      -3.625  14.115  21.092  0.00  0.00    +0.000 A 
ATOM     27  C   UNL     1      -4.431  15.234  21.209  0.00  0.00    +0.000 A 
ATOM     28  C   UNL     1      -4.019  16.266  22.052  0.00  0.00    +0.000 A 
ATOM     29  C   UNL     1      -2.817  16.160  22.761  0.00  0.00    +0.000 A 
ATOM     30  C   UNL     1      -2.016  15.018  22.643  0.00  0.00    +0.000 A 
ATOM     31  C   UNL     1      -2.428  13.989  21.804  0.00  0.00    +0.000 A 
ATOM     32  C   UNL     1      -1.492  11.661  22.537  0.00  0.00    +0.000 C 
ATOM     33  O   UNL     1      -2.292  11.283  23.379  0.00  0.00    +0.000 OA
ATOM     34  H   UNL     1      -0.081  13.580  20.299  0.00  0.00    +0.000 HD
ENDBRANCH  18  19
ENDBRANCH   2  18
TORSDOF 5
ENDMDL
MODEL 8
REMARK VINA RESULT:      -7.7      2.858      4.072
REMARK  Name = 
REMARK  7 active torsions:
REMARK  status: ('A' for Active; 'I' for Inactive)
REMARK    1  A    between atoms: C_1  and  N_2
REMARK    2  A    between atoms: N_2  and  C_3
REMARK    3  A    between atoms: N_2  and  S_4
REMARK    4  A    between atoms: S_4  and  C_7
REMARK    5  A    between atoms: C_12  and  N_13
REMARK    6  A    between atoms: C_14  and  C_16
REMARK    7  A    between atoms: C_16  and  N_17
REMARK                            x       y       z     vdW  Elec       q    Type
REMARK                         _______ _______ _______ _____ _____    ______ ____
ROOT
ATOM      1  N   UNL     1       1.415  10.071  19.451  0.00  0.00    +0.000 N 
ATOM      2  C   UNL     1       0.359  10.567  18.701  0.00  0.00    +0.000 C 
ATOM      3  O   UNL     1      -0.444   9.863  18.096  0.00  0.00    +0.000 OA
ATOM      4  H   UNL     1       1.860  10.704  20.109  0.00  0.00    +0.000 HD
ENDROOT
BRANCH   1  10
ATOM      5  C   UNL     1       2.519   6.517  19.111  0.00  0.00    +0.000 A 
ATOM      6  C   UNL     1       1.959   5.950  20.259  0.00  0.00    +0.000 A 
ATOM      7  C   UNL     1       1.227   6.753  21.133  0.00  0.00    +0.000 A 
ATOM      8  C   UNL     1       1.078   8.118  20.867  0.00  0.00    +0.000 A 
ATOM      9 CL   UNL     1       0.133   9.067  21.963  0.00  0.00    +0.000 Cl
ATOM     10  C   UNL     1       1.619   8.690  19.702  0.00  0.00    +0.000 A 
ATOM     11  C   UNL     1       2.356   7.882  18.828  0.00  0.00    +0.000 A 
BRANCH   5  12
ATOM     12  S   UNL     1       3.536   5.506  18.046  0.00  0.00    +0.000 S 
ATOM     13  O   UNL     1       4.284   6.404  17.191  0.00  0.00    +0.000 OA
ATOM     14  O   UNL     1       2.680   4.484  17.484  0.00  0.00    +0.000 OA
BRANCH  12  16
ATOM     15  C   UNL     1       4.530   3.308  19.275  0.00  0.00    +0.000 C 
ATOM     16  N   UNL     1       4.620   4.770  19.129  0.00  0.00    +0.000 NA
ATOM     17  C   UNL     1       6.006   5.274  19.119  0.00  0.00    +0.000 C 
ENDBRANCH  12  16
ENDBRANCH   5  12
ENDBRANCH   1  10
BRANCH   2  18
ATOM     18  C   UNL     1       0.287  12.099  18.643  0.00  0.00    +0.000 C 
BRANCH  18  19
ATOM     19  N   UNL     1      -0.245  12.550  19.906  0.00  0.00    +0.000 N 
ATOM     20  C   UNL     1       0.528  12.872  20.977  0.00  0.00    +0.000 C 
ATOM     21  O   UNL     1       1.738  12.753  21.065  0.00  0.00    +0.000 OA
ATOM     22  N   UNL     1      -0.289  13.353  21.970  0.00  0.00    +0.000 N 
ATOM     23  C   UNL     1      -1.627  13.583  21.480  0.00  0.00    +0.000 C 
ATOM     24  C   UNL     1      -1.842  15.068  21.100  0.00  0.00    +0.000 C 
ATOM     25  C   UNL     1      -3.142  15.545  21.760  0.00  0.00    +0.000 C 
ATOM     26  C   UNL     1      -3.517  14.416  22.667  0.00  0.00    +0.000 A 
ATOM     27  C   UNL     1      -4.549  14.419  23.590  0.00  0.00    +0.000 A 
ATOM     28  C   UNL     1      -4.747  13.281  24.371  0.00  0.00    +0.000 A 
ATOM     29  C   UNL     1      -3.917  12.165  24.214  0.00  0.00    +0.000 A 
ATOM     30  C   UNL     1      -2.884  12.170  23.270  0.00  0.00    +0.000 A 
ATOM     31  C   UNL     1      -2.688  13.303  22.491  0.00  0.00    +0.000 A 
ATOM     32  C   UNL     1      -1.574  12.759  20.189  0.00  0.00    +0.000 C 
ATOM     33  O   UNL     1      -2.519  12.446  19.481  0.00  0.00    +0.000 OA
ATOM     34  H   UNL     1       0.079  13.702  22.846  0.00  0.00    +0.000 HD
ENDBRANCH  18  19
ENDBRANCH   2  18
TORSDOF 5
ENDMDL
MODEL 9
REMARK VINA RESULT:      -7.7      0.913      1.160
REMARK  Name = 
REMARK  7 active torsions:
REMARK  status: ('A' for Active; 'I' for Inactive)
REMARK    1  A    between atoms: C_1  and  N_2
REMARK    2  A    between atoms: N_2  and  C_3
REMARK    3  A    between atoms: N_2  and  S_4
REMARK    4  A    between atoms: S_4  and  C_7
REMARK    5  A    between atoms: C_12  and  N_13
REMARK    6  A    between atoms: C_14  and  C_16
REMARK    7  A    between atoms: C_16  and  N_17
REMARK                            x       y       z     vdW  Elec       q    Type
REMARK                         _______ _______ _______ _____ _____    ______ ____
ROOT
ATOM      1  N   UNL     1       2.679   7.038  20.049  0.00  0.00    +0.000 N 
ATOM      2  C   UNL     1       2.070   8.130  19.448  0.00  0.00    +0.000 C 
ATOM      3  O   UNL     1       1.905   8.244  18.237  0.00  0.00    +0.000 OA
ATOM      4  H   UNL     1       2.542   6.917  21.049  0.00  0.00    +0.000 HD
ENDROOT
BRANCH   1  10
ATOM      5  C   UNL     1       4.607   4.659  17.908  0.00  0.00    +0.000 A 
ATOM      6  C   UNL     1       3.782   3.531  17.949  0.00  0.00    +0.000 A 
ATOM      7  C   UNL     1       2.600   3.572  18.688  0.00  0.00    +0.000 A 
ATOM      8  C   UNL     1       2.262   4.728  19.398  0.00  0.00    +0.000 A 
ATOM      9 CL   UNL     1       0.770   4.743  20.274  0.00  0.00    +0.000 Cl
ATOM     10  C   UNL     1       3.075   5.874  19.342  0.00  0.00    +0.000 A 
ATOM     11  C   UNL     1       4.262   5.828  18.602  0.00  0.00    +0.000 A 
BRANCH   5  12
ATOM     12  S   UNL     1       6.164   4.568  17.039  0.00  0.00    +0.000 S 
ATOM     13  O   UNL     1       5.995   3.621  15.956  0.00  0.00    +0.000 OA
ATOM     14  O   UNL     1       7.198   4.383  18.035  0.00  0.00    +0.000 OA
BRANCH  12  16
ATOM     15  C   UNL     1       5.171   6.660  15.637  0.00  0.00    +0.000 C 
ATOM     16  N   UNL     1       6.328   6.122  16.371  0.00  0.00    +0.000 NA
ATOM     17  C   UNL     1       7.013   7.129  17.204  0.00  0.00    +0.000 C 
ENDBRANCH  12  16
ENDBRANCH   5  12
ENDBRANCH   1  10
BRANCH   2  18
ATOM     18  C   UNL     1       1.643   9.234  20.425  0.00  0.00    +0.000 C 
BRANCH  18  19
ATOM     19  N   UNL     1       0.651  10.038  19.754  0.00  0.00    +0.000 N 
ATOM     20  C   UNL     1       0.950  11.132  19.004  0.00  0.00    +0.000 C 
ATOM     21  O   UNL     1       2.050  11.637  18.857  0.00  0.00    +0.000 OA
ATOM     22  N   UNL     1      -0.210  11.594  18.434  0.00  0.00    +0.000 N 
ATOM     23  C   UNL     1      -1.291  10.656  18.613  0.00  0.00    +0.000 C 
ATOM     24  C   UNL     1      -1.476   9.762  17.362  0.00  0.00    +0.000 C 
ATOM     25  C   UNL     1      -2.962   9.775  16.983  0.00  0.00    +0.000 C 
ATOM     26  C   UNL     1      -3.547  10.832  17.866  0.00  0.00    +0.000 A 
ATOM     27  C   UNL     1      -4.840  11.321  17.808  0.00  0.00    +0.000 A 
ATOM     28  C   UNL     1      -5.214  12.325  18.700  0.00  0.00    +0.000 A 
ATOM     29  C   UNL     1      -4.294  12.817  19.633  0.00  0.00    +0.000 A 
ATOM     30  C   UNL     1      -2.992  12.307  19.690  0.00  0.00    +0.000 A 
ATOM     31  C   UNL     1      -2.620  11.305  18.801  0.00  0.00    +0.000 A 
ATOM     32  C   UNL     1      -0.702   9.795  19.736  0.00  0.00    +0.000 C 
ATOM     33  O   UNL     1      -1.294   8.966  20.410  0.00  0.00    +0.000 OA
ATOM     34  H   UNL     1      -0.217  12.377  17.792  0.00  0.00    +0.000 HD
ENDBRANCH  18  19
ENDBRANCH   2  18
TORSDOF 5
ENDMDL
