MODEL 1
REMARK VINA RESULT:      -7.8      0.000      0.000
REMARK  Name = 
REMARK  5 active torsions:
REMARK  status: ('A' for Active; 'I' for Inactive)
REMARK    1  A    between atoms: C_1  and  C_2
REMARK    2  A    between atoms: C_2  and  C_3
REMARK    3  A    between atoms: C_2  and  C_11
REMARK    4  A    between atoms: C_15  and  C_16
REMARK    5  A    between atoms: C_16  and  C_18
REMARK                            x       y       z     vdW  Elec       q    Type
REMARK                         _______ _______ _______ _____ _____    ______ ____
ROOT
ATOM      1  C   UNL     1       0.896   9.378  20.049  0.00  0.00    +0.000 A 
ATOM      2  C   UNL     1       0.843   9.912  18.753  0.00  0.00    +0.000 A 
ATOM      3  C   UNL     1       1.509   9.284  17.697  0.00  0.00    +0.000 A 
ATOM      4  C   UNL     1       2.207   8.096  17.917  0.00  0.00    +0.000 A 
ATOM      5  C   UNL     1       2.259   7.540  19.198  0.00  0.00    +0.000 A 
ATOM      6  C   UNL     1       1.646   8.209  20.266  0.00  0.00    +0.000 A 
ENDROOT
BRANCH   1   8
ATOM      7  C   UNL     1       0.260   9.125  22.421  0.00  0.00    +0.000 C 
ATOM      8  C   UNL     1       0.019   9.959  21.152  0.00  0.00    +0.000 C 
BRANCH   8   9
ATOM      9  C   UNL     1       0.293  11.452  21.424  0.00  0.00    +0.000 C 
ATOM     10  O   UNL     1       1.453  11.878  21.427  0.00  0.00    +0.000 OA
ATOM     11  N   UNL     1      -0.783  12.312  21.612  0.00  0.00    +0.000 N 
ATOM     12  C   UNL     1      -2.189  11.919  21.770  0.00  0.00    +0.000 C 
ATOM     13  C   UNL     1      -2.714  12.209  23.180  0.00  0.00    +0.000 C 
ATOM     14  S   UNL     1      -2.614  13.981  23.602  0.00  0.00    +0.000 S 
ATOM     15  C   UNL     1      -0.853  14.241  23.194  0.00  0.00    +0.000 C 
ATOM     16  C   UNL     1      -0.520  13.748  21.786  0.00  0.00    +0.000 C 
ENDBRANCH   8   9
ENDBRANCH   1   8
BRANCH   5  17
ATOM     17  C   UNL     1       2.950   6.236  19.389  0.00  0.00    +0.000 C 
ATOM     18  O   UNL     1       4.172   6.216  19.500  0.00  0.00    +0.000 OA
BRANCH  17  19
ATOM     19  C   UNL     1       2.196   4.952  19.447  0.00  0.00    +0.000 A 
ATOM     20  C   UNL     1       1.861   4.435  20.703  0.00  0.00    +0.000 A 
ATOM     21  C   UNL     1       1.110   3.263  20.800  0.00  0.00    +0.000 A 
ATOM     22  C   UNL     1       0.695   2.600  19.644  0.00  0.00    +0.000 A 
ATOM     23  C   UNL     1       1.056   3.092  18.390  0.00  0.00    +0.000 A 
ATOM     24  C   UNL     1       1.824   4.253  18.290  0.00  0.00    +0.000 A 
ENDBRANCH  17  19
ENDBRANCH   5  17
TORSDOF 4
ENDMDL
MODEL 2
REMARK VINA RESULT:      -7.7      1.042      1.456
REMARK  Name = 
REMARK  5 active torsions:
REMARK  status: ('A' for Active; 'I' for Inactive)
REMARK    1  A    between atoms: C_1  and  C_2
REMARK    2  A    between atoms: C_2  and  C_3
REMARK    3  A    between atoms: C_2  and  C_11
REMARK    4  A    between atoms: C_15  and  C_16
REMARK    5  A    between atoms: C_16  and  C_18
REMARK                            x       y       z     vdW  Elec       q    Type
REMARK                         _______ _______ _______ _____ _____    ______ ____
ROOT
ATOM      1  C   UNL     1       0.990   9.155  19.669  0.00  0.00    +0.000 A 
ATOM      2  C   UNL     1       1.264   9.722  18.417  0.00  0.00    +0.000 A 
ATOM      3  C   UNL     1       2.158   9.106  17.538  0.00  0.00    +0.000 A 
ATOM      4  C   UNL     1       2.763   7.897  17.886  0.00  0.00    +0.000 A 
ATOM      5  C   UNL     1       2.490   7.309  19.124  0.00  0.00    +0.000 A 
ATOM      6  C   UNL     1       1.645   7.965  20.029  0.00  0.00    +0.000 A 
ENDROOT
BRANCH   1   8
ATOM      7  C   UNL     1      -0.261   8.816  21.771  0.00  0.00    +0.000 C 
ATOM      8  C   UNL     1      -0.121   9.729  20.542  0.00  0.00    +0.000 C 
BRANCH   8   9
ATOM      9  C   UNL     1       0.136  11.187  20.975  0.00  0.00    +0.000 C 
ATOM     10  O   UNL     1       1.094  11.455  21.708  0.00  0.00    +0.000 OA
ATOM     11  N   UNL     1      -0.691  12.192  20.486  0.00  0.00    +0.000 N 
ATOM     12  C   UNL     1      -1.933  11.999  19.728  0.00  0.00    +0.000 C 
ATOM     13  C   UNL     1      -3.167  12.443  20.519  0.00  0.00    +0.000 C 
ATOM     14  S   UNL     1      -3.097  14.208  20.972  0.00  0.00    +0.000 S 
ATOM     15  C   UNL     1      -1.444  14.208  21.749  0.00  0.00    +0.000 C 
ATOM     16  C   UNL     1      -0.389  13.588  20.833  0.00  0.00    +0.000 C 
ENDBRANCH   8   9
ENDBRANCH   1   8
BRANCH   5  17
ATOM     17  C   UNL     1       3.093   5.985  19.439  0.00  0.00    +0.000 C 
ATOM     18  O   UNL     1       4.309   5.898  19.576  0.00  0.00    +0.000 OA
BRANCH  17  19
ATOM     19  C   UNL     1       2.257   4.762  19.593  0.00  0.00    +0.000 A 
ATOM     20  C   UNL     1       1.802   4.117  18.437  0.00  0.00    +0.000 A 
ATOM     21  C   UNL     1       1.061   2.939  18.538  0.00  0.00    +0.000 A 
ATOM     22  C   UNL     1       0.766   2.403  19.792  0.00  0.00    +0.000 A 
ATOM     23  C   UNL     1       1.185   3.059  20.947  0.00  0.00    +0.000 A 
ATOM     24  C   UNL     1       1.911   4.249  20.852  0.00  0.00    +0.000 A 
ENDBRANCH  17  19
ENDBRANCH   5  17
TORSDOF 4
ENDMDL
MODEL 3
REMARK VINA RESULT:      -7.7      4.616      6.701
REMARK  Name = 
REMARK  5 active torsions:
REMARK  status: ('A' for Active; 'I' for Inactive)
REMARK    1  A    between atoms: C_1  and  C_2
REMARK    2  A    between atoms: C_2  and  C_3
REMARK    3  A    between atoms: C_2  and  C_11
REMARK    4  A    between atoms: C_15  and  C_16
REMARK    5  A    between atoms: C_16  and  C_18
REMARK                            x       y       z     vdW  Elec       q    Type
REMARK                         _______ _______ _______ _____ _____    ______ ____
ROOT
ATOM      1  C   UNL     1       3.817   5.031  18.037  0.00  0.00    +0.000 A 
ATOM      2  C   UNL     1       4.412   4.490  19.185  0.00  0.00    +0.000 A 
ATOM      3  C   UNL     1       5.788   4.250  19.228  0.00  0.00    +0.000 A 
ATOM      4  C   UNL     1       6.591   4.579  18.136  0.00  0.00    +0.000 A 
ATOM      5  C   UNL     1       6.018   5.133  16.987  0.00  0.00    +0.000 A 
ATOM      6  C   UNL     1       4.630   5.309  16.924  0.00  0.00    +0.000 A 
ENDROOT
BRANCH   1   8
ATOM      7  C   UNL     1       1.498   4.202  17.865  0.00  0.00    +0.000 C 
ATOM      8  C   UNL     1       2.355   5.462  18.063  0.00  0.00    +0.000 C 
BRANCH   8   9
ATOM      9  C   UNL     1       1.958   6.191  19.363  0.00  0.00    +0.000 C 
ATOM     10  O   UNL     1       1.579   5.542  20.344  0.00  0.00    +0.000 OA
ATOM     11  N   UNL     1       2.085   7.574  19.427  0.00  0.00    +0.000 N 
ATOM     12  C   UNL     1       2.387   8.469  18.304  0.00  0.00    +0.000 C 
ATOM     13  C   UNL     1       1.202   9.374  17.952  0.00  0.00    +0.000 C 
ATOM     14  S   UNL     1       0.707  10.436  19.351  0.00  0.00    +0.000 S 
ATOM     15  C   UNL     1       0.536   9.129  20.615  0.00  0.00    +0.000 C 
ATOM     16  C   UNL     1       1.787   8.254  20.696  0.00  0.00    +0.000 C 
ENDBRANCH   8   9
ENDBRANCH   1   8
BRANCH   5  17
ATOM     17  C   UNL     1       6.909   5.541  15.866  0.00  0.00    +0.000 C 
ATOM     18  O   UNL     1       7.739   6.425  16.051  0.00  0.00    +0.000 OA
BRANCH  17  19
ATOM     19  C   UNL     1       6.817   4.902  14.523  0.00  0.00    +0.000 A 
ATOM     20  C   UNL     1       5.811   3.954  14.305  0.00  0.00    +0.000 A 
ATOM     21  C   UNL     1       5.658   3.372  13.046  0.00  0.00    +0.000 A 
ATOM     22  C   UNL     1       6.512   3.730  12.002  0.00  0.00    +0.000 A 
ATOM     23  C   UNL     1       7.537   4.648  12.222  0.00  0.00    +0.000 A 
ATOM     24  C   UNL     1       7.705   5.218  13.485  0.00  0.00    +0.000 A 
ENDBRANCH  17  19
ENDBRANCH   5  17
TORSDOF 4
ENDMDL
MODEL 4
REMARK VINA RESULT:      -7.6      1.072      1.150
REMARK  Name = 
REMARK  5 active torsions:
REMARK  status: ('A' for Active; 'I' for Inactive)
REMARK    1  A    between atoms: C_1  and  C_2
REMARK    2  A    between atoms: C_2  and  C_3
REMARK    3  A    between atoms: C_2  and  C_11
REMARK    4  A    between atoms: C_15  and  C_16
REMARK    5  A    between atoms: C_16  and  C_18
REMARK                            x       y       z     vdW  Elec       q    Type
REMARK                         _______ _______ _______ _____ _____    ______ ____
ROOT
ATOM      1  C   UNL     1       0.930   9.042  19.762  0.00  0.00    +0.000 A 
ATOM      2  C   UNL     1       1.183   9.694  18.546  0.00  0.00    +0.000 A 
ATOM      3  C   UNL     1       2.113   9.176  17.641  0.00  0.00    +0.000 A 
ATOM      4  C   UNL     1       2.777   7.983  17.925  0.00  0.00    +0.000 A 
ATOM      5  C   UNL     1       2.528   7.311  19.125  0.00  0.00    +0.000 A 
ATOM      6  C   UNL     1       1.645   7.869  20.059  0.00  0.00    +0.000 A 
ENDROOT
BRANCH   1   8
ATOM      7  C   UNL     1      -0.437   8.421  21.722  0.00  0.00    +0.000 C 
ATOM      8  C   UNL     1      -0.214   9.506  20.656  0.00  0.00    +0.000 C 
BRANCH   8   9
ATOM      9  C   UNL     1       0.048  10.874  21.319  0.00  0.00    +0.000 C 
ATOM     10  O   UNL     1       0.818  10.957  22.282  0.00  0.00    +0.000 OA
ATOM     11  N   UNL     1      -0.553  12.009  20.786  0.00  0.00    +0.000 N 
ATOM     12  C   UNL     1      -1.587  12.033  19.744  0.00  0.00    +0.000 C 
ATOM     13  C   UNL     1      -2.936  12.522  20.280  0.00  0.00    +0.000 C 
ATOM     14  S   UNL     1      -2.835  14.212  20.960  0.00  0.00    +0.000 S 
ATOM     15  C   UNL     1      -1.424  13.950  22.090  0.00  0.00    +0.000 C 
ATOM     16  C   UNL     1      -0.232  13.320  21.369  0.00  0.00    +0.000 C 
ENDBRANCH   8   9
ENDBRANCH   1   8
BRANCH   5  17
ATOM     17  C   UNL     1       3.198   6.003  19.369  0.00  0.00    +0.000 C 
ATOM     18  O   UNL     1       4.421   5.933  19.292  0.00  0.00    +0.000 OA
BRANCH  17  19
ATOM     19  C   UNL     1       2.421   4.778  19.704  0.00  0.00    +0.000 A 
ATOM     20  C   UNL     1       2.408   4.342  21.034  0.00  0.00    +0.000 A 
ATOM     21  C   UNL     1       1.649   3.228  21.398  0.00  0.00    +0.000 A 
ATOM     22  C   UNL     1       0.905   2.543  20.436  0.00  0.00    +0.000 A 
ATOM     23  C   UNL     1       0.943   2.952  19.104  0.00  0.00    +0.000 A 
ATOM     24  C   UNL     1       1.716   4.053  18.732  0.00  0.00    +0.000 A 
ENDBRANCH  17  19
ENDBRANCH   5  17
TORSDOF 4
ENDMDL
MODEL 5
REMARK VINA RESULT:      -7.3      4.161      8.108
REMARK  Name = 
REMARK  5 active torsions:
REMARK  status: ('A' for Active; 'I' for Inactive)
REMARK    1  A    between atoms: C_1  and  C_2
REMARK    2  A    between atoms: C_2  and  C_3
REMARK    3  A    between atoms: C_2  and  C_11
REMARK    4  A    between atoms: C_15  and  C_16
REMARK    5  A    between atoms: C_16  and  C_18
REMARK                            x       y       z     vdW  Elec       q    Type
REMARK                         _______ _______ _______ _____ _____    ______ ____
ROOT
ATOM      1  C   UNL     1       2.164   7.783  19.108  0.00  0.00    +0.000 A 
ATOM      2  C   UNL     1       1.864   7.457  20.438  0.00  0.00    +0.000 A 
ATOM      3  C   UNL     1       1.038   8.282  21.204  0.00  0.00    +0.000 A 
ATOM      4  C   UNL     1       0.473   9.426  20.639  0.00  0.00    +0.000 A 
ATOM      5  C   UNL     1       0.748   9.760  19.310  0.00  0.00    +0.000 A 
ATOM      6  C   UNL     1       1.631   8.966  18.567  0.00  0.00    +0.000 A 
ENDROOT
BRANCH   1   8
ATOM      7  C   UNL     1       3.861   7.593  17.324  0.00  0.00    +0.000 C 
ATOM      8  C   UNL     1       2.910   6.789  18.226  0.00  0.00    +0.000 C 
BRANCH   8   9
ATOM      9  C   UNL     1       3.690   5.728  19.028  0.00  0.00    +0.000 C 
ATOM     10  O   UNL     1       4.793   6.005  19.513  0.00  0.00    +0.000 OA
ATOM     11  N   UNL     1       3.112   4.481  19.240  0.00  0.00    +0.000 N 
ATOM     12  C   UNL     1       1.884   3.978  18.611  0.00  0.00    +0.000 C 
ATOM     13  C   UNL     1       2.162   2.820  17.648  0.00  0.00    +0.000 C 
ATOM     14  S   UNL     1       2.943   1.400  18.485  0.00  0.00    +0.000 S 
ATOM     15  C   UNL     1       4.320   2.298  19.281  0.00  0.00    +0.000 C 
ATOM     16  C   UNL     1       3.822   3.504  20.078  0.00  0.00    +0.000 C 
ENDBRANCH   8   9
ENDBRANCH   1   8
BRANCH   5  17
ATOM     17  C   UNL     1       0.074  10.946  18.713  0.00  0.00    +0.000 C 
ATOM     18  O   UNL     1       0.703  11.993  18.590  0.00  0.00    +0.000 OA
BRANCH  17  19
ATOM     19  C   UNL     1      -1.344  10.895  18.262  0.00  0.00    +0.000 A 
ATOM     20  C   UNL     1      -1.694   9.969  17.273  0.00  0.00    +0.000 A 
ATOM     21  C   UNL     1      -3.022   9.853  16.860  0.00  0.00    +0.000 A 
ATOM     22  C   UNL     1      -4.004  10.665  17.429  0.00  0.00    +0.000 A 
ATOM     23  C   UNL     1      -3.656  11.614  18.389  0.00  0.00    +0.000 A 
ATOM     24  C   UNL     1      -2.325  11.746  18.790  0.00  0.00    +0.000 A 
ENDBRANCH  17  19
ENDBRANCH   5  17
TORSDOF 4
ENDMDL
MODEL 6
REMARK VINA RESULT:      -7.3      1.457      2.216
REMARK  Name = 
REMARK  5 active torsions:
REMARK  status: ('A' for Active; 'I' for Inactive)
REMARK    1  A    between atoms: C_1  and  C_2
REMARK    2  A    between atoms: C_2  and  C_3
REMARK    3  A    between atoms: C_2  and  C_11
REMARK    4  A    between atoms: C_15  and  C_16
REMARK    5  A    between atoms: C_16  and  C_18
REMARK                            x       y       z     vdW  Elec       q    Type
REMARK                         _______ _______ _______ _____ _____    ______ ____
ROOT
ATOM      1  C   UNL     1       0.901   9.357  20.086  0.00  0.00    +0.000 A 
ATOM      2  C   UNL     1       1.120   9.902  18.812  0.00  0.00    +0.000 A 
ATOM      3  C   UNL     1       1.874   9.209  17.862  0.00  0.00    +0.000 A 
ATOM      4  C   UNL     1       2.390   7.948  18.161  0.00  0.00    +0.000 A 
ATOM      5  C   UNL     1       2.171   7.382  19.420  0.00  0.00    +0.000 A 
ATOM      6  C   UNL     1       1.471   8.109  20.392  0.00  0.00    +0.000 A 
ENDROOT
BRANCH   1   8
ATOM      7  C   UNL     1      -0.093   9.194  22.340  0.00  0.00    +0.000 C 
ATOM      8  C   UNL     1      -0.072  10.027  21.048  0.00  0.00    +0.000 C 
BRANCH   8   9
ATOM      9  C   UNL     1       0.288  11.495  21.355  0.00  0.00    +0.000 C 
ATOM     10  O   UNL     1       1.473  11.839  21.430  0.00  0.00    +0.000 OA
ATOM     11  N   UNL     1      -0.735  12.427  21.493  0.00  0.00    +0.000 N 
ATOM     12  C   UNL     1      -2.171  12.131  21.566  0.00  0.00    +0.000 C 
ATOM     13  C   UNL     1      -2.756  12.444  22.947  0.00  0.00    +0.000 C 
ATOM     14  S   UNL     1      -2.557  14.200  23.398  0.00  0.00    +0.000 S 
ATOM     15  C   UNL     1      -0.762  14.341  23.093  0.00  0.00    +0.000 C 
ATOM     16  C   UNL     1      -0.384  13.839  21.700  0.00  0.00    +0.000 C 
ENDBRANCH   8   9
ENDBRANCH   1   8
BRANCH   5  17
ATOM     17  C   UNL     1       2.672   6.005  19.686  0.00  0.00    +0.000 C 
ATOM     18  O   UNL     1       2.245   5.390  20.658  0.00  0.00    +0.000 OA
BRANCH  17  19
ATOM     19  C   UNL     1       3.680   5.356  18.803  0.00  0.00    +0.000 A 
ATOM     20  C   UNL     1       3.224   4.527  17.772  0.00  0.00    +0.000 A 
ATOM     21  C   UNL     1       4.134   3.942  16.889  0.00  0.00    +0.000 A 
ATOM     22  C   UNL     1       5.502   4.178  17.036  0.00  0.00    +0.000 A 
ATOM     23  C   UNL     1       5.964   4.975  18.083  0.00  0.00    +0.000 A 
ATOM     24  C   UNL     1       5.058   5.546  18.979  0.00  0.00    +0.000 A 
ENDBRANCH  17  19
ENDBRANCH   5  17
TORSDOF 4
ENDMDL
MODEL 7
REMARK VINA RESULT:      -7.2      5.267      7.631
REMARK  Name = 
REMARK  5 active torsions:
REMARK  status: ('A' for Active; 'I' for Inactive)
REMARK    1  A    between atoms: C_1  and  C_2
REMARK    2  A    between atoms: C_2  and  C_3
REMARK    3  A    between atoms: C_2  and  C_11
REMARK    4  A    between atoms: C_15  and  C_16
REMARK    5  A    between atoms: C_16  and  C_18
REMARK                            x       y       z     vdW  Elec       q    Type
REMARK                         _______ _______ _______ _____ _____    ______ ____
ROOT
ATOM      1  C   UNL     1       4.452   4.408  17.204  0.00  0.00    +0.000 A 
ATOM      2  C   UNL     1       5.365   4.485  18.265  0.00  0.00    +0.000 A 
ATOM      3  C   UNL     1       6.736   4.589  18.017  0.00  0.00    +0.000 A 
ATOM      4  C   UNL     1       7.208   4.651  16.706  0.00  0.00    +0.000 A 
ATOM      5  C   UNL     1       6.312   4.592  15.635  0.00  0.00    +0.000 A 
ATOM      6  C   UNL     1       4.945   4.420  15.888  0.00  0.00    +0.000 A 
ENDROOT
BRANCH   1   8
ATOM      7  C   UNL     1       2.397   3.053  17.395  0.00  0.00    +0.000 C 
ATOM      8  C   UNL     1       2.954   4.483  17.477  0.00  0.00    +0.000 C 
BRANCH   8   9
ATOM      9  C   UNL     1       2.615   5.121  18.840  0.00  0.00    +0.000 C 
ATOM     10  O   UNL     1       2.271   4.407  19.789  0.00  0.00    +0.000 OA
ATOM     11  N   UNL     1       2.753   6.495  18.995  0.00  0.00    +0.000 N 
ATOM     12  C   UNL     1       3.015   7.466  17.925  0.00  0.00    +0.000 C 
ATOM     13  C   UNL     1       1.822   8.398  17.686  0.00  0.00    +0.000 C 
ATOM     14  S   UNL     1       1.391   9.361  19.174  0.00  0.00    +0.000 S 
ATOM     15  C   UNL     1       1.263   7.970  20.350  0.00  0.00    +0.000 C 
ATOM     16  C   UNL     1       2.511   7.087  20.320  0.00  0.00    +0.000 C 
ENDBRANCH   8   9
ENDBRANCH   1   8
BRANCH   5  17
ATOM     17  C   UNL     1       6.837   4.733  14.249  0.00  0.00    +0.000 C 
ATOM     18  O   UNL     1       7.729   5.546  14.027  0.00  0.00    +0.000 OA
BRANCH  17  19
ATOM     19  C   UNL     1       6.308   3.913  13.125  0.00  0.00    +0.000 A 
ATOM     20  C   UNL     1       7.201   3.105  12.413  0.00  0.00    +0.000 A 
ATOM     21  C   UNL     1       6.736   2.281  11.386  0.00  0.00    +0.000 A 
ATOM     22  C   UNL     1       5.378   2.265  11.064  0.00  0.00    +0.000 A 
ATOM     23  C   UNL     1       4.489   3.093  11.746  0.00  0.00    +0.000 A 
ATOM     24  C   UNL     1       4.954   3.933  12.760  0.00  0.00    +0.000 A 
ENDBRANCH  17  19
ENDBRANCH   5  17
TORSDOF 4
ENDMDL
MODEL 8
REMARK VINA RESULT:      -7.2      1.345      1.963
REMARK  Name = 
REMARK  5 active torsions:
REMARK  status: ('A' for Active; 'I' for Inactive)
REMARK    1  A    between atoms: C_1  and  C_2
REMARK    2  A    between atoms: C_2  and  C_3
REMARK    3  A    between atoms: C_2  and  C_11
REMARK    4  A    between atoms: C_15  and  C_16
REMARK    5  A    between atoms: C_16  and  C_18
REMARK                            x       y       z     vdW  Elec       q    Type
REMARK                         _______ _______ _______ _____ _____    ______ ____
ROOT
ATOM      1  C   UNL     1       0.815   9.432  20.112  0.00  0.00    +0.000 A 
ATOM      2  C   UNL     1       1.055   9.984  18.845  0.00  0.00    +0.000 A 
ATOM      3  C   UNL     1       1.816   9.291  17.900  0.00  0.00    +0.000 A 
ATOM      4  C   UNL     1       2.317   8.023  18.197  0.00  0.00    +0.000 A 
ATOM      5  C   UNL     1       2.075   7.450  19.448  0.00  0.00    +0.000 A 
ATOM      6  C   UNL     1       1.369   8.177  20.416  0.00  0.00    +0.000 A 
ENDROOT
BRANCH   1   8
ATOM      7  C   UNL     1      -0.221   9.255  22.346  0.00  0.00    +0.000 C 
ATOM      8  C   UNL     1      -0.165  10.105  21.066  0.00  0.00    +0.000 C 
BRANCH   8   9
ATOM      9  C   UNL     1       0.212  11.563  21.398  0.00  0.00    +0.000 C 
ATOM     10  O   UNL     1       1.400  11.890  21.488  0.00  0.00    +0.000 OA
ATOM     11  N   UNL     1      -0.800  12.506  21.541  0.00  0.00    +0.000 N 
ATOM     12  C   UNL     1      -2.241  12.228  21.597  0.00  0.00    +0.000 C 
ATOM     13  C   UNL     1      -2.833  12.528  22.978  0.00  0.00    +0.000 C 
ATOM     14  S   UNL     1      -2.616  14.275  23.456  0.00  0.00    +0.000 S 
ATOM     15  C   UNL     1      -0.816  14.396  23.170  0.00  0.00    +0.000 C 
ATOM     16  C   UNL     1      -0.432  13.910  21.773  0.00  0.00    +0.000 C 
ENDBRANCH   8   9
ENDBRANCH   1   8
BRANCH   5  17
ATOM     17  C   UNL     1       2.560   6.067  19.711  0.00  0.00    +0.000 C 
ATOM     18  O   UNL     1       2.269   5.522  20.772  0.00  0.00    +0.000 OA
BRANCH  17  19
ATOM     19  C   UNL     1       3.389   5.328  18.720  0.00  0.00    +0.000 A 
ATOM     20  C   UNL     1       4.774   5.526  18.732  0.00  0.00    +0.000 A 
ATOM     21  C   UNL     1       5.592   4.813  17.854  0.00  0.00    +0.000 A 
ATOM     22  C   UNL     1       5.030   3.903  16.958  0.00  0.00    +0.000 A 
ATOM     23  C   UNL     1       3.648   3.727  16.917  0.00  0.00    +0.000 A 
ATOM     24  C   UNL     1       2.825   4.453  17.780  0.00  0.00    +0.000 A 
ENDBRANCH  17  19
ENDBRANCH   5  17
TORSDOF 4
ENDMDL
MODEL 9
REMARK VINA RESULT:      -7.1      4.165      8.285
REMARK  Name = 
REMARK  5 active torsions:
REMARK  status: ('A' for Active; 'I' for Inactive)
REMARK    1  A    between atoms: C_1  and  C_2
REMARK    2  A    between atoms: C_2  and  C_3
REMARK    3  A    between atoms: C_2  and  C_11
REMARK    4  A    between atoms: C_15  and  C_16
REMARK    5  A    between atoms: C_16  and  C_18
REMARK                            x       y       z     vdW  Elec       q    Type
REMARK                         _______ _______ _______ _____ _____    ______ ____
ROOT
ATOM      1  C   UNL     1       2.107   7.019  19.397  0.00  0.00    +0.000 A 
ATOM      2  C   UNL     1       2.091   7.732  18.189  0.00  0.00    +0.000 A 
ATOM      3  C   UNL     1       1.639   9.054  18.149  0.00  0.00    +0.000 A 
ATOM      4  C   UNL     1       1.230   9.690  19.322  0.00  0.00    +0.000 A 
ATOM      5  C   UNL     1       1.253   9.001  20.538  0.00  0.00    +0.000 A 
ATOM      6  C   UNL     1       1.643   7.655  20.561  0.00  0.00    +0.000 A 
ENDROOT
BRANCH   1   8
ATOM      7  C   UNL     1       1.787   4.693  20.160  0.00  0.00    +0.000 C 
ATOM      8  C   UNL     1       2.772   5.650  19.467  0.00  0.00    +0.000 C 
BRANCH   8   9
ATOM      9  C   UNL     1       3.182   5.100  18.086  0.00  0.00    +0.000 C 
ATOM     10  O   UNL     1       2.390   4.412  17.433  0.00  0.00    +0.000 OA
ATOM     11  N   UNL     1       4.430   5.433  17.571  0.00  0.00    +0.000 N 
ATOM     12  C   UNL     1       5.510   6.118  18.292  0.00  0.00    +0.000 C 
ATOM     13  C   UNL     1       6.717   5.204  18.528  0.00  0.00    +0.000 C 
ATOM     14  S   UNL     1       7.434   4.592  16.966  0.00  0.00    +0.000 S 
ATOM     15  C   UNL     1       5.901   3.935  16.221  0.00  0.00    +0.000 C 
ATOM     16  C   UNL     1       4.782   4.977  16.218  0.00  0.00    +0.000 C 
ENDBRANCH   8   9
ENDBRANCH   1   8
BRANCH   5  17
ATOM     17  C   UNL     1       0.880   9.727  21.783  0.00  0.00    +0.000 C 
ATOM     18  O   UNL     1       1.553   9.564  22.796  0.00  0.00    +0.000 OA
BRANCH  17  19
ATOM     19  C   UNL     1      -0.291  10.646  21.830  0.00  0.00    +0.000 A 
ATOM     20  C   UNL     1      -0.987  10.773  23.037  0.00  0.00    +0.000 A 
ATOM     21  C   UNL     1      -2.058  11.664  23.137  0.00  0.00    +0.000 A 
ATOM     22  C   UNL     1      -2.438  12.427  22.033  0.00  0.00    +0.000 A 
ATOM     23  C   UNL     1      -1.771  12.279  20.818  0.00  0.00    +0.000 A 
ATOM     24  C   UNL     1      -0.712  11.375  20.709  0.00  0.00    +0.000 A 
ENDBRANCH  17  19
ENDBRANCH   5  17
TORSDOF 4
ENDMDL
