MODEL 1
REMARK VINA RESULT:      -8.1      0.000      0.000
REMARK  Name = 
REMARK  9 active torsions:
REMARK  status: ('A' for Active; 'I' for Inactive)
REMARK    1  A    between atoms: C_1  and  N_2
REMARK    2  A    between atoms: C_3  and  S_4
REMARK    3  A    between atoms: S_4  and  C_5
REMARK    4  A    between atoms: C_5  and  C_6
REMARK    5  A    between atoms: N_8  and  N_9
REMARK    6  A    between atoms: C_10  and  C_11
REMARK    7  A    between atoms: C_13  and  N_14
REMARK    8  A    between atoms: C_19  and  O_20
REMARK    9  A    between atoms: C_23  and  C_24
REMARK                            x       y       z     vdW  Elec       q    Type
REMARK                         _______ _______ _______ _____ _____    ______ ____
ROOT
ATOM      1  C   UNL     1       2.690   3.949  17.927  0.00  0.00    +0.000 C 
ATOM      2  O   UNL     1       2.010   3.467  17.018  0.00  0.00    +0.000 OA
ATOM      3  N   UNL     1       4.075   4.081  17.878  0.00  0.00    +0.000 N 
ATOM      4  H   UNL     1       4.562   4.559  18.629  0.00  0.00    +0.000 HD
ENDROOT
BRANCH   3   5
ATOM      5  N   UNL     1       4.744   3.761  16.733  0.00  0.00    +0.000 NA
ATOM      6  C   UNL     1       5.120   4.742  15.978  0.00  0.00    +0.000 C 
BRANCH   6   7
ATOM      7  C   UNL     1       5.825   4.479  14.702  0.00  0.00    +0.000 A 
ATOM      8  C   UNL     1       5.226   3.640  13.750  0.00  0.00    +0.000 A 
ATOM      9  C   UNL     1       5.873   3.408  12.531  0.00  0.00    +0.000 A 
ATOM     10  C   UNL     1       7.112   4.006  12.256  0.00  0.00    +0.000 A 
ATOM     11  C   UNL     1       7.708   4.835  13.211  0.00  0.00    +0.000 A 
ATOM     12  C   UNL     1       7.065   5.072  14.430  0.00  0.00    +0.000 A 
BRANCH   9  13
ATOM     13  N   UNL     1       5.251   2.535  11.526  0.00  0.00    +0.000 N 
ATOM     14  O   UNL     1       5.878   1.533  11.160  0.00  0.00    +0.000 OA
ATOM     15  O   UNL     1       4.133   2.856  11.103  0.00  0.00    +0.000 OA
ENDBRANCH   9  13
BRANCH  12  16
ATOM     16  O   UNL     1       7.651   5.889  15.354  0.00  0.00    +0.000 OA
ATOM     17  H   UNL     1       8.452   6.288  14.971  0.00  0.00    +0.000 HD
ENDBRANCH  12  16
ENDBRANCH   6   7
ENDBRANCH   3   5
BRANCH   1  18
ATOM     18  C   UNL     1       2.043   4.362  19.246  0.00  0.00    +0.000 C 
BRANCH  18  19
ATOM     19  S   UNL     1       2.958   5.697  20.075  0.00  0.00    +0.000 S 
BRANCH  19  22
ATOM     20  C   UNL     1       1.107   8.204  20.881  0.00  0.00    +0.000 C 
ATOM     21  N   UNL     1       1.780   8.127  19.610  0.00  0.00    +0.000 N 
ATOM     22  C   UNL     1       2.525   7.081  19.127  0.00  0.00    +0.000 A 
ATOM     23  N   UNL     1       2.831   7.299  17.874  0.00  0.00    +0.000 NA
ATOM     24  N   UNL     1       2.307   8.525  17.526  0.00  0.00    +0.000 NA
ATOM     25  C   UNL     1       1.709   9.054  18.582  0.00  0.00    +0.000 A 
BRANCH  25  26
ATOM     26  C   UNL     1       1.045  10.370  18.612  0.00  0.00    +0.000 A 
ATOM     27  C   UNL     1      -0.356  10.442  18.570  0.00  0.00    +0.000 A 
ATOM     28  C   UNL     1      -1.018  11.675  18.606  0.00  0.00    +0.000 A 
ATOM     29  C   UNL     1      -0.288  12.858  18.686  0.00  0.00    +0.000 A 
ATOM     30  C   UNL     1       1.101  12.809  18.701  0.00  0.00    +0.000 A 
ATOM     31  C   UNL     1       1.760  11.576  18.642  0.00  0.00    +0.000 A 
ENDBRANCH  25  26
ENDBRANCH  19  22
ENDBRANCH  18  19
ENDBRANCH   1  18
TORSDOF 8
ENDMDL
MODEL 2
REMARK VINA RESULT:      -7.4      6.572      9.901
REMARK  Name = 
REMARK  9 active torsions:
REMARK  status: ('A' for Active; 'I' for Inactive)
REMARK    1  A    between atoms: C_1  and  N_2
REMARK    2  A    between atoms: C_3  and  S_4
REMARK    3  A    between atoms: S_4  and  C_5
REMARK    4  A    between atoms: C_5  and  C_6
REMARK    5  A    between atoms: N_8  and  N_9
REMARK    6  A    between atoms: C_10  and  C_11
REMARK    7  A    between atoms: C_13  and  N_14
REMARK    8  A    between atoms: C_19  and  O_20
REMARK    9  A    between atoms: C_23  and  C_24
REMARK                            x       y       z     vdW  Elec       q    Type
REMARK                         _______ _______ _______ _____ _____    ______ ____
ROOT
ATOM      1  C   UNL     1       8.079   8.404  18.132  0.00  0.00    +0.000 C 
ATOM      2  O   UNL     1       7.588   9.121  17.257  0.00  0.00    +0.000 OA
ATOM      3  N   UNL     1       8.965   8.857  19.106  0.00  0.00    +0.000 N 
ATOM      4  H   UNL     1       9.268   8.229  19.842  0.00  0.00    +0.000 HD
ENDROOT
BRANCH   3   5
ATOM      5  N   UNL     1       9.252  10.187  19.190  0.00  0.00    +0.000 NA
ATOM      6  C   UNL     1       9.701  10.621  20.324  0.00  0.00    +0.000 C 
BRANCH   6   7
ATOM      7  C   UNL     1      10.009  12.059  20.507  0.00  0.00    +0.000 A 
ATOM      8  C   UNL     1       9.470  12.739  21.610  0.00  0.00    +0.000 A 
ATOM      9  C   UNL     1       9.778  14.089  21.806  0.00  0.00    +0.000 A 
ATOM     10  C   UNL     1      10.619  14.766  20.908  0.00  0.00    +0.000 A 
ATOM     11  C   UNL     1      11.147  14.086  19.807  0.00  0.00    +0.000 A 
ATOM     12  C   UNL     1      10.844  12.736  19.609  0.00  0.00    +0.000 A 
BRANCH   9  13
ATOM     13  N   UNL     1       9.224  14.808  22.961  0.00  0.00    +0.000 N 
ATOM     14  O   UNL     1       9.471  16.016  23.065  0.00  0.00    +0.000 OA
ATOM     15  O   UNL     1       8.542  14.159  23.765  0.00  0.00    +0.000 OA
ENDBRANCH   9  13
BRANCH  12  16
ATOM     16  O   UNL     1      11.370  12.078  18.533  0.00  0.00    +0.000 OA
ATOM     17  H   UNL     1      12.335  12.002  18.641  0.00  0.00    +0.000 HD
ENDBRANCH  12  16
ENDBRANCH   6   7
ENDBRANCH   3   5
BRANCH   1  18
ATOM     18  C   UNL     1       7.808   6.902  18.147  0.00  0.00    +0.000 C 
BRANCH  18  19
ATOM     19  S   UNL     1       6.864   6.357  16.691  0.00  0.00    +0.000 S 
BRANCH  19  22
ATOM     20  C   UNL     1       5.494   3.881  18.223  0.00  0.00    +0.000 C 
ATOM     21  N   UNL     1       4.809   5.133  18.026  0.00  0.00    +0.000 N 
ATOM     22  C   UNL     1       5.258   6.222  17.325  0.00  0.00    +0.000 A 
ATOM     23  N   UNL     1       4.297   7.104  17.217  0.00  0.00    +0.000 NA
ATOM     24  N   UNL     1       3.199   6.605  17.883  0.00  0.00    +0.000 NA
ATOM     25  C   UNL     1       3.513   5.433  18.415  0.00  0.00    +0.000 A 
BRANCH  25  26
ATOM     26  C   UNL     1       2.607   4.597  19.222  0.00  0.00    +0.000 A 
ATOM     27  C   UNL     1       1.654   3.789  18.583  0.00  0.00    +0.000 A 
ATOM     28  C   UNL     1       0.784   2.976  19.320  0.00  0.00    +0.000 A 
ATOM     29  C   UNL     1       0.855   2.957  20.710  0.00  0.00    +0.000 A 
ATOM     30  C   UNL     1       1.774   3.771  21.364  0.00  0.00    +0.000 A 
ATOM     31  C   UNL     1       2.626   4.599  20.625  0.00  0.00    +0.000 A 
ENDBRANCH  25  26
ENDBRANCH  19  22
ENDBRANCH  18  19
ENDBRANCH   1  18
TORSDOF 8
ENDMDL
MODEL 3
REMARK VINA RESULT:      -7.4      6.073      9.376
REMARK  Name = 
REMARK  9 active torsions:
REMARK  status: ('A' for Active; 'I' for Inactive)
REMARK    1  A    between atoms: C_1  and  N_2
REMARK    2  A    between atoms: C_3  and  S_4
REMARK    3  A    between atoms: S_4  and  C_5
REMARK    4  A    between atoms: C_5  and  C_6
REMARK    5  A    between atoms: N_8  and  N_9
REMARK    6  A    between atoms: C_10  and  C_11
REMARK    7  A    between atoms: C_13  and  N_14
REMARK    8  A    between atoms: C_19  and  O_20
REMARK    9  A    between atoms: C_23  and  C_24
REMARK                            x       y       z     vdW  Elec       q    Type
REMARK                         _______ _______ _______ _____ _____    ______ ____
ROOT
ATOM      1  C   UNL     1       7.859   7.593  17.649  0.00  0.00    +0.000 C 
ATOM      2  O   UNL     1       8.339   7.130  18.685  0.00  0.00    +0.000 OA
ATOM      3  N   UNL     1       7.741   8.956  17.384  0.00  0.00    +0.000 N 
ATOM      4  H   UNL     1       7.408   9.266  16.478  0.00  0.00    +0.000 HD
ENDROOT
BRANCH   3   5
ATOM      5  N   UNL     1       8.270   9.860  18.257  0.00  0.00    +0.000 NA
ATOM      6  C   UNL     1       9.328  10.500  17.872  0.00  0.00    +0.000 C 
BRANCH   6   7
ATOM      7  C   UNL     1       9.982  11.478  18.772  0.00  0.00    +0.000 A 
ATOM      8  C   UNL     1       9.300  11.916  19.918  0.00  0.00    +0.000 A 
ATOM      9  C   UNL     1       9.922  12.818  20.787  0.00  0.00    +0.000 A 
ATOM     10  C   UNL     1      11.217  13.287  20.521  0.00  0.00    +0.000 A 
ATOM     11  C   UNL     1      11.889  12.854  19.374  0.00  0.00    +0.000 A 
ATOM     12  C   UNL     1      11.273  11.951  18.504  0.00  0.00    +0.000 A 
BRANCH   9  13
ATOM     13  N   UNL     1       9.218  13.277  21.993  0.00  0.00    +0.000 N 
ATOM     14  O   UNL     1       9.010  12.452  22.892  0.00  0.00    +0.000 OA
ATOM     15  O   UNL     1       8.874  14.465  22.037  0.00  0.00    +0.000 OA
ENDBRANCH   9  13
BRANCH  12  16
ATOM     16  O   UNL     1      11.940  11.527  17.389  0.00  0.00    +0.000 OA
ATOM     17  H   UNL     1      11.637  12.039  16.617  0.00  0.00    +0.000 HD
ENDBRANCH  12  16
ENDBRANCH   6   7
ENDBRANCH   3   5
BRANCH   1  18
ATOM     18  C   UNL     1       7.256   6.671  16.593  0.00  0.00    +0.000 C 
BRANCH  18  19
ATOM     19  S   UNL     1       7.536   4.914  16.970  0.00  0.00    +0.000 S 
BRANCH  19  22
ATOM     20  C   UNL     1       4.420   4.245  16.522  0.00  0.00    +0.000 C 
ATOM     21  N   UNL     1       5.022   4.249  17.831  0.00  0.00    +0.000 N 
ATOM     22  C   UNL     1       6.310   4.594  18.151  0.00  0.00    +0.000 A 
ATOM     23  N   UNL     1       6.443   4.644  19.452  0.00  0.00    +0.000 NA
ATOM     24  N   UNL     1       5.230   4.297  20.006  0.00  0.00    +0.000 NA
ATOM     25  C   UNL     1       4.377   4.012  19.035  0.00  0.00    +0.000 A 
BRANCH  25  26
ATOM     26  C   UNL     1       2.982   3.579  19.230  0.00  0.00    +0.000 A 
ATOM     27  C   UNL     1       2.164   4.262  20.144  0.00  0.00    +0.000 A 
ATOM     28  C   UNL     1       0.832   3.881  20.346  0.00  0.00    +0.000 A 
ATOM     29  C   UNL     1       0.294   2.812  19.635  0.00  0.00    +0.000 A 
ATOM     30  C   UNL     1       1.096   2.105  18.746  0.00  0.00    +0.000 A 
ATOM     31  C   UNL     1       2.434   2.474  18.562  0.00  0.00    +0.000 A 
ENDBRANCH  25  26
ENDBRANCH  19  22
ENDBRANCH  18  19
ENDBRANCH   1  18
TORSDOF 8
ENDMDL
MODEL 4
REMARK VINA RESULT:      -7.4      6.281      9.323
REMARK  Name = 
REMARK  9 active torsions:
REMARK  status: ('A' for Active; 'I' for Inactive)
REMARK    1  A    between atoms: C_1  and  N_2
REMARK    2  A    between atoms: C_3  and  S_4
REMARK    3  A    between atoms: S_4  and  C_5
REMARK    4  A    between atoms: C_5  and  C_6
REMARK    5  A    between atoms: N_8  and  N_9
REMARK    6  A    between atoms: C_10  and  C_11
REMARK    7  A    between atoms: C_13  and  N_14
REMARK    8  A    between atoms: C_19  and  O_20
REMARK    9  A    between atoms: C_23  and  C_24
REMARK                            x       y       z     vdW  Elec       q    Type
REMARK                         _______ _______ _______ _____ _____    ______ ____
ROOT
ATOM      1  C   UNL     1       7.919   8.406  17.896  0.00  0.00    +0.000 C 
ATOM      2  O   UNL     1       7.202   8.746  16.953  0.00  0.00    +0.000 OA
ATOM      3  N   UNL     1       8.834   9.249  18.523  0.00  0.00    +0.000 N 
ATOM      4  H   UNL     1       9.335   8.926  19.344  0.00  0.00    +0.000 HD
ENDROOT
BRANCH   3   5
ATOM      5  N   UNL     1       8.894  10.563  18.166  0.00  0.00    +0.000 NA
ATOM      6  C   UNL     1       9.968  11.210  18.487  0.00  0.00    +0.000 C 
BRANCH   6   7
ATOM      7  C   UNL     1      10.101  12.650  18.163  0.00  0.00    +0.000 A 
ATOM      8  C   UNL     1       9.100  13.541  18.578  0.00  0.00    +0.000 A 
ATOM      9  C   UNL     1       9.231  14.905  18.300  0.00  0.00    +0.000 A 
ATOM     10  C   UNL     1      10.353  15.387  17.609  0.00  0.00    +0.000 A 
ATOM     11  C   UNL     1      11.345  14.494  17.190  0.00  0.00    +0.000 A 
ATOM     12  C   UNL     1      11.219  13.130  17.468  0.00  0.00    +0.000 A 
BRANCH   9  13
ATOM     13  N   UNL     1       8.190  15.846  18.737  0.00  0.00    +0.000 N 
ATOM     14  O   UNL     1       8.212  16.992  18.270  0.00  0.00    +0.000 OA
ATOM     15  O   UNL     1       7.353  15.435  19.549  0.00  0.00    +0.000 OA
ENDBRANCH   9  13
BRANCH  12  16
ATOM     16  O   UNL     1      12.196  12.266  17.062  0.00  0.00    +0.000 OA
ATOM     17  H   UNL     1      12.969  12.773  16.755  0.00  0.00    +0.000 HD
ENDBRANCH  12  16
ENDBRANCH   6   7
ENDBRANCH   3   5
BRANCH   1  18
ATOM     18  C   UNL     1       7.918   6.963  18.393  0.00  0.00    +0.000 C 
BRANCH  18  19
ATOM     19  S   UNL     1       7.346   5.796  17.120  0.00  0.00    +0.000 S 
BRANCH  19  22
ATOM     20  C   UNL     1       5.606   3.570  18.661  0.00  0.00    +0.000 C 
ATOM     21  N   UNL     1       5.017   4.778  18.141  0.00  0.00    +0.000 N 
ATOM     22  C   UNL     1       5.638   5.753  17.404  0.00  0.00    +0.000 A 
ATOM     23  N   UNL     1       4.749   6.606  16.964  0.00  0.00    +0.000 NA
ATOM     24  N   UNL     1       3.520   6.208  17.442  0.00  0.00    +0.000 NA
ATOM     25  C   UNL     1       3.677   5.129  18.193  0.00  0.00    +0.000 A 
BRANCH  25  26
ATOM     26  C   UNL     1       2.595   4.419  18.897  0.00  0.00    +0.000 A 
ATOM     27  C   UNL     1       2.430   4.600  20.279  0.00  0.00    +0.000 A 
ATOM     28  C   UNL     1       1.406   3.947  20.977  0.00  0.00    +0.000 A 
ATOM     29  C   UNL     1       0.528   3.103  20.302  0.00  0.00    +0.000 A 
ATOM     30  C   UNL     1       0.692   2.889  18.938  0.00  0.00    +0.000 A 
ATOM     31  C   UNL     1       1.730   3.526  18.248  0.00  0.00    +0.000 A 
ENDBRANCH  25  26
ENDBRANCH  19  22
ENDBRANCH  18  19
ENDBRANCH   1  18
TORSDOF 8
ENDMDL
MODEL 5
REMARK VINA RESULT:      -7.3      3.558      9.759
REMARK  Name = 
REMARK  9 active torsions:
REMARK  status: ('A' for Active; 'I' for Inactive)
REMARK    1  A    between atoms: C_1  and  N_2
REMARK    2  A    between atoms: C_3  and  S_4
REMARK    3  A    between atoms: S_4  and  C_5
REMARK    4  A    between atoms: C_5  and  C_6
REMARK    5  A    between atoms: N_8  and  N_9
REMARK    6  A    between atoms: C_10  and  C_11
REMARK    7  A    between atoms: C_13  and  N_14
REMARK    8  A    between atoms: C_19  and  O_20
REMARK    9  A    between atoms: C_23  and  C_24
REMARK                            x       y       z     vdW  Elec       q    Type
REMARK                         _______ _______ _______ _____ _____    ______ ____
ROOT
ATOM      1  C   UNL     1       2.708   5.413  19.311  0.00  0.00    +0.000 C 
ATOM      2  O   UNL     1       1.707   5.239  18.612  0.00  0.00    +0.000 OA
ATOM      3  N   UNL     1       2.868   6.479  20.191  0.00  0.00    +0.000 N 
ATOM      4  H   UNL     1       3.685   6.518  20.793  0.00  0.00    +0.000 HD
ENDROOT
BRANCH   3   5
ATOM      5  N   UNL     1       1.836   7.347  20.395  0.00  0.00    +0.000 NA
ATOM      6  C   UNL     1       1.821   8.422  19.674  0.00  0.00    +0.000 C 
BRANCH   6   7
ATOM      7  C   UNL     1       0.751   9.431  19.855  0.00  0.00    +0.000 A 
ATOM      8  C   UNL     1       0.304   9.731  21.151  0.00  0.00    +0.000 A 
ATOM      9  C   UNL     1      -0.686  10.701  21.332  0.00  0.00    +0.000 A 
ATOM     10  C   UNL     1      -1.234  11.375  20.230  0.00  0.00    +0.000 A 
ATOM     11  C   UNL     1      -0.791  11.067  18.940  0.00  0.00    +0.000 A 
ATOM     12  C   UNL     1       0.200  10.099  18.754  0.00  0.00    +0.000 A 
BRANCH   9  13
ATOM     13  N   UNL     1      -1.156  11.026  22.686  0.00  0.00    +0.000 N 
ATOM     14  O   UNL     1      -0.701  10.368  23.630  0.00  0.00    +0.000 OA
ATOM     15  O   UNL     1      -1.982  11.940  22.801  0.00  0.00    +0.000 OA
ENDBRANCH   9  13
BRANCH  12  16
ATOM     16  O   UNL     1       0.632   9.810  17.490  0.00  0.00    +0.000 OA
ATOM     17  H   UNL     1      -0.104   9.925  16.863  0.00  0.00    +0.000 HD
ENDBRANCH  12  16
ENDBRANCH   6   7
ENDBRANCH   3   5
BRANCH   1  18
ATOM     18  C   UNL     1       3.916   4.489  19.181  0.00  0.00    +0.000 C 
BRANCH  18  19
ATOM     19  S   UNL     1       5.487   5.368  19.441  0.00  0.00    +0.000 S 
BRANCH  19  22
ATOM     20  C   UNL     1       4.572   5.252  16.358  0.00  0.00    +0.000 C 
ATOM     21  N   UNL     1       5.921   4.958  16.767  0.00  0.00    +0.000 N 
ATOM     22  C   UNL     1       6.405   4.897  18.049  0.00  0.00    +0.000 A 
ATOM     23  N   UNL     1       7.628   4.434  18.037  0.00  0.00    +0.000 NA
ATOM     24  N   UNL     1       7.974   4.210  16.723  0.00  0.00    +0.000 NA
ATOM     25  C   UNL     1       6.965   4.567  15.943  0.00  0.00    +0.000 A 
BRANCH  25  26
ATOM     26  C   UNL     1       6.962   4.496  14.472  0.00  0.00    +0.000 A 
ATOM     27  C   UNL     1       7.742   5.398  13.731  0.00  0.00    +0.000 A 
ATOM     28  C   UNL     1       7.769   5.352  12.332  0.00  0.00    +0.000 A 
ATOM     29  C   UNL     1       7.016   4.400  11.650  0.00  0.00    +0.000 A 
ATOM     30  C   UNL     1       6.215   3.516  12.364  0.00  0.00    +0.000 A 
ATOM     31  C   UNL     1       6.174   3.579  13.761  0.00  0.00    +0.000 A 
ENDBRANCH  25  26
ENDBRANCH  19  22
ENDBRANCH  18  19
ENDBRANCH   1  18
TORSDOF 8
ENDMDL
MODEL 6
REMARK VINA RESULT:      -7.3      4.035      5.182
REMARK  Name = 
REMARK  9 active torsions:
REMARK  status: ('A' for Active; 'I' for Inactive)
REMARK    1  A    between atoms: C_1  and  N_2
REMARK    2  A    between atoms: C_3  and  S_4
REMARK    3  A    between atoms: S_4  and  C_5
REMARK    4  A    between atoms: C_5  and  C_6
REMARK    5  A    between atoms: N_8  and  N_9
REMARK    6  A    between atoms: C_10  and  C_11
REMARK    7  A    between atoms: C_13  and  N_14
REMARK    8  A    between atoms: C_19  and  O_20
REMARK    9  A    between atoms: C_23  and  C_24
REMARK                            x       y       z     vdW  Elec       q    Type
REMARK                         _______ _______ _______ _____ _____    ______ ____
ROOT
ATOM      1  C   UNL     1       1.913   8.813  18.298  0.00  0.00    +0.000 C 
ATOM      2  O   UNL     1       2.228   9.452  17.291  0.00  0.00    +0.000 OA
ATOM      3  N   UNL     1       2.514   7.617  18.681  0.00  0.00    +0.000 N 
ATOM      4  H   UNL     1       2.258   7.185  19.563  0.00  0.00    +0.000 HD
ENDROOT
BRANCH   3   5
ATOM      5  N   UNL     1       3.586   7.145  17.983  0.00  0.00    +0.000 NA
ATOM      6  C   UNL     1       4.068   6.001  18.347  0.00  0.00    +0.000 C 
BRANCH   6   7
ATOM      7  C   UNL     1       5.251   5.432  17.660  0.00  0.00    +0.000 A 
ATOM      8  C   UNL     1       5.205   5.231  16.272  0.00  0.00    +0.000 A 
ATOM      9  C   UNL     1       6.328   4.721  15.612  0.00  0.00    +0.000 A 
ATOM     10  C   UNL     1       7.495   4.409  16.326  0.00  0.00    +0.000 A 
ATOM     11  C   UNL     1       7.533   4.604  17.710  0.00  0.00    +0.000 A 
ATOM     12  C   UNL     1       6.414   5.116  18.374  0.00  0.00    +0.000 A 
BRANCH   9  13
ATOM     13  N   UNL     1       6.291   4.512  14.157  0.00  0.00    +0.000 N 
ATOM     14  O   UNL     1       7.266   4.888  13.494  0.00  0.00    +0.000 OA
ATOM     15  O   UNL     1       5.284   3.974  13.682  0.00  0.00    +0.000 OA
ENDBRANCH   9  13
BRANCH  12  16
ATOM     16  O   UNL     1       6.463   5.310  19.725  0.00  0.00    +0.000 OA
ATOM     17  H   UNL     1       7.140   5.979  19.932  0.00  0.00    +0.000 HD
ENDBRANCH  12  16
ENDBRANCH   6   7
ENDBRANCH   3   5
BRANCH   1  18
ATOM     18  C   UNL     1       0.740   9.260  19.165  0.00  0.00    +0.000 C 
BRANCH  18  19
ATOM     19  S   UNL     1       0.527  11.066  19.160  0.00  0.00    +0.000 S 
BRANCH  19  22
ATOM     20  C   UNL     1      -1.130  13.564  20.330  0.00  0.00    +0.000 C 
ATOM     21  N   UNL     1      -0.730  12.455  21.158  0.00  0.00    +0.000 N 
ATOM     22  C   UNL     1       0.041  11.382  20.792  0.00  0.00    +0.000 A 
ATOM     23  N   UNL     1       0.339  10.672  21.849  0.00  0.00    +0.000 NA
ATOM     24  N   UNL     1      -0.269  11.267  22.933  0.00  0.00    +0.000 NA
ATOM     25  C   UNL     1      -0.956  12.320  22.519  0.00  0.00    +0.000 A 
BRANCH  25  26
ATOM     26  C   UNL     1      -1.759  13.203  23.383  0.00  0.00    +0.000 A 
ATOM     27  C   UNL     1      -3.088  12.862  23.680  0.00  0.00    +0.000 A 
ATOM     28  C   UNL     1      -3.876  13.675  24.505  0.00  0.00    +0.000 A 
ATOM     29  C   UNL     1      -3.347  14.843  25.047  0.00  0.00    +0.000 A 
ATOM     30  C   UNL     1      -2.041  15.212  24.742  0.00  0.00    +0.000 A 
ATOM     31  C   UNL     1      -1.264  14.410  23.900  0.00  0.00    +0.000 A 
ENDBRANCH  25  26
ENDBRANCH  19  22
ENDBRANCH  18  19
ENDBRANCH   1  18
TORSDOF 8
ENDMDL
MODEL 7
REMARK VINA RESULT:      -7.2      6.984      8.623
REMARK  Name = 
REMARK  9 active torsions:
REMARK  status: ('A' for Active; 'I' for Inactive)
REMARK    1  A    between atoms: C_1  and  N_2
REMARK    2  A    between atoms: C_3  and  S_4
REMARK    3  A    between atoms: S_4  and  C_5
REMARK    4  A    between atoms: C_5  and  C_6
REMARK    5  A    between atoms: N_8  and  N_9
REMARK    6  A    between atoms: C_10  and  C_11
REMARK    7  A    between atoms: C_13  and  N_14
REMARK    8  A    between atoms: C_19  and  O_20
REMARK    9  A    between atoms: C_23  and  C_24
REMARK                            x       y       z     vdW  Elec       q    Type
REMARK                         _______ _______ _______ _____ _____    ______ ____
ROOT
ATOM      1  C   UNL     1       7.874   7.913  17.943  0.00  0.00    +0.000 C 
ATOM      2  O   UNL     1       8.387   7.206  18.813  0.00  0.00    +0.000 OA
ATOM      3  N   UNL     1       6.941   7.455  17.017  0.00  0.00    +0.000 N 
ATOM      4  H   UNL     1       6.502   8.110  16.378  0.00  0.00    +0.000 HD
ENDROOT
BRANCH   3   5
ATOM      5  N   UNL     1       6.465   6.180  17.112  0.00  0.00    +0.000 NA
ATOM      6  C   UNL     1       5.455   5.986  17.896  0.00  0.00    +0.000 C 
BRANCH   6   7
ATOM      7  C   UNL     1       4.897   4.626  18.079  0.00  0.00    +0.000 A 
ATOM      8  C   UNL     1       4.840   4.077  19.369  0.00  0.00    +0.000 A 
ATOM      9  C   UNL     1       4.290   2.804  19.553  0.00  0.00    +0.000 A 
ATOM     10  C   UNL     1       3.798   2.075  18.460  0.00  0.00    +0.000 A 
ATOM     11  C   UNL     1       3.864   2.623  17.175  0.00  0.00    +0.000 A 
ATOM     12  C   UNL     1       4.411   3.896  16.987  0.00  0.00    +0.000 A 
BRANCH   9  13
ATOM     13  N   UNL     1       4.221   2.223  20.901  0.00  0.00    +0.000 N 
ATOM     14  O   UNL     1       5.189   1.562  21.298  0.00  0.00    +0.000 OA
ATOM     15  O   UNL     1       3.195   2.430  21.561  0.00  0.00    +0.000 OA
ENDBRANCH   9  13
BRANCH  12  16
ATOM     16  O   UNL     1       4.465   4.427  15.729  0.00  0.00    +0.000 OA
ATOM     17  H   UNL     1       5.382   4.683  15.525  0.00  0.00    +0.000 HD
ENDBRANCH  12  16
ENDBRANCH   6   7
ENDBRANCH   3   5
BRANCH   1  18
ATOM     18  C   UNL     1       8.316   9.362  17.759  0.00  0.00    +0.000 C 
BRANCH  18  19
ATOM     19  S   UNL     1       9.136  10.026  19.241  0.00  0.00    +0.000 S 
BRANCH  19  22
ATOM     20  C   UNL     1       9.050  13.072  20.275  0.00  0.00    +0.000 C 
ATOM     21  N   UNL     1       9.898  12.657  19.187  0.00  0.00    +0.000 N 
ATOM     22  C   UNL     1       9.960  11.414  18.612  0.00  0.00    +0.000 A 
ATOM     23  N   UNL     1      10.714  11.459  17.544  0.00  0.00    +0.000 NA
ATOM     24  N   UNL     1      11.185  12.748  17.423  0.00  0.00    +0.000 NA
ATOM     25  C   UNL     1      10.735  13.470  18.439  0.00  0.00    +0.000 A 
BRANCH  25  26
ATOM     26  C   UNL     1      11.039  14.892  18.671  0.00  0.00    +0.000 A 
ATOM     27  C   UNL     1      10.433  15.872  17.868  0.00  0.00    +0.000 A 
ATOM     28  C   UNL     1      10.694  17.233  18.069  0.00  0.00    +0.000 A 
ATOM     29  C   UNL     1      11.565  17.637  19.077  0.00  0.00    +0.000 A 
ATOM     30  C   UNL     1      12.196  16.681  19.865  0.00  0.00    +0.000 A 
ATOM     31  C   UNL     1      11.951  15.321  19.648  0.00  0.00    +0.000 A 
ENDBRANCH  25  26
ENDBRANCH  19  22
ENDBRANCH  18  19
ENDBRANCH   1  18
TORSDOF 8
ENDMDL
MODEL 8
REMARK VINA RESULT:      -7.2      3.786      6.208
REMARK  Name = 
REMARK  9 active torsions:
REMARK  status: ('A' for Active; 'I' for Inactive)
REMARK    1  A    between atoms: C_1  and  N_2
REMARK    2  A    between atoms: C_3  and  S_4
REMARK    3  A    between atoms: S_4  and  C_5
REMARK    4  A    between atoms: C_5  and  C_6
REMARK    5  A    between atoms: N_8  and  N_9
REMARK    6  A    between atoms: C_10  and  C_11
REMARK    7  A    between atoms: C_13  and  N_14
REMARK    8  A    between atoms: C_19  and  O_20
REMARK    9  A    between atoms: C_23  and  C_24
REMARK                            x       y       z     vdW  Elec       q    Type
REMARK                         _______ _______ _______ _____ _____    ______ ____
ROOT
ATOM      1  C   UNL     1       0.977   9.346  21.074  0.00  0.00    +0.000 C 
ATOM      2  O   UNL     1       1.059   8.614  22.063  0.00  0.00    +0.000 OA
ATOM      3  N   UNL     1       1.483   9.021  19.819  0.00  0.00    +0.000 N 
ATOM      4  H   UNL     1       1.312   9.637  19.031  0.00  0.00    +0.000 HD
ENDROOT
BRANCH   3   5
ATOM      5  N   UNL     1       2.018   7.784  19.606  0.00  0.00    +0.000 NA
ATOM      6  C   UNL     1       2.314   7.474  18.386  0.00  0.00    +0.000 C 
BRANCH   6   7
ATOM      7  C   UNL     1       2.872   6.138  18.066  0.00  0.00    +0.000 A 
ATOM      8  C   UNL     1       2.156   4.991  18.440  0.00  0.00    +0.000 A 
ATOM      9  C   UNL     1       2.662   3.727  18.117  0.00  0.00    +0.000 A 
ATOM     10  C   UNL     1       3.876   3.600  17.426  0.00  0.00    +0.000 A 
ATOM     11  C   UNL     1       4.590   4.747  17.063  0.00  0.00    +0.000 A 
ATOM     12  C   UNL     1       4.087   6.012  17.381  0.00  0.00    +0.000 A 
BRANCH   9  13
ATOM     13  N   UNL     1       1.916   2.520  18.499  0.00  0.00    +0.000 N 
ATOM     14  O   UNL     1       2.543   1.596  19.032  0.00  0.00    +0.000 OA
ATOM     15  O   UNL     1       0.702   2.499  18.263  0.00  0.00    +0.000 OA
ENDBRANCH   9  13
BRANCH  12  16
ATOM     16  O   UNL     1       4.787   7.127  17.015  0.00  0.00    +0.000 OA
ATOM     17  H   UNL     1       5.717   7.029  17.289  0.00  0.00    +0.000 HD
ENDBRANCH  12  16
ENDBRANCH   6   7
ENDBRANCH   3   5
BRANCH   1  18
ATOM     18  C   UNL     1       0.377  10.745  21.191  0.00  0.00    +0.000 C 
BRANCH  18  19
ATOM     19  S   UNL     1       0.351  11.620  19.597  0.00  0.00    +0.000 S 
BRANCH  19  22
ATOM     20  C   UNL     1      -2.507  13.010  20.108  0.00  0.00    +0.000 C 
ATOM     21  N   UNL     1      -2.345  11.902  19.202  0.00  0.00    +0.000 N 
ATOM     22  C   UNL     1      -1.202  11.183  18.965  0.00  0.00    +0.000 A 
ATOM     23  N   UNL     1      -1.479  10.147  18.216  0.00  0.00    +0.000 NA
ATOM     24  N   UNL     1      -2.824  10.194  17.924  0.00  0.00    +0.000 NA
ATOM     25  C   UNL     1      -3.349  11.277  18.478  0.00  0.00    +0.000 A 
BRANCH  25  26
ATOM     26  C   UNL     1      -4.760  11.686  18.373  0.00  0.00    +0.000 A 
ATOM     27  C   UNL     1      -5.218  12.307  17.200  0.00  0.00    +0.000 A 
ATOM     28  C   UNL     1      -6.555  12.700  17.065  0.00  0.00    +0.000 A 
ATOM     29  C   UNL     1      -7.458  12.476  18.100  0.00  0.00    +0.000 A 
ATOM     30  C   UNL     1      -7.018  11.886  19.281  0.00  0.00    +0.000 A 
ATOM     31  C   UNL     1      -5.676  11.515  19.421  0.00  0.00    +0.000 A 
ENDBRANCH  25  26
ENDBRANCH  19  22
ENDBRANCH  18  19
ENDBRANCH   1  18
TORSDOF 8
ENDMDL
MODEL 9
REMARK VINA RESULT:      -7.2      4.034      6.225
REMARK  Name = 
REMARK  9 active torsions:
REMARK  status: ('A' for Active; 'I' for Inactive)
REMARK    1  A    between atoms: C_1  and  N_2
REMARK    2  A    between atoms: C_3  and  S_4
REMARK    3  A    between atoms: S_4  and  C_5
REMARK    4  A    between atoms: C_5  and  C_6
REMARK    5  A    between atoms: N_8  and  N_9
REMARK    6  A    between atoms: C_10  and  C_11
REMARK    7  A    between atoms: C_13  and  N_14
REMARK    8  A    between atoms: C_19  and  O_20
REMARK    9  A    between atoms: C_23  and  C_24
REMARK                            x       y       z     vdW  Elec       q    Type
REMARK                         _______ _______ _______ _____ _____    ______ ____
ROOT
ATOM      1  C   UNL     1       1.606   9.917  18.463  0.00  0.00    +0.000 C 
ATOM      2  O   UNL     1       2.309  10.232  17.500  0.00  0.00    +0.000 OA
ATOM      3  N   UNL     1       1.684   8.691  19.118  0.00  0.00    +0.000 N 
ATOM      4  H   UNL     1       1.130   8.530  19.953  0.00  0.00    +0.000 HD
ENDROOT
BRANCH   3   5
ATOM      5  N   UNL     1       2.653   7.798  18.766  0.00  0.00    +0.000 NA
ATOM      6  C   UNL     1       2.280   6.767  18.079  0.00  0.00    +0.000 C 
BRANCH   6   7
ATOM      7  C   UNL     1       3.266   5.734  17.682  0.00  0.00    +0.000 A 
ATOM      8  C   UNL     1       4.577   6.123  17.371  0.00  0.00    +0.000 A 
ATOM      9  C   UNL     1       5.521   5.152  17.023  0.00  0.00    +0.000 A 
ATOM     10  C   UNL     1       5.165   3.795  16.981  0.00  0.00    +0.000 A 
ATOM     11  C   UNL     1       3.854   3.413  17.283  0.00  0.00    +0.000 A 
ATOM     12  C   UNL     1       2.909   4.380  17.635  0.00  0.00    +0.000 A 
BRANCH   9  13
ATOM     13  N   UNL     1       6.899   5.549  16.702  0.00  0.00    +0.000 N 
ATOM     14  O   UNL     1       7.134   6.755  16.552  0.00  0.00    +0.000 OA
ATOM     15  O   UNL     1       7.744   4.652  16.600  0.00  0.00    +0.000 OA
ENDBRANCH   9  13
BRANCH  12  16
ATOM     16  O   UNL     1       1.632   3.997  17.936  0.00  0.00    +0.000 OA
ATOM     17  H   UNL     1       1.599   3.676  18.855  0.00  0.00    +0.000 HD
ENDBRANCH  12  16
ENDBRANCH   6   7
ENDBRANCH   3   5
BRANCH   1  18
ATOM     18  C   UNL     1       0.503  10.850  18.956  0.00  0.00    +0.000 C 
BRANCH  18  19
ATOM     19  S   UNL     1       1.089  11.988  20.249  0.00  0.00    +0.000 S 
BRANCH  19  22
ATOM     20  C   UNL     1      -1.738  13.490  20.582  0.00  0.00    +0.000 C 
ATOM     21  N   UNL     1      -1.318  12.442  21.477  0.00  0.00    +0.000 N 
ATOM     22  C   UNL     1      -0.112  11.790  21.482  0.00  0.00    +0.000 A 
ATOM     23  N   UNL     1      -0.026  11.028  22.542  0.00  0.00    +0.000 NA
ATOM     24  N   UNL     1      -1.208  11.154  23.239  0.00  0.00    +0.000 NA
ATOM     25  C   UNL     1      -2.014  11.971  22.579  0.00  0.00    +0.000 A 
BRANCH  25  26
ATOM     26  C   UNL     1      -3.378  12.340  22.997  0.00  0.00    +0.000 A 
ATOM     27  C   UNL     1      -4.328  12.699  22.027  0.00  0.00    +0.000 A 
ATOM     28  C   UNL     1      -5.636  13.046  22.390  0.00  0.00    +0.000 A 
ATOM     29  C   UNL     1      -6.015  13.037  23.729  0.00  0.00    +0.000 A 
ATOM     30  C   UNL     1      -5.082  12.711  24.706  0.00  0.00    +0.000 A 
ATOM     31  C   UNL     1      -3.770  12.386  24.343  0.00  0.00    +0.000 A 
ENDBRANCH  25  26
ENDBRANCH  19  22
ENDBRANCH  18  19
ENDBRANCH   1  18
TORSDOF 8
ENDMDL
