MODEL 1
REMARK VINA RESULT:      -9.1      0.000      0.000
REMARK  Name = 
REMARK  5 active torsions:
REMARK  status: ('A' for Active; 'I' for Inactive)
REMARK    1  A    between atoms: C_1  and  C_2
REMARK    2  A    between atoms: N_6  and  N_7
REMARK    3  A    between atoms: C_8  and  C_9
REMARK    4  A    between atoms: C_8  and  C_16
REMARK    5  A    between atoms: C_10  and  C_11
REMARK                            x       y       z     vdW  Elec       q    Type
REMARK                         _______ _______ _______ _____ _____    ______ ____
ROOT
ATOM      1  N   UNL     1       6.399   4.975  18.898  0.00  0.00    +0.000 NA
ATOM      2  C   UNL     1       6.990   5.553  17.888  0.00  0.00    +0.000 C 
ENDROOT
BRANCH   2   3
ATOM      3  C   UNL     1       6.900   5.135  16.491  0.00  0.00    +0.000 A 
ATOM      4  N   UNL     1       5.994   4.289  16.018  0.00  0.00    +0.000 NA
ATOM      5  C   UNL     1       6.227   4.199  14.665  0.00  0.00    +0.000 A 
ATOM      6  C   UNL     1       5.550   3.468  13.679  0.00  0.00    +0.000 A 
ATOM      7  C   UNL     1       5.978   3.581  12.349  0.00  0.00    +0.000 A 
ATOM      8  C   UNL     1       7.062   4.395  12.010  0.00  0.00    +0.000 A 
ATOM      9  C   UNL     1       7.760   5.117  12.983  0.00  0.00    +0.000 A 
ATOM     10  C   UNL     1       7.307   4.989  14.296  0.00  0.00    +0.000 A 
ATOM     11  N   UNL     1       7.738   5.535  15.472  0.00  0.00    +0.000 N 
ATOM     12  H   UNL     1       8.537   6.149  15.567  0.00  0.00    +0.000 HD
ENDBRANCH   2   3
BRANCH   1  18
ATOM     13  C   UNL     1       1.182   1.992  18.850  0.00  0.00    +0.000 C 
ATOM     14  C   UNL     1       2.192   3.065  19.027  0.00  0.00    +0.000 A 
ATOM     15  C   UNL     1       1.964   4.329  19.529  0.00  0.00    +0.000 A 
ATOM     16  S   UNL     1       3.405   5.243  19.494  0.00  0.00    +0.000 S 
ATOM     17  C   UNL     1       4.264   3.871  18.877  0.00  0.00    +0.000 A 
ATOM     18  N   UNL     1       5.605   3.890  18.666  0.00  0.00    +0.000 N 
ATOM     19  N   UNL     1       3.508   2.811  18.672  0.00  0.00    +0.000 NA
ATOM     20  H   UNL     1       6.049   2.981  18.490  0.00  0.00    +0.000 HD
ENDBRANCH   1  18
BRANCH   2  21
ATOM     21  C   UNL     1       7.812   6.774  18.167  0.00  0.00    +0.000 C 
ATOM     22  C   UNL     1       7.377   8.004  17.848  0.00  0.00    +0.000 C 
BRANCH  22  23
ATOM     23  C   UNL     1       8.195   9.135  18.098  0.00  0.00    +0.000 A 
ATOM     24  C   UNL     1       8.394  10.355  17.475  0.00  0.00    +0.000 A 
ATOM     25  C   UNL     1       9.334  11.088  18.238  0.00  0.00    +0.000 A 
ATOM     26  C   UNL     1       9.696  10.299  19.303  0.00  0.00    +0.000 A 
ATOM     27  N   UNL     1       9.006   9.117  19.210  0.00  0.00    +0.000 N 
ATOM     28  H   UNL     1       9.077   8.354  19.871  0.00  0.00    +0.000 HD
ENDBRANCH  22  23
ENDBRANCH   2  21
TORSDOF 4
ENDMDL
MODEL 2
REMARK VINA RESULT:      -9.1      1.948      5.465
REMARK  Name = 
REMARK  5 active torsions:
REMARK  status: ('A' for Active; 'I' for Inactive)
REMARK    1  A    between atoms: C_1  and  C_2
REMARK    2  A    between atoms: N_6  and  N_7
REMARK    3  A    between atoms: C_8  and  C_9
REMARK    4  A    between atoms: C_8  and  C_16
REMARK    5  A    between atoms: C_10  and  C_11
REMARK                            x       y       z     vdW  Elec       q    Type
REMARK                         _______ _______ _______ _____ _____    ______ ____
ROOT
ATOM      1  N   UNL     1       7.200   5.841  16.065  0.00  0.00    +0.000 NA
ATOM      2  C   UNL     1       6.944   6.122  17.314  0.00  0.00    +0.000 C 
ENDROOT
BRANCH   2   3
ATOM      3  C   UNL     1       5.958   5.450  18.157  0.00  0.00    +0.000 A 
ATOM      4  N   UNL     1       4.885   6.036  18.670  0.00  0.00    +0.000 NA
ATOM      5  C   UNL     1       4.206   5.056  19.356  0.00  0.00    +0.000 A 
ATOM      6  C   UNL     1       2.997   5.120  20.063  0.00  0.00    +0.000 A 
ATOM      7  C   UNL     1       2.502   3.948  20.651  0.00  0.00    +0.000 A 
ATOM      8  C   UNL     1       3.200   2.741  20.546  0.00  0.00    +0.000 A 
ATOM      9  C   UNL     1       4.415   2.663  19.860  0.00  0.00    +0.000 A 
ATOM     10  C   UNL     1       4.879   3.845  19.281  0.00  0.00    +0.000 A 
ATOM     11  N   UNL     1       6.001   4.131  18.555  0.00  0.00    +0.000 N 
ATOM     12  H   UNL     1       6.734   3.467  18.334  0.00  0.00    +0.000 HD
ENDBRANCH   2   3
BRANCH   1  18
ATOM     13  C   UNL     1       5.714   2.305  11.438  0.00  0.00    +0.000 C 
ATOM     14  C   UNL     1       6.363   3.359  12.256  0.00  0.00    +0.000 A 
ATOM     15  C   UNL     1       7.305   4.268  11.822  0.00  0.00    +0.000 A 
ATOM     16  S   UNL     1       7.816   5.249  13.121  0.00  0.00    +0.000 S 
ATOM     17  C   UNL     1       6.695   4.449  14.172  0.00  0.00    +0.000 A 
ATOM     18  N   UNL     1       6.517   4.823  15.464  0.00  0.00    +0.000 N 
ATOM     19  N   UNL     1       6.014   3.480  13.593  0.00  0.00    +0.000 NA
ATOM     20  H   UNL     1       5.700   4.426  15.943  0.00  0.00    +0.000 HD
ENDBRANCH   1  18
BRANCH   2  21
ATOM     21  C   UNL     1       7.747   7.208  17.963  0.00  0.00    +0.000 C 
ATOM     22  C   UNL     1       7.661   8.486  17.557  0.00  0.00    +0.000 C 
BRANCH  22  23
ATOM     23  C   UNL     1       8.459   9.482  18.173  0.00  0.00    +0.000 A 
ATOM     24  C   UNL     1       8.873  10.757  17.827  0.00  0.00    +0.000 A 
ATOM     25  C   UNL     1       9.642  11.274  18.897  0.00  0.00    +0.000 A 
ATOM     26  C   UNL     1       9.690  10.303  19.868  0.00  0.00    +0.000 A 
ATOM     27  N   UNL     1       8.975   9.221  19.423  0.00  0.00    +0.000 N 
ATOM     28  H   UNL     1       8.840   8.364  19.944  0.00  0.00    +0.000 HD
ENDBRANCH  22  23
ENDBRANCH   2  21
TORSDOF 4
ENDMDL
MODEL 3
REMARK VINA RESULT:      -9.0      1.928      5.471
REMARK  Name = 
REMARK  5 active torsions:
REMARK  status: ('A' for Active; 'I' for Inactive)
REMARK    1  A    between atoms: C_1  and  C_2
REMARK    2  A    between atoms: N_6  and  N_7
REMARK    3  A    between atoms: C_8  and  C_9
REMARK    4  A    between atoms: C_8  and  C_16
REMARK    5  A    between atoms: C_10  and  C_11
REMARK                            x       y       z     vdW  Elec       q    Type
REMARK                         _______ _______ _______ _____ _____    ______ ____
ROOT
ATOM      1  N   UNL     1       7.348   5.739  16.172  0.00  0.00    +0.000 NA
ATOM      2  C   UNL     1       6.968   6.111  17.364  0.00  0.00    +0.000 C 
ENDROOT
BRANCH   2   3
ATOM      3  C   UNL     1       5.881   5.517  18.140  0.00  0.00    +0.000 A 
ATOM      4  N   UNL     1       5.851   4.254  18.544  0.00  0.00    +0.000 NA
ATOM      5  C   UNL     1       4.691   4.115  19.270  0.00  0.00    +0.000 A 
ATOM      6  C   UNL     1       4.178   2.998  19.946  0.00  0.00    +0.000 A 
ATOM      7  C   UNL     1       2.972   3.137  20.648  0.00  0.00    +0.000 A 
ATOM      8  C   UNL     1       2.289   4.356  20.669  0.00  0.00    +0.000 A 
ATOM      9  C   UNL     1       2.778   5.474  19.987  0.00  0.00    +0.000 A 
ATOM     10  C   UNL     1       3.982   5.307  19.302  0.00  0.00    +0.000 A 
ATOM     11  N   UNL     1       4.733   6.162  18.546  0.00  0.00    +0.000 N 
ATOM     12  H   UNL     1       4.486   7.122  18.339  0.00  0.00    +0.000 HD
ENDBRANCH   2   3
BRANCH   1  18
ATOM     13  C   UNL     1       5.783   2.320  11.484  0.00  0.00    +0.000 C 
ATOM     14  C   UNL     1       6.407   3.386  12.306  0.00  0.00    +0.000 A 
ATOM     15  C   UNL     1       7.228   4.396  11.851  0.00  0.00    +0.000 A 
ATOM     16  S   UNL     1       7.760   5.354  13.159  0.00  0.00    +0.000 S 
ATOM     17  C   UNL     1       6.805   4.404  14.248  0.00  0.00    +0.000 A 
ATOM     18  N   UNL     1       6.706   4.695  15.570  0.00  0.00    +0.000 N 
ATOM     19  N   UNL     1       6.163   3.408  13.671  0.00  0.00    +0.000 NA
ATOM     20  H   UNL     1       5.970   4.202  16.090  0.00  0.00    +0.000 HD
ENDBRANCH   1  18
BRANCH   2  21
ATOM     21  C   UNL     1       7.726   7.224  18.022  0.00  0.00    +0.000 C 
ATOM     22  C   UNL     1       7.696   8.477  17.540  0.00  0.00    +0.000 C 
BRANCH  22  23
ATOM     23  C   UNL     1       8.450   9.499  18.170  0.00  0.00    +0.000 A 
ATOM     24  C   UNL     1       8.787  10.804  17.852  0.00  0.00    +0.000 A 
ATOM     25  C   UNL     1       9.547  11.333  18.922  0.00  0.00    +0.000 A 
ATOM     26  C   UNL     1       9.667  10.341  19.865  0.00  0.00    +0.000 A 
ATOM     27  N   UNL     1       9.003   9.233  19.402  0.00  0.00    +0.000 N 
ATOM     28  H   UNL     1       8.925   8.357  19.902  0.00  0.00    +0.000 HD
ENDBRANCH  22  23
ENDBRANCH   2  21
TORSDOF 4
ENDMDL
MODEL 4
REMARK VINA RESULT:      -8.8      0.093      1.164
REMARK  Name = 
REMARK  5 active torsions:
REMARK  status: ('A' for Active; 'I' for Inactive)
REMARK    1  A    between atoms: C_1  and  C_2
REMARK    2  A    between atoms: N_6  and  N_7
REMARK    3  A    between atoms: C_8  and  C_9
REMARK    4  A    between atoms: C_8  and  C_16
REMARK    5  A    between atoms: C_10  and  C_11
REMARK                            x       y       z     vdW  Elec       q    Type
REMARK                         _______ _______ _______ _____ _____    ______ ____
ROOT
ATOM      1  N   UNL     1       6.468   4.989  18.905  0.00  0.00    +0.000 NA
ATOM      2  C   UNL     1       7.010   5.607  17.891  0.00  0.00    +0.000 C 
ENDROOT
BRANCH   2   3
ATOM      3  C   UNL     1       6.865   5.233  16.485  0.00  0.00    +0.000 A 
ATOM      4  N   UNL     1       7.688   5.615  15.518  0.00  0.00    +0.000 NA
ATOM      5  C   UNL     1       7.227   5.019  14.368  0.00  0.00    +0.000 A 
ATOM      6  C   UNL     1       7.735   5.063  13.062  0.00  0.00    +0.000 A 
ATOM      7  C   UNL     1       7.083   4.325  12.064  0.00  0.00    +0.000 A 
ATOM      8  C   UNL     1       5.945   3.568  12.358  0.00  0.00    +0.000 A 
ATOM      9  C   UNL     1       5.415   3.527  13.651  0.00  0.00    +0.000 A 
ATOM     10  C   UNL     1       6.089   4.267  14.623  0.00  0.00    +0.000 A 
ATOM     11  N   UNL     1       5.858   4.453  15.957  0.00  0.00    +0.000 N 
ATOM     12  H   UNL     1       5.079   4.061  16.471  0.00  0.00    +0.000 HD
ENDBRANCH   2   3
BRANCH   1  18
ATOM     13  C   UNL     1       1.256   1.998  18.840  0.00  0.00    +0.000 C 
ATOM     14  C   UNL     1       2.264   3.073  19.021  0.00  0.00    +0.000 A 
ATOM     15  C   UNL     1       2.032   4.337  19.521  0.00  0.00    +0.000 A 
ATOM     16  S   UNL     1       3.471   5.253  19.491  0.00  0.00    +0.000 S 
ATOM     17  C   UNL     1       4.335   3.882  18.878  0.00  0.00    +0.000 A 
ATOM     18  N   UNL     1       5.676   3.903  18.670  0.00  0.00    +0.000 N 
ATOM     19  N   UNL     1       3.581   2.821  18.670  0.00  0.00    +0.000 NA
ATOM     20  H   UNL     1       6.122   2.994  18.497  0.00  0.00    +0.000 HD
ENDBRANCH   1  18
BRANCH   2  21
ATOM     21  C   UNL     1       7.830   6.828  18.175  0.00  0.00    +0.000 C 
ATOM     22  C   UNL     1       7.401   8.057  17.847  0.00  0.00    +0.000 C 
BRANCH  22  23
ATOM     23  C   UNL     1       8.216   9.188  18.102  0.00  0.00    +0.000 A 
ATOM     24  C   UNL     1       8.415  10.411  17.485  0.00  0.00    +0.000 A 
ATOM     25  C   UNL     1       9.353  11.142  18.252  0.00  0.00    +0.000 A 
ATOM     26  C   UNL     1       9.715  10.348  19.314  0.00  0.00    +0.000 A 
ATOM     27  N   UNL     1       9.027   9.166  19.216  0.00  0.00    +0.000 N 
ATOM     28  H   UNL     1       9.097   8.400  19.873  0.00  0.00    +0.000 HD
ENDBRANCH  22  23
ENDBRANCH   2  21
TORSDOF 4
ENDMDL
MODEL 5
REMARK VINA RESULT:      -7.8      2.099      5.566
REMARK  Name = 
REMARK  5 active torsions:
REMARK  status: ('A' for Active; 'I' for Inactive)
REMARK    1  A    between atoms: C_1  and  C_2
REMARK    2  A    between atoms: N_6  and  N_7
REMARK    3  A    between atoms: C_8  and  C_9
REMARK    4  A    between atoms: C_8  and  C_16
REMARK    5  A    between atoms: C_10  and  C_11
REMARK                            x       y       z     vdW  Elec       q    Type
REMARK                         _______ _______ _______ _____ _____    ______ ____
ROOT
ATOM      1  N   UNL     1       6.394   5.925  15.947  0.00  0.00    +0.000 NA
ATOM      2  C   UNL     1       5.865   6.346  17.064  0.00  0.00    +0.000 C 
ENDROOT
BRANCH   2   3
ATOM      3  C   UNL     1       4.702   5.765  17.731  0.00  0.00    +0.000 A 
ATOM      4  N   UNL     1       3.773   5.039  17.124  0.00  0.00    +0.000 NA
ATOM      5  C   UNL     1       2.889   4.654  18.104  0.00  0.00    +0.000 A 
ATOM      6  C   UNL     1       1.739   3.855  18.020  0.00  0.00    +0.000 A 
ATOM      7  C   UNL     1       1.024   3.584  19.196  0.00  0.00    +0.000 A 
ATOM      8  C   UNL     1       1.439   4.105  20.425  0.00  0.00    +0.000 A 
ATOM      9  C   UNL     1       2.573   4.917  20.523  0.00  0.00    +0.000 A 
ATOM     10  C   UNL     1       3.266   5.164  19.338  0.00  0.00    +0.000 A 
ATOM     11  N   UNL     1       4.389   5.895  19.067  0.00  0.00    +0.000 N 
ATOM     12  H   UNL     1       4.911   6.430  19.751  0.00  0.00    +0.000 HD
ENDBRANCH   2   3
BRANCH   1  18
ATOM     13  C   UNL     1       5.769   2.020  11.422  0.00  0.00    +0.000 C 
ATOM     14  C   UNL     1       6.246   3.156  12.249  0.00  0.00    +0.000 A 
ATOM     15  C   UNL     1       7.209   4.078  11.897  0.00  0.00    +0.000 A 
ATOM     16  S   UNL     1       7.477   5.167  13.182  0.00  0.00    +0.000 S 
ATOM     17  C   UNL     1       6.238   4.387  14.107  0.00  0.00    +0.000 A 
ATOM     18  N   UNL     1       5.850   4.838  15.327  0.00  0.00    +0.000 N 
ATOM     19  N   UNL     1       5.690   3.350  13.505  0.00  0.00    +0.000 NA
ATOM     20  H   UNL     1       4.984   4.435  15.705  0.00  0.00    +0.000 HD
ENDBRANCH   1  18
BRANCH   2  21
ATOM     21  C   UNL     1       6.516   7.507  17.751  0.00  0.00    +0.000 C 
ATOM     22  C   UNL     1       7.716   7.972  17.364  0.00  0.00    +0.000 C 
BRANCH  22  23
ATOM     23  C   UNL     1       8.316   9.053  18.057  0.00  0.00    +0.000 A 
ATOM     24  C   UNL     1       9.047   9.181  19.226  0.00  0.00    +0.000 A 
ATOM     25  C   UNL     1       9.406  10.543  19.371  0.00  0.00    +0.000 A 
ATOM     26  C   UNL     1       8.881  11.218  18.295  0.00  0.00    +0.000 A 
ATOM     27  N   UNL     1       8.220  10.312  17.506  0.00  0.00    +0.000 N 
ATOM     28  H   UNL     1       7.745  10.537  16.642  0.00  0.00    +0.000 HD
ENDBRANCH  22  23
ENDBRANCH   2  21
TORSDOF 4
ENDMDL
MODEL 6
REMARK VINA RESULT:      -7.8      3.324      5.981
REMARK  Name = 
REMARK  5 active torsions:
REMARK  status: ('A' for Active; 'I' for Inactive)
REMARK    1  A    between atoms: C_1  and  C_2
REMARK    2  A    between atoms: N_6  and  N_7
REMARK    3  A    between atoms: C_8  and  C_9
REMARK    4  A    between atoms: C_8  and  C_16
REMARK    5  A    between atoms: C_10  and  C_11
REMARK                            x       y       z     vdW  Elec       q    Type
REMARK                         _______ _______ _______ _____ _____    ______ ____
ROOT
ATOM      1  N   UNL     1       5.187   4.032  18.167  0.00  0.00    +0.000 NA
ATOM      2  C   UNL     1       4.831   5.073  17.464  0.00  0.00    +0.000 C 
ENDROOT
BRANCH   2   3
ATOM      3  C   UNL     1       3.916   6.126  17.899  0.00  0.00    +0.000 A 
ATOM      4  N   UNL     1       3.310   6.154  19.078  0.00  0.00    +0.000 NA
ATOM      5  C   UNL     1       2.580   7.320  19.103  0.00  0.00    +0.000 A 
ATOM      6  C   UNL     1       1.775   7.859  20.116  0.00  0.00    +0.000 A 
ATOM      7  C   UNL     1       1.159   9.099  19.894  0.00  0.00    +0.000 A 
ATOM      8  C   UNL     1       1.334   9.782  18.687  0.00  0.00    +0.000 A 
ATOM      9  C   UNL     1       2.119   9.250  17.660  0.00  0.00    +0.000 A 
ATOM     10  C   UNL     1       2.723   8.018  17.912  0.00  0.00    +0.000 A 
ATOM     11  N   UNL     1       3.536   7.223  17.155  0.00  0.00    +0.000 N 
ATOM     12  H   UNL     1       3.824   7.426  16.205  0.00  0.00    +0.000 HD
ENDBRANCH   2   3
BRANCH   1  18
ATOM     13  C   UNL     1       1.124   2.258  22.225  0.00  0.00    +0.000 C 
ATOM     14  C   UNL     1       1.819   2.496  20.935  0.00  0.00    +0.000 A 
ATOM     15  C   UNL     1       1.364   2.141  19.683  0.00  0.00    +0.000 A 
ATOM     16  S   UNL     1       2.520   2.558  18.499  0.00  0.00    +0.000 S 
ATOM     17  C   UNL     1       3.529   3.254  19.723  0.00  0.00    +0.000 A 
ATOM     18  N   UNL     1       4.692   3.889  19.431  0.00  0.00    +0.000 N 
ATOM     19  N   UNL     1       3.047   3.140  20.945  0.00  0.00    +0.000 NA
ATOM     20  H   UNL     1       5.115   4.434  20.192  0.00  0.00    +0.000 HD
ENDBRANCH   1  18
BRANCH   2  21
ATOM     21  C   UNL     1       5.432   5.232  16.100  0.00  0.00    +0.000 C 
ATOM     22  C   UNL     1       5.947   4.188  15.432  0.00  0.00    +0.000 C 
BRANCH  22  23
ATOM     23  C   UNL     1       6.535   4.380  14.156  0.00  0.00    +0.000 A 
ATOM     24  C   UNL     1       6.360   3.818  12.903  0.00  0.00    +0.000 A 
ATOM     25  C   UNL     1       7.239   4.469  12.005  0.00  0.00    +0.000 A 
ATOM     26  C   UNL     1       7.937   5.407  12.727  0.00  0.00    +0.000 A 
ATOM     27  N   UNL     1       7.509   5.345  14.029  0.00  0.00    +0.000 N 
ATOM     28  H   UNL     1       7.852   5.933  14.778  0.00  0.00    +0.000 HD
ENDBRANCH  22  23
ENDBRANCH   2  21
TORSDOF 4
ENDMDL
MODEL 7
REMARK VINA RESULT:      -7.6      3.307      6.036
REMARK  Name = 
REMARK  5 active torsions:
REMARK  status: ('A' for Active; 'I' for Inactive)
REMARK    1  A    between atoms: C_1  and  C_2
REMARK    2  A    between atoms: N_6  and  N_7
REMARK    3  A    between atoms: C_8  and  C_9
REMARK    4  A    between atoms: C_8  and  C_16
REMARK    5  A    between atoms: C_10  and  C_11
REMARK                            x       y       z     vdW  Elec       q    Type
REMARK                         _______ _______ _______ _____ _____    ______ ____
ROOT
ATOM      1  N   UNL     1       5.196   3.967  18.113  0.00  0.00    +0.000 NA
ATOM      2  C   UNL     1       4.870   5.034  17.435  0.00  0.00    +0.000 C 
ENDROOT
BRANCH   2   3
ATOM      3  C   UNL     1       4.000   6.111  17.904  0.00  0.00    +0.000 A 
ATOM      4  N   UNL     1       3.670   7.175  17.185  0.00  0.00    +0.000 NA
ATOM      5  C   UNL     1       2.813   7.913  17.968  0.00  0.00    +0.000 A 
ATOM      6  C   UNL     1       2.145   9.114  17.691  0.00  0.00    +0.000 A 
ATOM      7  C   UNL     1       1.289   9.645  18.667  0.00  0.00    +0.000 A 
ATOM      8  C   UNL     1       1.109   8.999  19.893  0.00  0.00    +0.000 A 
ATOM      9  C   UNL     1       1.781   7.809  20.192  0.00  0.00    +0.000 A 
ATOM     10  C   UNL     1       2.621   7.303  19.200  0.00  0.00    +0.000 A 
ATOM     11  N   UNL     1       3.413   6.191  19.149  0.00  0.00    +0.000 N 
ATOM     12  H   UNL     1       3.530   5.528  19.905  0.00  0.00    +0.000 HD
ENDBRANCH   2   3
BRANCH   1  18
ATOM     13  C   UNL     1       1.116   2.284  22.192  0.00  0.00    +0.000 C 
ATOM     14  C   UNL     1       1.803   2.520  20.898  0.00  0.00    +0.000 A 
ATOM     15  C   UNL     1       1.314   2.216  19.645  0.00  0.00    +0.000 A 
ATOM     16  S   UNL     1       2.470   2.608  18.453  0.00  0.00    +0.000 S 
ATOM     17  C   UNL     1       3.527   3.228  19.677  0.00  0.00    +0.000 A 
ATOM     18  N   UNL     1       4.714   3.817  19.381  0.00  0.00    +0.000 N 
ATOM     19  N   UNL     1       3.059   3.108  20.903  0.00  0.00    +0.000 NA
ATOM     20  H   UNL     1       5.172   4.324  20.147  0.00  0.00    +0.000 HD
ENDBRANCH   1  18
BRANCH   2  21
ATOM     21  C   UNL     1       5.457   5.198  16.067  0.00  0.00    +0.000 C 
ATOM     22  C   UNL     1       5.996   4.163  15.403  0.00  0.00    +0.000 C 
BRANCH  22  23
ATOM     23  C   UNL     1       6.571   4.361  14.123  0.00  0.00    +0.000 A 
ATOM     24  C   UNL     1       6.383   3.804  12.869  0.00  0.00    +0.000 A 
ATOM     25  C   UNL     1       7.251   4.460  11.964  0.00  0.00    +0.000 A 
ATOM     26  C   UNL     1       7.957   5.394  12.683  0.00  0.00    +0.000 A 
ATOM     27  N   UNL     1       7.543   5.327  13.989  0.00  0.00    +0.000 N 
ATOM     28  H   UNL     1       7.894   5.911  14.736  0.00  0.00    +0.000 HD
ENDBRANCH  22  23
ENDBRANCH   2  21
TORSDOF 4
ENDMDL
MODEL 8
REMARK VINA RESULT:      -7.5      7.613     10.417
REMARK  Name = 
REMARK  5 active torsions:
REMARK  status: ('A' for Active; 'I' for Inactive)
REMARK    1  A    between atoms: C_1  and  C_2
REMARK    2  A    between atoms: N_6  and  N_7
REMARK    3  A    between atoms: C_8  and  C_9
REMARK    4  A    between atoms: C_8  and  C_16
REMARK    5  A    between atoms: C_10  and  C_11
REMARK                            x       y       z     vdW  Elec       q    Type
REMARK                         _______ _______ _______ _____ _____    ______ ____
ROOT
ATOM      1  N   UNL     1       1.255  11.585  19.970  0.00  0.00    +0.000 NA
ATOM      2  C   UNL     1       0.628  10.580  19.422  0.00  0.00    +0.000 C 
ENDROOT
BRANCH   2   3
ATOM      3  C   UNL     1      -0.616  10.663  18.658  0.00  0.00    +0.000 A 
ATOM      4  N   UNL     1      -1.741  11.198  19.112  0.00  0.00    +0.000 NA
ATOM      5  C   UNL     1      -2.646  11.114  18.079  0.00  0.00    +0.000 A 
ATOM      6  C   UNL     1      -3.976  11.552  18.006  0.00  0.00    +0.000 A 
ATOM      7  C   UNL     1      -4.676  11.372  16.805  0.00  0.00    +0.000 A 
ATOM      8  C   UNL     1      -4.068  10.761  15.704  0.00  0.00    +0.000 A 
ATOM      9  C   UNL     1      -2.748  10.304  15.765  0.00  0.00    +0.000 A 
ATOM     10  C   UNL     1      -2.076  10.502  16.971  0.00  0.00    +0.000 A 
ATOM     11  N   UNL     1      -0.810  10.189  17.378  0.00  0.00    +0.000 N 
ATOM     12  H   UNL     1      -0.124   9.703  16.814  0.00  0.00    +0.000 HD
ENDBRANCH   2   3
BRANCH   1  18
ATOM     13  C   UNL     1       1.415  17.328  18.208  0.00  0.00    +0.000 C 
ATOM     14  C   UNL     1       1.799  15.914  18.447  0.00  0.00    +0.000 A 
ATOM     15  C   UNL     1       2.995  15.321  18.101  0.00  0.00    +0.000 A 
ATOM     16  S   UNL     1       2.970  13.666  18.515  0.00  0.00    +0.000 S 
ATOM     17  C   UNL     1       1.389  13.856  19.197  0.00  0.00    +0.000 A 
ATOM     18  N   UNL     1       0.743  12.841  19.825  0.00  0.00    +0.000 N 
ATOM     19  N   UNL     1       0.897  15.073  19.082  0.00  0.00    +0.000 NA
ATOM     20  H   UNL     1      -0.092  13.100  20.364  0.00  0.00    +0.000 HD
ENDBRANCH   1  18
BRANCH   2  21
ATOM     21  C   UNL     1       1.241   9.219  19.552  0.00  0.00    +0.000 C 
ATOM     22  C   UNL     1       1.988   8.687  18.570  0.00  0.00    +0.000 C 
BRANCH  22  23
ATOM     23  C   UNL     1       2.527   7.384  18.714  0.00  0.00    +0.000 A 
ATOM     24  C   UNL     1       3.218   6.514  17.888  0.00  0.00    +0.000 A 
ATOM     25  C   UNL     1       3.521   5.349  18.634  0.00  0.00    +0.000 A 
ATOM     26  C   UNL     1       3.003   5.528  19.894  0.00  0.00    +0.000 A 
ATOM     27  N   UNL     1       2.400   6.759  19.935  0.00  0.00    +0.000 N 
ATOM     28  H   UNL     1       1.942   7.151  20.748  0.00  0.00    +0.000 HD
ENDBRANCH  22  23
ENDBRANCH   2  21
TORSDOF 4
ENDMDL
MODEL 9
REMARK VINA RESULT:      -7.4      4.281      7.266
REMARK  Name = 
REMARK  5 active torsions:
REMARK  status: ('A' for Active; 'I' for Inactive)
REMARK    1  A    between atoms: C_1  and  C_2
REMARK    2  A    between atoms: N_6  and  N_7
REMARK    3  A    between atoms: C_8  and  C_9
REMARK    4  A    between atoms: C_8  and  C_16
REMARK    5  A    between atoms: C_10  and  C_11
REMARK                            x       y       z     vdW  Elec       q    Type
REMARK                         _______ _______ _______ _____ _____    ______ ____
ROOT
ATOM      1  N   UNL     1       2.832   8.351  17.846  0.00  0.00    +0.000 NA
ATOM      2  C   UNL     1       3.234   7.110  17.810  0.00  0.00    +0.000 C 
ENDROOT
BRANCH   2   3
ATOM      3  C   UNL     1       2.744   6.028  18.662  0.00  0.00    +0.000 A 
ATOM      4  N   UNL     1       1.881   5.099  18.274  0.00  0.00    +0.000 NA
ATOM      5  C   UNL     1       1.718   4.257  19.349  0.00  0.00    +0.000 A 
ATOM      6  C   UNL     1       0.942   3.097  19.478  0.00  0.00    +0.000 A 
ATOM      7  C   UNL     1       0.982   2.394  20.691  0.00  0.00    +0.000 A 
ATOM      8  C   UNL     1       1.771   2.843  21.755  0.00  0.00    +0.000 A 
ATOM      9  C   UNL     1       2.538   4.007  21.649  0.00  0.00    +0.000 A 
ATOM     10  C   UNL     1       2.481   4.680  20.428  0.00  0.00    +0.000 A 
ATOM     11  N   UNL     1       3.085   5.822  19.982  0.00  0.00    +0.000 N 
ATOM     12  H   UNL     1       3.698   6.408  20.535  0.00  0.00    +0.000 HD
ENDBRANCH   2   3
BRANCH   1  18
ATOM     13  C   UNL     1      -0.682  12.261  20.758  0.00  0.00    +0.000 C 
ATOM     14  C   UNL     1       0.336  11.691  19.841  0.00  0.00    +0.000 A 
ATOM     15  C   UNL     1       1.158  12.398  18.990  0.00  0.00    +0.000 A 
ATOM     16  S   UNL     1       2.127  11.325  18.083  0.00  0.00    +0.000 S 
ATOM     17  C   UNL     1       1.441   9.981  18.935  0.00  0.00    +0.000 A 
ATOM     18  N   UNL     1       1.857   8.705  18.733  0.00  0.00    +0.000 N 
ATOM     19  N   UNL     1       0.515  10.316  19.811  0.00  0.00    +0.000 NA
ATOM     20  H   UNL     1       1.536   8.009  19.417  0.00  0.00    +0.000 HD
ENDBRANCH   1  18
BRANCH   2  21
ATOM     21  C   UNL     1       4.266   6.739  16.789  0.00  0.00    +0.000 C 
ATOM     22  C   UNL     1       4.550   5.457  16.509  0.00  0.00    +0.000 C 
BRANCH  22  23
ATOM     23  C   UNL     1       5.554   5.143  15.559  0.00  0.00    +0.000 A 
ATOM     24  C   UNL     1       5.606   4.380  14.405  0.00  0.00    +0.000 A 
ATOM     25  C   UNL     1       6.911   4.487  13.867  0.00  0.00    +0.000 A 
ATOM     26  C   UNL     1       7.630   5.303  14.706  0.00  0.00    +0.000 A 
ATOM     27  N   UNL     1       6.805   5.694  15.730  0.00  0.00    +0.000 N 
ATOM     28  H   UNL     1       7.076   6.306  16.488  0.00  0.00    +0.000 HD
ENDBRANCH  22  23
ENDBRANCH   2  21
TORSDOF 4
ENDMDL
