MODEL 1
REMARK VINA RESULT:      -7.5      0.000      0.000
REMARK  Name = 
REMARK  7 active torsions:
REMARK  status: ('A' for Active; 'I' for Inactive)
REMARK    1  A    between atoms: C_1  and  C_2
REMARK    2  A    between atoms: C_2  and  N_3
REMARK    3  A    between atoms: C_2  and  C_15
REMARK    4  A    between atoms: C_15  and  O_16
REMARK    5  A    between atoms: C_15  and  C_17
REMARK    6  A    between atoms: C_15  and  C_23
REMARK    7  A    between atoms: C_17  and  N_18
REMARK                            x       y       z     vdW  Elec       q    Type
REMARK                         _______ _______ _______ _____ _____    ______ ____
ROOT
ATOM      1  C   UNL     1       4.403   4.431  17.207  0.00  0.00    +0.000 C 
ENDROOT
BRANCH   1   2
ATOM      2  C   UNL     1       5.277   4.480  15.926  0.00  0.00    +0.000 A 
ATOM      3  C   UNL     1       4.770   4.048  14.682  0.00  0.00    +0.000 A 
ATOM      4  C   UNL     1       5.523   4.102  13.503  0.00  0.00    +0.000 A 
ATOM      5  C   UNL     1       6.829   4.552  13.546  0.00  0.00    +0.000 A 
ATOM      6  F   UNL     1       7.558   4.592  12.424  0.00  0.00    +0.000 F 
ATOM      7  C   UNL     1       7.400   4.912  14.749  0.00  0.00    +0.000 A 
ATOM      8  C   UNL     1       6.636   4.851  15.914  0.00  0.00    +0.000 A 
ATOM      9  F   UNL     1       7.299   5.080  17.051  0.00  0.00    +0.000 F 
ENDBRANCH   1   2
BRANCH   1  11
ATOM     10  C   UNL     1       5.637   5.084  19.452  0.00  0.00    +0.000 C 
ATOM     11  C   UNL     1       4.712   5.560  18.310  0.00  0.00    +0.000 C 
BRANCH  11  12
ATOM     12  N   UNL     1       3.546   6.223  18.940  0.00  0.00    +0.000 N 
ATOM     13  C   UNL     1       3.019   5.781  20.134  0.00  0.00    +0.000 A 
ATOM     14  N   UNL     1       2.068   6.364  20.786  0.00  0.00    +0.000 NA
ATOM     15  C   UNL     1       1.579   7.576  20.281  0.00  0.00    +0.000 A 
ATOM     16  C   UNL     1       0.639   8.291  21.024  0.00  0.00    +0.000 A 
ATOM     17  C   UNL     1       0.183   9.540  20.584  0.00  0.00    +0.000 A 
ATOM     18  C   UNL     1       0.657  10.068  19.382  0.00  0.00    +0.000 A 
ATOM     19 BR   UNL     1       0.076  11.771  18.808  0.00  0.00    +0.000 Br
ATOM     20  C   UNL     1       1.574   9.359  18.616  0.00  0.00    +0.000 A 
ATOM     21  C   UNL     1       2.030   8.120  19.080  0.00  0.00    +0.000 A 
ATOM     22  C   UNL     1       3.052   7.375  18.332  0.00  0.00    +0.000 A 
ATOM     23  O   UNL     1       3.410   7.799  17.240  0.00  0.00    +0.000 OA
ENDBRANCH  11  12
ENDBRANCH   1  11
BRANCH   1  24
ATOM     24  O   UNL     1       3.041   4.661  16.748  0.00  0.00    +0.000 OA
ATOM     25  H   UNL     1       2.452   4.032  17.204  0.00  0.00    +0.000 HD
ENDBRANCH   1  24
BRANCH   1  26
ATOM     26  C   UNL     1       4.340   3.020  17.908  0.00  0.00    +0.000 C 
BRANCH  26  27
ATOM     27  N   UNL     1       3.107   2.635  18.560  0.00  0.00    +0.000 N 
ATOM     28  C   UNL     1       2.876   2.493  19.897  0.00  0.00    +0.000 A 
ATOM     29  N   UNL     1       1.618   2.175  20.099  0.00  0.00    +0.000 NA
ATOM     30  C   UNL     1       1.117   2.102  18.834  0.00  0.00    +0.000 A 
ATOM     31  N   UNL     1       2.004   2.325  17.863  0.00  0.00    +0.000 NA
ENDBRANCH  26  27
ENDBRANCH   1  26
TORSDOF 6
ENDMDL
MODEL 2
REMARK VINA RESULT:      -7.5      2.786      4.996
REMARK  Name = 
REMARK  7 active torsions:
REMARK  status: ('A' for Active; 'I' for Inactive)
REMARK    1  A    between atoms: C_1  and  C_2
REMARK    2  A    between atoms: C_2  and  N_3
REMARK    3  A    between atoms: C_2  and  C_15
REMARK    4  A    between atoms: C_15  and  O_16
REMARK    5  A    between atoms: C_15  and  C_17
REMARK    6  A    between atoms: C_15  and  C_23
REMARK    7  A    between atoms: C_17  and  N_18
REMARK                            x       y       z     vdW  Elec       q    Type
REMARK                         _______ _______ _______ _____ _____    ______ ____
ROOT
ATOM      1  C   UNL     1       3.966   4.855  18.156  0.00  0.00    +0.000 C 
ENDROOT
BRANCH   1   2
ATOM      2  C   UNL     1       3.016   4.169  19.172  0.00  0.00    +0.000 A 
ATOM      3  C   UNL     1       3.507   3.643  20.386  0.00  0.00    +0.000 A 
ATOM      4  C   UNL     1       2.674   3.039  21.336  0.00  0.00    +0.000 A 
ATOM      5  C   UNL     1       1.323   2.906  21.075  0.00  0.00    +0.000 A 
ATOM      6  F   UNL     1       0.524   2.318  21.974  0.00  0.00    +0.000 F 
ATOM      7  C   UNL     1       0.804   3.333  19.870  0.00  0.00    +0.000 A 
ATOM      8  C   UNL     1       1.648   3.930  18.935  0.00  0.00    +0.000 A 
ATOM      9  F   UNL     1       1.100   4.186  17.743  0.00  0.00    +0.000 F 
ENDBRANCH   1   2
BRANCH   1  11
ATOM     10  C   UNL     1       4.808   7.270  17.485  0.00  0.00    +0.000 C 
ATOM     11  C   UNL     1       3.585   6.364  17.750  0.00  0.00    +0.000 C 
BRANCH  11  12
ATOM     12  N   UNL     1       2.685   7.102  18.669  0.00  0.00    +0.000 N 
ATOM     13  C   UNL     1       2.504   6.707  19.976  0.00  0.00    +0.000 A 
ATOM     14  N   UNL     1       1.813   7.352  20.857  0.00  0.00    +0.000 NA
ATOM     15  C   UNL     1       1.262   8.583  20.478  0.00  0.00    +0.000 A 
ATOM     16  C   UNL     1       0.615   9.362  21.439  0.00  0.00    +0.000 A 
ATOM     17  C   UNL     1       0.116  10.629  21.111  0.00  0.00    +0.000 A 
ATOM     18  C   UNL     1       0.249  11.112  19.809  0.00  0.00    +0.000 A 
ATOM     19 BR   UNL     1      -0.385  12.838  19.376  0.00  0.00    +0.000 Br
ATOM     20  C   UNL     1       0.868  10.341  18.833  0.00  0.00    +0.000 A 
ATOM     21  C   UNL     1       1.374   9.084  19.183  0.00  0.00    +0.000 A 
ATOM     22  C   UNL     1       2.097   8.271  18.195  0.00  0.00    +0.000 A 
ATOM     23  O   UNL     1       2.146   8.660  17.034  0.00  0.00    +0.000 OA
ENDBRANCH  11  12
ENDBRANCH   1  11
BRANCH   1  24
ATOM     24  O   UNL     1       5.258   4.918  18.824  0.00  0.00    +0.000 OA
ATOM     25  H   UNL     1       5.308   5.755  19.320  0.00  0.00    +0.000 HD
ENDBRANCH   1  24
BRANCH   1  26
ATOM     26  C   UNL     1       4.248   4.019  16.850  0.00  0.00    +0.000 C 
BRANCH  26  27
ATOM     27  N   UNL     1       5.391   4.381  16.039  0.00  0.00    +0.000 N 
ATOM     28  C   UNL     1       5.395   4.836  14.753  0.00  0.00    +0.000 A 
ATOM     29  N   UNL     1       6.625   5.099  14.379  0.00  0.00    +0.000 NA
ATOM     30  C   UNL     1       7.356   4.755  15.476  0.00  0.00    +0.000 A 
ATOM     31  N   UNL     1       6.647   4.263  16.493  0.00  0.00    +0.000 NA
ENDBRANCH  26  27
ENDBRANCH   1  26
TORSDOF 6
ENDMDL
MODEL 3
REMARK VINA RESULT:      -7.5      3.006      4.565
REMARK  Name = 
REMARK  7 active torsions:
REMARK  status: ('A' for Active; 'I' for Inactive)
REMARK    1  A    between atoms: C_1  and  C_2
REMARK    2  A    between atoms: C_2  and  N_3
REMARK    3  A    between atoms: C_2  and  C_15
REMARK    4  A    between atoms: C_15  and  O_16
REMARK    5  A    between atoms: C_15  and  C_17
REMARK    6  A    between atoms: C_15  and  C_23
REMARK    7  A    between atoms: C_17  and  N_18
REMARK                            x       y       z     vdW  Elec       q    Type
REMARK                         _______ _______ _______ _____ _____    ______ ____
ROOT
ATOM      1  C   UNL     1       5.242   5.825  16.857  0.00  0.00    +0.000 C 
ENDROOT
BRANCH   1   2
ATOM      2  C   UNL     1       6.394   6.651  17.487  0.00  0.00    +0.000 A 
ATOM      3  C   UNL     1       6.664   7.968  17.057  0.00  0.00    +0.000 A 
ATOM      4  C   UNL     1       7.679   8.750  17.620  0.00  0.00    +0.000 A 
ATOM      5  C   UNL     1       8.487   8.216  18.607  0.00  0.00    +0.000 A 
ATOM      6  F   UNL     1       9.468   8.954  19.139  0.00  0.00    +0.000 F 
ATOM      7  C   UNL     1       8.317   6.906  19.008  0.00  0.00    +0.000 A 
ATOM      8  C   UNL     1       7.302   6.142  18.435  0.00  0.00    +0.000 A 
ATOM      9  F   UNL     1       7.294   4.848  18.773  0.00  0.00    +0.000 F 
ENDBRANCH   1   2
BRANCH   1  11
ATOM     10  C   UNL     1       2.915   4.620  17.203  0.00  0.00    +0.000 C 
ATOM     11  C   UNL     1       3.943   5.616  17.782  0.00  0.00    +0.000 C 
BRANCH  11  12
ATOM     12  N   UNL     1       3.197   6.834  18.179  0.00  0.00    +0.000 N 
ATOM     13  C   UNL     1       2.873   7.814  17.266  0.00  0.00    +0.000 A 
ATOM     14  N   UNL     1       2.146   8.852  17.519  0.00  0.00    +0.000 NA
ATOM     15  C   UNL     1       1.584   8.958  18.798  0.00  0.00    +0.000 A 
ATOM     16  C   UNL     1       0.696  10.001  19.065  0.00  0.00    +0.000 A 
ATOM     17  C   UNL     1       0.061  10.095  20.309  0.00  0.00    +0.000 A 
ATOM     18  C   UNL     1       0.330   9.149  21.300  0.00  0.00    +0.000 A 
ATOM     19 BR   UNL     1      -0.559   9.250  22.964  0.00  0.00    +0.000 Br
ATOM     20  C   UNL     1       1.229   8.118  21.060  0.00  0.00    +0.000 A 
ATOM     21  C   UNL     1       1.842   8.032  19.805  0.00  0.00    +0.000 A 
ATOM     22  C   UNL     1       2.745   6.914  19.494  0.00  0.00    +0.000 A 
ATOM     23  O   UNL     1       3.042   6.129  20.386  0.00  0.00    +0.000 OA
ENDBRANCH  11  12
ENDBRANCH   1  11
BRANCH   1  24
ATOM     24  O   UNL     1       4.809   6.594  15.700  0.00  0.00    +0.000 OA
ATOM     25  H   UNL     1       5.499   7.249  15.490  0.00  0.00    +0.000 HD
ENDBRANCH   1  24
BRANCH   1  26
ATOM     26  C   UNL     1       5.681   4.436  16.253  0.00  0.00    +0.000 C 
BRANCH  26  27
ATOM     27  N   UNL     1       6.279   4.421  14.935  0.00  0.00    +0.000 N 
ATOM     28  C   UNL     1       5.894   3.692  13.849  0.00  0.00    +0.000 A 
ATOM     29  N   UNL     1       6.658   3.987  12.823  0.00  0.00    +0.000 NA
ATOM     30  C   UNL     1       7.531   4.894  13.345  0.00  0.00    +0.000 A 
ATOM     31  N   UNL     1       7.368   5.149  14.644  0.00  0.00    +0.000 NA
ENDBRANCH  26  27
ENDBRANCH   1  26
TORSDOF 6
ENDMDL
MODEL 4
REMARK VINA RESULT:      -7.3      5.469      9.913
REMARK  Name = 
REMARK  7 active torsions:
REMARK  status: ('A' for Active; 'I' for Inactive)
REMARK    1  A    between atoms: C_1  and  C_2
REMARK    2  A    between atoms: C_2  and  N_3
REMARK    3  A    between atoms: C_2  and  C_15
REMARK    4  A    between atoms: C_15  and  O_16
REMARK    5  A    between atoms: C_15  and  C_17
REMARK    6  A    between atoms: C_15  and  C_23
REMARK    7  A    between atoms: C_17  and  N_18
REMARK                            x       y       z     vdW  Elec       q    Type
REMARK                         _______ _______ _______ _____ _____    ______ ____
ROOT
ATOM      1  C   UNL     1      -0.053  12.156  19.870  0.00  0.00    +0.000 C 
ENDROOT
BRANCH   1   2
ATOM      2  C   UNL     1      -1.060  12.134  21.049  0.00  0.00    +0.000 A 
ATOM      3  C   UNL     1      -0.743  11.490  22.265  0.00  0.00    +0.000 A 
ATOM      4  C   UNL     1      -1.617  11.472  23.358  0.00  0.00    +0.000 A 
ATOM      5  C   UNL     1      -2.861  12.066  23.248  0.00  0.00    +0.000 A 
ATOM      6  F   UNL     1      -3.707  12.040  24.285  0.00  0.00    +0.000 F 
ATOM      7  C   UNL     1      -3.253  12.641  22.056  0.00  0.00    +0.000 A 
ATOM      8  C   UNL     1      -2.369  12.648  20.978  0.00  0.00    +0.000 A 
ATOM      9  F   UNL     1      -2.873  13.095  19.823  0.00  0.00    +0.000 F 
ENDBRANCH   1   2
BRANCH   1  11
ATOM     10  C   UNL     1      -1.522  10.342  18.628  0.00  0.00    +0.000 C 
ATOM     11  C   UNL     1      -0.099  10.885  18.886  0.00  0.00    +0.000 C 
BRANCH  11  12
ATOM     12  N   UNL     1       0.753   9.725  19.246  0.00  0.00    +0.000 N 
ATOM     13  C   UNL     1       0.560   9.020  20.413  0.00  0.00    +0.000 A 
ATOM     14  N   UNL     1       1.199   7.947  20.745  0.00  0.00    +0.000 NA
ATOM     15  C   UNL     1       2.107   7.416  19.820  0.00  0.00    +0.000 A 
ATOM     16  C   UNL     1       2.722   6.193  20.096  0.00  0.00    +0.000 A 
ATOM     17  C   UNL     1       3.579   5.600  19.161  0.00  0.00    +0.000 A 
ATOM     18  C   UNL     1       3.838   6.243  17.950  0.00  0.00    +0.000 A 
ATOM     19 BR   UNL     1       4.961   5.424  16.671  0.00  0.00    +0.000 Br
ATOM     20  C   UNL     1       3.256   7.473  17.669  0.00  0.00    +0.000 A 
ATOM     21  C   UNL     1       2.389   8.043  18.608  0.00  0.00    +0.000 A 
ATOM     22  C   UNL     1       1.700   9.307  18.314  0.00  0.00    +0.000 A 
ATOM     23  O   UNL     1       1.987   9.911  17.287  0.00  0.00    +0.000 OA
ENDBRANCH  11  12
ENDBRANCH   1  11
BRANCH   1  24
ATOM     24  O   UNL     1      -0.428  13.314  19.070  0.00  0.00    +0.000 OA
ATOM     25  H   UNL     1      -1.135  13.795  19.538  0.00  0.00    +0.000 HD
ENDBRANCH   1  24
BRANCH   1  26
ATOM     26  C   UNL     1       1.441  12.442  20.284  0.00  0.00    +0.000 C 
BRANCH  26  27
ATOM     27  N   UNL     1       2.171  13.457  19.555  0.00  0.00    +0.000 N 
ATOM     28  C   UNL     1       2.891  13.307  18.406  0.00  0.00    +0.000 A 
ATOM     29  N   UNL     1       3.370  14.470  18.028  0.00  0.00    +0.000 NA
ATOM     30  C   UNL     1       2.936  15.310  19.009  0.00  0.00    +0.000 A 
ATOM     31  N   UNL     1       2.245  14.724  19.987  0.00  0.00    +0.000 NA
ENDBRANCH  26  27
ENDBRANCH   1  26
TORSDOF 6
ENDMDL
MODEL 5
REMARK VINA RESULT:      -7.3      2.662      4.522
REMARK  Name = 
REMARK  7 active torsions:
REMARK  status: ('A' for Active; 'I' for Inactive)
REMARK    1  A    between atoms: C_1  and  C_2
REMARK    2  A    between atoms: C_2  and  N_3
REMARK    3  A    between atoms: C_2  and  C_15
REMARK    4  A    between atoms: C_15  and  O_16
REMARK    5  A    between atoms: C_15  and  C_17
REMARK    6  A    between atoms: C_15  and  C_23
REMARK    7  A    between atoms: C_17  and  N_18
REMARK                            x       y       z     vdW  Elec       q    Type
REMARK                         _______ _______ _______ _____ _____    ______ ____
ROOT
ATOM      1  C   UNL     1       4.929   4.560  16.822  0.00  0.00    +0.000 C 
ENDROOT
BRANCH   1   2
ATOM      2  C   UNL     1       3.996   3.614  17.622  0.00  0.00    +0.000 A 
ATOM      3  C   UNL     1       2.679   3.351  17.187  0.00  0.00    +0.000 A 
ATOM      4  C   UNL     1       1.819   2.484  17.871  0.00  0.00    +0.000 A 
ATOM      5  C   UNL     1       2.243   1.884  19.042  0.00  0.00    +0.000 A 
ATOM      6  F   UNL     1       1.420   1.065  19.708  0.00  0.00    +0.000 F 
ATOM      7  C   UNL     1       3.492   2.168  19.554  0.00  0.00    +0.000 A 
ATOM      8  C   UNL     1       4.334   3.036  18.861  0.00  0.00    +0.000 A 
ATOM      9  F   UNL     1       5.466   3.367  19.491  0.00  0.00    +0.000 F 
ENDBRANCH   1   2
BRANCH   1  11
ATOM     10  C   UNL     1       6.347   6.333  18.177  0.00  0.00    +0.000 C 
ATOM     11  C   UNL     1       5.050   6.063  17.383  0.00  0.00    +0.000 C 
BRANCH  11  12
ATOM     12  N   UNL     1       3.922   6.568  18.202  0.00  0.00    +0.000 N 
ATOM     13  C   UNL     1       3.658   6.067  19.458  0.00  0.00    +0.000 A 
ATOM     14  N   UNL     1       2.755   6.521  20.263  0.00  0.00    +0.000 NA
ATOM     15  C   UNL     1       2.036   7.655  19.862  0.00  0.00    +0.000 A 
ATOM     16  C   UNL     1       1.142   8.243  20.758  0.00  0.00    +0.000 A 
ATOM     17  C   UNL     1       0.460   9.418  20.416  0.00  0.00    +0.000 A 
ATOM     18  C   UNL     1       0.661   9.998  19.163  0.00  0.00    +0.000 A 
ATOM     19 BR   UNL     1      -0.225  11.606  18.717  0.00  0.00    +0.000 Br
ATOM     20  C   UNL     1       1.528   9.412  18.249  0.00  0.00    +0.000 A 
ATOM     21  C   UNL     1       2.212   8.247  18.614  0.00  0.00    +0.000 A 
ATOM     22  C   UNL     1       3.190   7.641  17.700  0.00  0.00    +0.000 A 
ATOM     23  O   UNL     1       3.308   8.103  16.571  0.00  0.00    +0.000 OA
ENDBRANCH  11  12
ENDBRANCH   1  11
BRANCH   1  24
ATOM     24  O   UNL     1       6.255   3.969  16.929  0.00  0.00    +0.000 OA
ATOM     25  H   UNL     1       6.157   2.999  16.960  0.00  0.00    +0.000 HD
ENDBRANCH   1  24
BRANCH   1  26
ATOM     26  C   UNL     1       4.650   4.603  15.271  0.00  0.00    +0.000 C 
BRANCH  26  27
ATOM     27  N   UNL     1       5.782   4.552  14.371  0.00  0.00    +0.000 N 
ATOM     28  C   UNL     1       5.960   3.731  13.295  0.00  0.00    +0.000 A 
ATOM     29  N   UNL     1       7.096   4.018  12.702  0.00  0.00    +0.000 NA
ATOM     30  C   UNL     1       7.602   5.015  13.480  0.00  0.00    +0.000 A 
ATOM     31  N   UNL     1       6.856   5.337  14.539  0.00  0.00    +0.000 NA
ENDBRANCH  26  27
ENDBRANCH   1  26
TORSDOF 6
ENDMDL
MODEL 6
REMARK VINA RESULT:      -7.2      5.627      9.735
REMARK  Name = 
REMARK  7 active torsions:
REMARK  status: ('A' for Active; 'I' for Inactive)
REMARK    1  A    between atoms: C_1  and  C_2
REMARK    2  A    between atoms: C_2  and  N_3
REMARK    3  A    between atoms: C_2  and  C_15
REMARK    4  A    between atoms: C_15  and  O_16
REMARK    5  A    between atoms: C_15  and  C_17
REMARK    6  A    between atoms: C_15  and  C_23
REMARK    7  A    between atoms: C_17  and  N_18
REMARK                            x       y       z     vdW  Elec       q    Type
REMARK                         _______ _______ _______ _____ _____    ______ ____
ROOT
ATOM      1  C   UNL     1      -0.886  11.492  19.628  0.00  0.00    +0.000 C 
ENDROOT
BRANCH   1   2
ATOM      2  C   UNL     1      -1.467  12.219  20.870  0.00  0.00    +0.000 A 
ATOM      3  C   UNL     1      -0.670  12.460  22.010  0.00  0.00    +0.000 A 
ATOM      4  C   UNL     1      -1.155  13.135  23.137  0.00  0.00    +0.000 A 
ATOM      5  C   UNL     1      -2.472  13.552  23.171  0.00  0.00    +0.000 A 
ATOM      6  F   UNL     1      -2.945  14.185  24.251  0.00  0.00    +0.000 F 
ATOM      7  C   UNL     1      -3.316  13.273  22.115  0.00  0.00    +0.000 A 
ATOM      8  C   UNL     1      -2.816  12.598  21.001  0.00  0.00    +0.000 A 
ATOM      9  F   UNL     1      -3.725  12.244  20.087  0.00  0.00    +0.000 F 
ENDBRANCH   1   2
BRANCH   1  11
ATOM     10  C   UNL     1       1.500  12.335  18.864  0.00  0.00    +0.000 C 
ATOM     11  C   UNL     1       0.704  11.258  19.634  0.00  0.00    +0.000 C 
BRANCH  11  12
ATOM     12  N   UNL     1       1.192   9.938  19.167  0.00  0.00    +0.000 N 
ATOM     13  C   UNL     1       1.836   9.790  17.959  0.00  0.00    +0.000 A 
ATOM     14  N   UNL     1       2.369   8.693  17.532  0.00  0.00    +0.000 NA
ATOM     15  C   UNL     1       2.355   7.585  18.389  0.00  0.00    +0.000 A 
ATOM     16  C   UNL     1       3.029   6.423  18.008  0.00  0.00    +0.000 A 
ATOM     17  C   UNL     1       3.095   5.323  18.872  0.00  0.00    +0.000 A 
ATOM     18  C   UNL     1       2.468   5.378  20.117  0.00  0.00    +0.000 A 
ATOM     19 BR   UNL     1       2.594   3.911  21.301  0.00  0.00    +0.000 Br
ATOM     20  C   UNL     1       1.772   6.517  20.503  0.00  0.00    +0.000 A 
ATOM     21  C   UNL     1       1.730   7.612  19.633  0.00  0.00    +0.000 A 
ATOM     22  C   UNL     1       1.063   8.858  20.037  0.00  0.00    +0.000 A 
ATOM     23  O   UNL     1       0.446   8.881  21.096  0.00  0.00    +0.000 OA
ENDBRANCH  11  12
ENDBRANCH   1  11
BRANCH   1  24
ATOM     24  O   UNL     1      -1.501  10.172  19.637  0.00  0.00    +0.000 OA
ATOM     25  H   UNL     1      -2.411  10.254  19.296  0.00  0.00    +0.000 HD
ENDBRANCH   1  24
BRANCH   1  26
ATOM     26  C   UNL     1      -1.318  12.108  18.243  0.00  0.00    +0.000 C 
BRANCH  26  27
ATOM     27  N   UNL     1      -2.139  11.304  17.363  0.00  0.00    +0.000 N 
ATOM     28  C   UNL     1      -3.423  11.542  16.966  0.00  0.00    +0.000 A 
ATOM     29  N   UNL     1      -3.808  10.607  16.129  0.00  0.00    +0.000 NA
ATOM     30  C   UNL     1      -2.721   9.788  16.066  0.00  0.00    +0.000 A 
ATOM     31  N   UNL     1      -1.699  10.149  16.843  0.00  0.00    +0.000 NA
ENDBRANCH  26  27
ENDBRANCH   1  26
TORSDOF 6
ENDMDL
MODEL 7
REMARK VINA RESULT:      -7.2      3.656      7.412
REMARK  Name = 
REMARK  7 active torsions:
REMARK  status: ('A' for Active; 'I' for Inactive)
REMARK    1  A    between atoms: C_1  and  C_2
REMARK    2  A    between atoms: C_2  and  N_3
REMARK    3  A    between atoms: C_2  and  C_15
REMARK    4  A    between atoms: C_15  and  O_16
REMARK    5  A    between atoms: C_15  and  C_17
REMARK    6  A    between atoms: C_15  and  C_23
REMARK    7  A    between atoms: C_17  and  N_18
REMARK                            x       y       z     vdW  Elec       q    Type
REMARK                         _______ _______ _______ _____ _____    ______ ____
ROOT
ATOM      1  C   UNL     1       3.869   5.249  18.657  0.00  0.00    +0.000 C 
ENDROOT
BRANCH   1   2
ATOM      2  C   UNL     1       2.993   4.380  19.598  0.00  0.00    +0.000 A 
ATOM      3  C   UNL     1       2.920   4.652  20.981  0.00  0.00    +0.000 A 
ATOM      4  C   UNL     1       2.122   3.903  21.853  0.00  0.00    +0.000 A 
ATOM      5  C   UNL     1       1.402   2.827  21.369  0.00  0.00    +0.000 A 
ATOM      6  F   UNL     1       0.647   2.099  22.201  0.00  0.00    +0.000 F 
ATOM      7  C   UNL     1       1.499   2.470  20.040  0.00  0.00    +0.000 A 
ATOM      8  C   UNL     1       2.300   3.226  19.185  0.00  0.00    +0.000 A 
ATOM      9  F   UNL     1       2.452   2.734  17.951  0.00  0.00    +0.000 F 
ENDBRANCH   1   2
BRANCH   1  11
ATOM     10  C   UNL     1       6.433   5.152  19.290  0.00  0.00    +0.000 C 
ATOM     11  C   UNL     1       5.330   4.667  18.324  0.00  0.00    +0.000 C 
BRANCH  11  12
ATOM     12  N   UNL     1       5.837   4.869  16.946  0.00  0.00    +0.000 N 
ATOM     13  C   UNL     1       6.841   5.770  16.668  0.00  0.00    +0.000 A 
ATOM     14  N   UNL     1       7.395   5.931  15.512  0.00  0.00    +0.000 NA
ATOM     15  C   UNL     1       6.998   5.076  14.475  0.00  0.00    +0.000 A 
ATOM     16  C   UNL     1       7.663   5.141  13.249  0.00  0.00    +0.000 A 
ATOM     17  C   UNL     1       7.339   4.254  12.216  0.00  0.00    +0.000 A 
ATOM     18  C   UNL     1       6.332   3.307  12.403  0.00  0.00    +0.000 A 
ATOM     19 BR   UNL     1       5.924   2.080  11.025  0.00  0.00    +0.000 Br
ATOM     20  C   UNL     1       5.642   3.244  13.607  0.00  0.00    +0.000 A 
ATOM     21  C   UNL     1       5.990   4.129  14.634  0.00  0.00    +0.000 A 
ATOM     22  C   UNL     1       5.330   4.044  15.945  0.00  0.00    +0.000 A 
ATOM     23  O   UNL     1       4.393   3.267  16.085  0.00  0.00    +0.000 OA
ENDBRANCH  11  12
ENDBRANCH   1  11
BRANCH   1  24
ATOM     24  O   UNL     1       3.143   5.297  17.396  0.00  0.00    +0.000 OA
ATOM     25  H   UNL     1       2.215   5.048  17.565  0.00  0.00    +0.000 HD
ENDBRANCH   1  24
BRANCH   1  26
ATOM     26  C   UNL     1       3.995   6.761  19.085  0.00  0.00    +0.000 C 
BRANCH  26  27
ATOM     27  N   UNL     1       2.886   7.647  18.802  0.00  0.00    +0.000 N 
ATOM     28  C   UNL     1       1.895   8.045  19.651  0.00  0.00    +0.000 A 
ATOM     29  N   UNL     1       1.097   8.889  19.037  0.00  0.00    +0.000 NA
ATOM     30  C   UNL     1       1.630   8.954  17.785  0.00  0.00    +0.000 A 
ATOM     31  N   UNL     1       2.692   8.172  17.584  0.00  0.00    +0.000 NA
ENDBRANCH  26  27
ENDBRANCH   1  26
TORSDOF 6
ENDMDL
MODEL 8
REMARK VINA RESULT:      -7.2      5.402      9.545
REMARK  Name = 
REMARK  7 active torsions:
REMARK  status: ('A' for Active; 'I' for Inactive)
REMARK    1  A    between atoms: C_1  and  C_2
REMARK    2  A    between atoms: C_2  and  N_3
REMARK    3  A    between atoms: C_2  and  C_15
REMARK    4  A    between atoms: C_15  and  O_16
REMARK    5  A    between atoms: C_15  and  C_17
REMARK    6  A    between atoms: C_15  and  C_23
REMARK    7  A    between atoms: C_17  and  N_18
REMARK                            x       y       z     vdW  Elec       q    Type
REMARK                         _______ _______ _______ _____ _____    ______ ____
ROOT
ATOM      1  C   UNL     1      -0.765  11.172  19.692  0.00  0.00    +0.000 C 
ENDROOT
BRANCH   1   2
ATOM      2  C   UNL     1      -1.440  11.913  20.876  0.00  0.00    +0.000 A 
ATOM      3  C   UNL     1      -2.151  13.115  20.673  0.00  0.00    +0.000 A 
ATOM      4  C   UNL     1      -2.792  13.796  21.714  0.00  0.00    +0.000 A 
ATOM      5  C   UNL     1      -2.701  13.311  23.006  0.00  0.00    +0.000 A 
ATOM      6  F   UNL     1      -3.300  13.966  24.008  0.00  0.00    +0.000 F 
ATOM      7  C   UNL     1      -1.952  12.184  23.273  0.00  0.00    +0.000 A 
ATOM      8  C   UNL     1      -1.319  11.519  22.223  0.00  0.00    +0.000 A 
ATOM      9  F   UNL     1      -0.502  10.523  22.581  0.00  0.00    +0.000 F 
ENDBRANCH   1   2
BRANCH   1  11
ATOM     10  C   UNL     1       1.679  12.113  19.334  0.00  0.00    +0.000 C 
ATOM     11  C   UNL     1       0.818  10.929  19.828  0.00  0.00    +0.000 C 
BRANCH  11  12
ATOM     12  N   UNL     1       1.367   9.700  19.206  0.00  0.00    +0.000 N 
ATOM     13  C   UNL     1       1.976   9.725  17.971  0.00  0.00    +0.000 A 
ATOM     14  N   UNL     1       2.558   8.716  17.411  0.00  0.00    +0.000 NA
ATOM     15  C   UNL     1       2.640   7.523  18.141  0.00  0.00    +0.000 A 
ATOM     16  C   UNL     1       3.368   6.454  17.616  0.00  0.00    +0.000 A 
ATOM     17  C   UNL     1       3.530   5.273  18.351  0.00  0.00    +0.000 A 
ATOM     18  C   UNL     1       2.944   5.154  19.612  0.00  0.00    +0.000 A 
ATOM     19 BR   UNL     1       3.198   3.579  20.623  0.00  0.00    +0.000 Br
ATOM     20  C   UNL     1       2.195   6.199  20.140  0.00  0.00    +0.000 A 
ATOM     21  C   UNL     1       2.058   7.377  19.398  0.00  0.00    +0.000 A 
ATOM     22  C   UNL     1       1.332   8.527  19.955  0.00  0.00    +0.000 A 
ATOM     23  O   UNL     1       0.752   8.397  21.026  0.00  0.00    +0.000 OA
ENDBRANCH  11  12
ENDBRANCH   1  11
BRANCH   1  24
ATOM     24  O   UNL     1      -1.387   9.855  19.662  0.00  0.00    +0.000 OA
ATOM     25  H   UNL     1      -0.958   9.297  20.337  0.00  0.00    +0.000 HD
ENDBRANCH   1  24
BRANCH   1  26
ATOM     26  C   UNL     1      -1.080  11.778  18.271  0.00  0.00    +0.000 C 
BRANCH  26  27
ATOM     27  N   UNL     1      -2.140  11.177  17.490  0.00  0.00    +0.000 N 
ATOM     28  C   UNL     1      -3.458  11.529  17.455  0.00  0.00    +0.000 A 
ATOM     29  N   UNL     1      -4.095  10.775  16.590  0.00  0.00    +0.000 NA
ATOM     30  C   UNL     1      -3.118   9.941  16.135  0.00  0.00    +0.000 A 
ATOM     31  N   UNL     1      -1.921  10.118  16.696  0.00  0.00    +0.000 NA
ENDBRANCH  26  27
ENDBRANCH   1  26
TORSDOF 6
ENDMDL
MODEL 9
REMARK VINA RESULT:      -7.1      5.447      9.573
REMARK  Name = 
REMARK  7 active torsions:
REMARK  status: ('A' for Active; 'I' for Inactive)
REMARK    1  A    between atoms: C_1  and  C_2
REMARK    2  A    between atoms: C_2  and  N_3
REMARK    3  A    between atoms: C_2  and  C_15
REMARK    4  A    between atoms: C_15  and  O_16
REMARK    5  A    between atoms: C_15  and  C_17
REMARK    6  A    between atoms: C_15  and  C_23
REMARK    7  A    between atoms: C_17  and  N_18
REMARK                            x       y       z     vdW  Elec       q    Type
REMARK                         _______ _______ _______ _____ _____    ______ ____
ROOT
ATOM      1  C   UNL     1      -0.467  11.568  19.865  0.00  0.00    +0.000 C 
ENDROOT
BRANCH   1   2
ATOM      2  C   UNL     1      -0.835  12.382  21.134  0.00  0.00    +0.000 A 
ATOM      3  C   UNL     1      -1.601  11.806  22.171  0.00  0.00    +0.000 A 
ATOM      4  C   UNL     1      -1.929  12.503  23.339  0.00  0.00    +0.000 A 
ATOM      5  C   UNL     1      -1.534  13.820  23.485  0.00  0.00    +0.000 A 
ATOM      6  F   UNL     1      -1.858  14.496  24.594  0.00  0.00    +0.000 F 
ATOM      7  C   UNL     1      -0.851  14.455  22.468  0.00  0.00    +0.000 A 
ATOM      8  C   UNL     1      -0.534  13.746  21.310  0.00  0.00    +0.000 A 
ATOM      9  F   UNL     1       0.001  14.468  20.320  0.00  0.00    +0.000 F 
ENDBRANCH   1   2
BRANCH   1  11
ATOM     10  C   UNL     1       1.868  12.206  18.802  0.00  0.00    +0.000 C 
ATOM     11  C   UNL     1       1.091  11.210  19.691  0.00  0.00    +0.000 C 
BRANCH  11  12
ATOM     12  N   UNL     1       1.418   9.847  19.207  0.00  0.00    +0.000 N 
ATOM     13  C   UNL     1       1.926   9.629  17.946  0.00  0.00    +0.000 A 
ATOM     14  N   UNL     1       2.320   8.484  17.493  0.00  0.00    +0.000 NA
ATOM     15  C   UNL     1       2.297   7.393  18.370  0.00  0.00    +0.000 A 
ATOM     16  C   UNL     1       2.830   6.173  17.952  0.00  0.00    +0.000 A 
ATOM     17  C   UNL     1       2.889   5.082  18.828  0.00  0.00    +0.000 A 
ATOM     18  C   UNL     1       2.394   5.207  20.127  0.00  0.00    +0.000 A 
ATOM     19 BR   UNL     1       2.512   3.750  21.323  0.00  0.00    +0.000 Br
ATOM     20  C   UNL     1       1.837   6.406  20.553  0.00  0.00    +0.000 A 
ATOM     21  C   UNL     1       1.801   7.490  19.669  0.00  0.00    +0.000 A 
ATOM     22  C   UNL     1       1.284   8.793  20.109  0.00  0.00    +0.000 A 
ATOM     23  O   UNL     1       0.779   8.883  21.221  0.00  0.00    +0.000 OA
ENDBRANCH  11  12
ENDBRANCH   1  11
BRANCH   1  24
ATOM     24  O   UNL     1      -1.172  10.302  20.006  0.00  0.00    +0.000 OA
ATOM     25  H   UNL     1      -0.867   9.870  20.825  0.00  0.00    +0.000 HD
ENDBRANCH   1  24
BRANCH   1  26
ATOM     26  C   UNL     1      -1.019  12.168  18.516  0.00  0.00    +0.000 C 
BRANCH  26  27
ATOM     27  N   UNL     1      -1.958  11.377  17.749  0.00  0.00    +0.000 N 
ATOM     28  C   UNL     1      -3.288  11.610  17.558  0.00  0.00    +0.000 A 
ATOM     29  N   UNL     1      -3.790  10.692  16.764  0.00  0.00    +0.000 NA
ATOM     30  C   UNL     1      -2.718   9.888  16.515  0.00  0.00    +0.000 A 
ATOM     31  N   UNL     1      -1.593  10.240  17.138  0.00  0.00    +0.000 NA
ENDBRANCH  26  27
ENDBRANCH   1  26
TORSDOF 6
ENDMDL
