MODEL 1
REMARK VINA RESULT:      -8.9      0.000      0.000
REMARK  Name = 
REMARK  9 active torsions:
REMARK  status: ('A' for Active; 'I' for Inactive)
REMARK    1  A    between atoms: C_1  and  C_2
REMARK    2  A    between atoms: C_2  and  C_3
REMARK    3  A    between atoms: C_2  and  C_4
REMARK    4  A    between atoms: C_6  and  C_7
REMARK    5  A    between atoms: C_7  and  N_8
REMARK    6  A    between atoms: C_12  and  N_13
REMARK    7  A    between atoms: C_14  and  C_16
REMARK    8  A    between atoms: C_16  and  O_18
REMARK    9  A    between atoms: C_25  and  O_26
REMARK                            x       y       z     vdW  Elec       q    Type
REMARK                         _______ _______ _______ _____ _____    ______ ____
ROOT
ATOM      1  N   UNL     1       2.894   4.107  19.099  0.00  0.00    +0.000 N 
ATOM      2  C   UNL     1       2.617   3.770  20.401  0.00  0.00    +0.000 A 
ATOM      3  C   UNL     1       2.164   4.897  21.043  0.00  0.00    +0.000 A 
ATOM      4  C   UNL     1       2.168   5.967  20.105  0.00  0.00    +0.000 A 
ATOM      5  C   UNL     1       1.913   7.356  20.198  0.00  0.00    +0.000 A 
ATOM      6  C   UNL     1       2.063   8.161  19.057  0.00  0.00    +0.000 A 
ATOM      7  C   UNL     1       2.419   7.596  17.836  0.00  0.00    +0.000 A 
ATOM      8  C   UNL     1       2.700   6.233  17.726  0.00  0.00    +0.000 A 
ATOM      9  C   UNL     1       2.602   5.443  18.884  0.00  0.00    +0.000 A 
ENDROOT
BRANCH   5  10
ATOM     10  N   UNL     1       1.509   7.901  21.426  0.00  0.00    +0.000 N 
ATOM     11  C   UNL     1       0.452   8.774  21.558  0.00  0.00    +0.000 C 
ATOM     12  O   UNL     1      -0.298   9.220  20.698  0.00  0.00    +0.000 OA
ATOM     13  H   UNL     1       2.183   7.909  22.186  0.00  0.00    +0.000 HD
BRANCH  11  14
ATOM     14  C   UNL     1       0.303   9.338  22.981  0.00  0.00    +0.000 C 
ATOM     15  O   UNL     1       1.256   9.577  23.698  0.00  0.00    +0.000 OA
BRANCH  14  16
ATOM     16  O   UNL     1      -0.993   9.549  23.279  0.00  0.00    +0.000 OA
ATOM     17  H   UNL     1      -1.042  10.054  24.125  0.00  0.00    +0.000 HD
ENDBRANCH  14  16
ENDBRANCH  11  14
ENDBRANCH   5  10
BRANCH   1  18
ATOM     18  C   UNL     1       3.535   3.213  18.137  0.00  0.00    +0.000 C 
BRANCH  18  21
ATOM     19  C   UNL     1       6.690   5.223  17.357  0.00  0.00    +0.000 A 
ATOM     20  C   UNL     1       5.654   4.548  18.031  0.00  0.00    +0.000 A 
ATOM     21  C   UNL     1       4.641   3.858  17.337  0.00  0.00    +0.000 A 
ATOM     22  C   UNL     1       4.663   3.877  15.938  0.00  0.00    +0.000 A 
ATOM     23  C   UNL     1       5.697   4.515  15.251  0.00  0.00    +0.000 A 
ATOM     24  C   UNL     1       6.703   5.172  15.959  0.00  0.00    +0.000 A 
BRANCH  19  26
ATOM     25  C   UNL     1       7.577   7.521  17.862  0.00  0.00    +0.000 C 
ATOM     26  C   UNL     1       7.728   6.020  18.133  0.00  0.00    +0.000 C 
ATOM     27  C   UNL     1       7.678   5.729  19.634  0.00  0.00    +0.000 C 
ENDBRANCH  19  26
BRANCH  24  28
ATOM     28  O   UNL     1       7.714   5.787  15.276  0.00  0.00    +0.000 OA
ATOM     29  H   UNL     1       8.563   5.517  15.663  0.00  0.00    +0.000 HD
ENDBRANCH  24  28
ENDBRANCH  18  21
ENDBRANCH   1  18
TORSDOF 7
ENDMDL
MODEL 2
REMARK VINA RESULT:      -8.7      2.666      3.860
REMARK  Name = 
REMARK  9 active torsions:
REMARK  status: ('A' for Active; 'I' for Inactive)
REMARK    1  A    between atoms: C_1  and  C_2
REMARK    2  A    between atoms: C_2  and  C_3
REMARK    3  A    between atoms: C_2  and  C_4
REMARK    4  A    between atoms: C_6  and  C_7
REMARK    5  A    between atoms: C_7  and  N_8
REMARK    6  A    between atoms: C_12  and  N_13
REMARK    7  A    between atoms: C_14  and  C_16
REMARK    8  A    between atoms: C_16  and  O_18
REMARK    9  A    between atoms: C_25  and  O_26
REMARK                            x       y       z     vdW  Elec       q    Type
REMARK                         _______ _______ _______ _____ _____    ______ ____
ROOT
ATOM      1  N   UNL     1       2.235   7.290  19.370  0.00  0.00    +0.000 N 
ATOM      2  C   UNL     1       2.350   7.826  18.111  0.00  0.00    +0.000 A 
ATOM      3  C   UNL     1       1.699   9.036  18.105  0.00  0.00    +0.000 A 
ATOM      4  C   UNL     1       1.158   9.250  19.403  0.00  0.00    +0.000 A 
ATOM      5  C   UNL     1       0.319  10.240  19.968  0.00  0.00    +0.000 A 
ATOM      6  C   UNL     1      -0.082  10.119  21.307  0.00  0.00    +0.000 A 
ATOM      7  C   UNL     1       0.371   9.059  22.088  0.00  0.00    +0.000 A 
ATOM      8  C   UNL     1       1.179   8.058  21.546  0.00  0.00    +0.000 A 
ATOM      9  C   UNL     1       1.531   8.155  20.189  0.00  0.00    +0.000 A 
ENDROOT
BRANCH   5  10
ATOM     10  N   UNL     1      -0.090  11.326  19.180  0.00  0.00    +0.000 N 
ATOM     11  C   UNL     1       0.470  12.581  19.268  0.00  0.00    +0.000 C 
ATOM     12  O   UNL     1       1.373  12.978  19.994  0.00  0.00    +0.000 OA
ATOM     13  H   UNL     1      -1.013  11.286  18.759  0.00  0.00    +0.000 HD
BRANCH  11  14
ATOM     14  C   UNL     1      -0.248  13.630  18.403  0.00  0.00    +0.000 C 
ATOM     15  O   UNL     1      -0.124  14.827  18.580  0.00  0.00    +0.000 OA
BRANCH  14  16
ATOM     16  O   UNL     1      -0.976  13.038  17.437  0.00  0.00    +0.000 OA
ATOM     17  H   UNL     1      -1.762  13.603  17.245  0.00  0.00    +0.000 HD
ENDBRANCH  14  16
ENDBRANCH  11  14
ENDBRANCH   5  10
BRANCH   1  18
ATOM     18  C   UNL     1       2.672   5.944  19.734  0.00  0.00    +0.000 C 
BRANCH  18  21
ATOM     19  C   UNL     1       5.982   5.274  17.947  0.00  0.00    +0.000 A 
ATOM     20  C   UNL     1       5.007   5.750  18.844  0.00  0.00    +0.000 A 
ATOM     21  C   UNL     1       3.664   5.337  18.771  0.00  0.00    +0.000 A 
ATOM     22  C   UNL     1       3.297   4.447  17.754  0.00  0.00    +0.000 A 
ATOM     23  C   UNL     1       4.253   3.940  16.874  0.00  0.00    +0.000 A 
ATOM     24  C   UNL     1       5.583   4.346  16.980  0.00  0.00    +0.000 A 
BRANCH  19  26
ATOM     25  C   UNL     1       7.489   7.231  17.476  0.00  0.00    +0.000 C 
ATOM     26  C   UNL     1       7.410   5.795  18.006  0.00  0.00    +0.000 C 
ATOM     27  C   UNL     1       8.004   5.700  19.413  0.00  0.00    +0.000 C 
ENDBRANCH  19  26
BRANCH  24  28
ATOM     28  O   UNL     1       6.511   3.837  16.116  0.00  0.00    +0.000 OA
ATOM     29  H   UNL     1       6.652   2.899  16.325  0.00  0.00    +0.000 HD
ENDBRANCH  24  28
ENDBRANCH  18  21
ENDBRANCH   1  18
TORSDOF 7
ENDMDL
MODEL 3
REMARK VINA RESULT:      -8.5      2.150      8.040
REMARK  Name = 
REMARK  9 active torsions:
REMARK  status: ('A' for Active; 'I' for Inactive)
REMARK    1  A    between atoms: C_1  and  C_2
REMARK    2  A    between atoms: C_2  and  C_3
REMARK    3  A    between atoms: C_2  and  C_4
REMARK    4  A    between atoms: C_6  and  C_7
REMARK    5  A    between atoms: C_7  and  N_8
REMARK    6  A    between atoms: C_12  and  N_13
REMARK    7  A    between atoms: C_14  and  C_16
REMARK    8  A    between atoms: C_16  and  O_18
REMARK    9  A    between atoms: C_25  and  O_26
REMARK                            x       y       z     vdW  Elec       q    Type
REMARK                         _______ _______ _______ _____ _____    ______ ____
ROOT
ATOM      1  N   UNL     1       3.664   4.710  18.548  0.00  0.00    +0.000 N 
ATOM      2  C   UNL     1       2.820   4.077  17.668  0.00  0.00    +0.000 A 
ATOM      3  C   UNL     1       3.563   3.668  16.588  0.00  0.00    +0.000 A 
ATOM      4  C   UNL     1       4.911   4.068  16.806  0.00  0.00    +0.000 A 
ATOM      5  C   UNL     1       6.089   4.023  16.023  0.00  0.00    +0.000 A 
ATOM      6  C   UNL     1       7.276   4.571  16.534  0.00  0.00    +0.000 A 
ATOM      7  C   UNL     1       7.309   5.116  17.814  0.00  0.00    +0.000 A 
ATOM      8  C   UNL     1       6.154   5.194  18.595  0.00  0.00    +0.000 A 
ATOM      9  C   UNL     1       4.957   4.695  18.055  0.00  0.00    +0.000 A 
ENDROOT
BRANCH   5  10
ATOM     10  N   UNL     1       6.049   3.427  14.753  0.00  0.00    +0.000 N 
ATOM     11  C   UNL     1       6.511   4.042  13.611  0.00  0.00    +0.000 C 
ATOM     12  O   UNL     1       7.015   5.150  13.476  0.00  0.00    +0.000 OA
ATOM     13  H   UNL     1       5.393   2.665  14.608  0.00  0.00    +0.000 HD
BRANCH  11  14
ATOM     14  C   UNL     1       6.224   3.240  12.330  0.00  0.00    +0.000 C 
ATOM     15  O   UNL     1       5.111   3.144  11.849  0.00  0.00    +0.000 OA
BRANCH  14  16
ATOM     16  O   UNL     1       7.357   2.716  11.829  0.00  0.00    +0.000 OA
ATOM     17  H   UNL     1       7.885   2.338  12.572  0.00  0.00    +0.000 HD
ENDBRANCH  14  16
ENDBRANCH  11  14
ENDBRANCH   5  10
BRANCH   1  18
ATOM     18  C   UNL     1       3.222   5.412  19.750  0.00  0.00    +0.000 C 
BRANCH  18  21
ATOM     19  C   UNL     1       1.297   8.659  20.348  0.00  0.00    +0.000 A 
ATOM     20  C   UNL     1       1.934   7.416  20.530  0.00  0.00    +0.000 A 
ATOM     21  C   UNL     1       2.620   6.771  19.483  0.00  0.00    +0.000 A 
ATOM     22  C   UNL     1       2.636   7.382  18.224  0.00  0.00    +0.000 A 
ATOM     23  C   UNL     1       2.037   8.627  18.030  0.00  0.00    +0.000 A 
ATOM     24  C   UNL     1       1.383   9.259  19.087  0.00  0.00    +0.000 A 
BRANCH  19  26
ATOM     25  C   UNL     1      -0.768   8.491  21.771  0.00  0.00    +0.000 C 
ATOM     26  C   UNL     1       0.503   9.296  21.478  0.00  0.00    +0.000 C 
ATOM     27  C   UNL     1       1.340   9.472  22.747  0.00  0.00    +0.000 C 
ENDBRANCH  19  26
BRANCH  24  28
ATOM     28  O   UNL     1       0.806  10.481  18.886  0.00  0.00    +0.000 OA
ATOM     29  H   UNL     1      -0.099  10.462  19.241  0.00  0.00    +0.000 HD
ENDBRANCH  24  28
ENDBRANCH  18  21
ENDBRANCH   1  18
TORSDOF 7
ENDMDL
MODEL 4
REMARK VINA RESULT:      -8.5      3.130      8.229
REMARK  Name = 
REMARK  9 active torsions:
REMARK  status: ('A' for Active; 'I' for Inactive)
REMARK    1  A    between atoms: C_1  and  C_2
REMARK    2  A    between atoms: C_2  and  C_3
REMARK    3  A    between atoms: C_2  and  C_4
REMARK    4  A    between atoms: C_6  and  C_7
REMARK    5  A    between atoms: C_7  and  N_8
REMARK    6  A    between atoms: C_12  and  N_13
REMARK    7  A    between atoms: C_14  and  C_16
REMARK    8  A    between atoms: C_16  and  O_18
REMARK    9  A    between atoms: C_25  and  O_26
REMARK                            x       y       z     vdW  Elec       q    Type
REMARK                         _______ _______ _______ _____ _____    ______ ____
ROOT
ATOM      1  N   UNL     1       1.776   8.079  19.521  0.00  0.00    +0.000 N 
ATOM      2  C   UNL     1       2.420   8.562  18.408  0.00  0.00    +0.000 A 
ATOM      3  C   UNL     1       3.217   7.558  17.911  0.00  0.00    +0.000 A 
ATOM      4  C   UNL     1       3.063   6.420  18.751  0.00  0.00    +0.000 A 
ATOM      5  C   UNL     1       3.686   5.151  18.810  0.00  0.00    +0.000 A 
ATOM      6  C   UNL     1       3.327   4.255  19.829  0.00  0.00    +0.000 A 
ATOM      7  C   UNL     1       2.339   4.591  20.750  0.00  0.00    +0.000 A 
ATOM      8  C   UNL     1       1.729   5.847  20.727  0.00  0.00    +0.000 A 
ATOM      9  C   UNL     1       2.133   6.760  19.738  0.00  0.00    +0.000 A 
ENDROOT
BRANCH   5  10
ATOM     10  N   UNL     1       4.645   4.810  17.845  0.00  0.00    +0.000 N 
ATOM     11  C   UNL     1       5.997   4.763  18.102  0.00  0.00    +0.000 C 
ATOM     12  O   UNL     1       6.596   4.989  19.146  0.00  0.00    +0.000 OA
ATOM     13  H   UNL     1       4.387   4.900  16.866  0.00  0.00    +0.000 HD
BRANCH  11  14
ATOM     14  C   UNL     1       6.847   4.505  16.847  0.00  0.00    +0.000 C 
ATOM     15  O   UNL     1       8.035   4.251  16.897  0.00  0.00    +0.000 OA
BRANCH  14  16
ATOM     16  O   UNL     1       6.091   4.566  15.735  0.00  0.00    +0.000 OA
ATOM     17  H   UNL     1       5.803   3.652  15.499  0.00  0.00    +0.000 HD
ENDBRANCH  14  16
ENDBRANCH  11  14
ENDBRANCH   5  10
BRANCH   1  18
ATOM     18  C   UNL     1       0.954   8.893  20.413  0.00  0.00    +0.000 C 
BRANCH  18  21
ATOM     19  C   UNL     1      -1.126  11.328  18.328  0.00  0.00    +0.000 A 
ATOM     20  C   UNL     1      -0.657  10.171  18.979  0.00  0.00    +0.000 A 
ATOM     21  C   UNL     1       0.484  10.193  19.803  0.00  0.00    +0.000 A 
ATOM     22  C   UNL     1       1.176  11.401  19.949  0.00  0.00    +0.000 A 
ATOM     23  C   UNL     1       0.711  12.565  19.337  0.00  0.00    +0.000 A 
ATOM     24  C   UNL     1      -0.435  12.525  18.543  0.00  0.00    +0.000 A 
BRANCH  19  26
ATOM     25  C   UNL     1      -2.309   9.947  16.592  0.00  0.00    +0.000 C 
ATOM     26  C   UNL     1      -2.319  11.258  17.386  0.00  0.00    +0.000 C 
ATOM     27  C   UNL     1      -3.649  11.441  18.120  0.00  0.00    +0.000 C 
ENDBRANCH  19  26
BRANCH  24  28
ATOM     28  O   UNL     1      -0.885  13.674  17.955  0.00  0.00    +0.000 OA
ATOM     29  H   UNL     1      -1.333  14.215  18.627  0.00  0.00    +0.000 HD
ENDBRANCH  24  28
ENDBRANCH  18  21
ENDBRANCH   1  18
TORSDOF 7
ENDMDL
MODEL 5
REMARK VINA RESULT:      -8.3      2.355      3.481
REMARK  Name = 
REMARK  9 active torsions:
REMARK  status: ('A' for Active; 'I' for Inactive)
REMARK    1  A    between atoms: C_1  and  C_2
REMARK    2  A    between atoms: C_2  and  C_3
REMARK    3  A    between atoms: C_2  and  C_4
REMARK    4  A    between atoms: C_6  and  C_7
REMARK    5  A    between atoms: C_7  and  N_8
REMARK    6  A    between atoms: C_12  and  N_13
REMARK    7  A    between atoms: C_14  and  C_16
REMARK    8  A    between atoms: C_16  and  O_18
REMARK    9  A    between atoms: C_25  and  O_26
REMARK                            x       y       z     vdW  Elec       q    Type
REMARK                         _______ _______ _______ _____ _____    ______ ____
ROOT
ATOM      1  N   UNL     1       2.379   6.942  18.879  0.00  0.00    +0.000 N 
ATOM      2  C   UNL     1       2.311   7.596  17.673  0.00  0.00    +0.000 A 
ATOM      3  C   UNL     1       1.758   8.835  17.893  0.00  0.00    +0.000 A 
ATOM      4  C   UNL     1       1.470   8.946  19.281  0.00  0.00    +0.000 A 
ATOM      5  C   UNL     1       0.816   9.918  20.075  0.00  0.00    +0.000 A 
ATOM      6  C   UNL     1       0.647   9.684  21.449  0.00  0.00    +0.000 A 
ATOM      7  C   UNL     1       1.151   8.528  22.037  0.00  0.00    +0.000 A 
ATOM      8  C   UNL     1       1.777   7.543  21.269  0.00  0.00    +0.000 A 
ATOM      9  C   UNL     1       1.893   7.758  19.886  0.00  0.00    +0.000 A 
ENDROOT
BRANCH   5  10
ATOM     10  N   UNL     1       0.356  11.100  19.475  0.00  0.00    +0.000 N 
ATOM     11  C   UNL     1      -0.843  11.194  18.806  0.00  0.00    +0.000 C 
ATOM     12  O   UNL     1      -1.693  10.334  18.613  0.00  0.00    +0.000 OA
ATOM     13  H   UNL     1       1.041  11.817  19.252  0.00  0.00    +0.000 HD
BRANCH  11  14
ATOM     14  C   UNL     1      -1.051  12.553  18.117  0.00  0.00    +0.000 C 
ATOM     15  O   UNL     1      -0.721  13.607  18.626  0.00  0.00    +0.000 OA
BRANCH  14  16
ATOM     16  O   UNL     1      -1.599  12.394  16.898  0.00  0.00    +0.000 OA
ATOM     17  H   UNL     1      -2.523  12.741  16.920  0.00  0.00    +0.000 HD
ENDBRANCH  14  16
ENDBRANCH  11  14
ENDBRANCH   5  10
BRANCH   1  18
ATOM     18  C   UNL     1       2.773   5.544  19.035  0.00  0.00    +0.000 C 
BRANCH  18  21
ATOM     19  C   UNL     1       6.382   5.426  17.785  0.00  0.00    +0.000 A 
ATOM     20  C   UNL     1       5.225   5.702  18.539  0.00  0.00    +0.000 A 
ATOM     21  C   UNL     1       3.974   5.146  18.210  0.00  0.00    +0.000 A 
ATOM     22  C   UNL     1       3.889   4.320  17.084  0.00  0.00    +0.000 A 
ATOM     23  C   UNL     1       5.029   4.010  16.341  0.00  0.00    +0.000 A 
ATOM     24  C   UNL     1       6.262   4.553  16.699  0.00  0.00    +0.000 A 
BRANCH  19  26
ATOM     25  C   UNL     1       7.665   7.588  17.765  0.00  0.00    +0.000 C 
ATOM     26  C   UNL     1       7.705   6.098  18.122  0.00  0.00    +0.000 C 
ATOM     27  C   UNL     1       8.099   5.899  19.587  0.00  0.00    +0.000 C 
ENDBRANCH  19  26
BRANCH  24  28
ATOM     28  O   UNL     1       7.373   4.236  15.968  0.00  0.00    +0.000 OA
ATOM     29  H   UNL     1       7.734   3.395  16.296  0.00  0.00    +0.000 HD
ENDBRANCH  24  28
ENDBRANCH  18  21
ENDBRANCH   1  18
TORSDOF 7
ENDMDL
MODEL 6
REMARK VINA RESULT:      -8.1      3.110      7.917
REMARK  Name = 
REMARK  9 active torsions:
REMARK  status: ('A' for Active; 'I' for Inactive)
REMARK    1  A    between atoms: C_1  and  C_2
REMARK    2  A    between atoms: C_2  and  C_3
REMARK    3  A    between atoms: C_2  and  C_4
REMARK    4  A    between atoms: C_6  and  C_7
REMARK    5  A    between atoms: C_7  and  N_8
REMARK    6  A    between atoms: C_12  and  N_13
REMARK    7  A    between atoms: C_14  and  C_16
REMARK    8  A    between atoms: C_16  and  O_18
REMARK    9  A    between atoms: C_25  and  O_26
REMARK                            x       y       z     vdW  Elec       q    Type
REMARK                         _______ _______ _______ _____ _____    ______ ____
ROOT
ATOM      1  N   UNL     1       1.871   7.993  19.459  0.00  0.00    +0.000 N 
ATOM      2  C   UNL     1       2.531   8.450  18.344  0.00  0.00    +0.000 A 
ATOM      3  C   UNL     1       3.329   7.433  17.878  0.00  0.00    +0.000 A 
ATOM      4  C   UNL     1       3.158   6.312  18.738  0.00  0.00    +0.000 A 
ATOM      5  C   UNL     1       3.773   5.041  18.830  0.00  0.00    +0.000 A 
ATOM      6  C   UNL     1       3.396   4.168  19.863  0.00  0.00    +0.000 A 
ATOM      7  C   UNL     1       2.398   4.527  20.764  0.00  0.00    +0.000 A 
ATOM      8  C   UNL     1       1.795   5.785  20.707  0.00  0.00    +0.000 A 
ATOM      9  C   UNL     1       2.218   6.676  19.706  0.00  0.00    +0.000 A 
ENDROOT
BRANCH   5  10
ATOM     10  N   UNL     1       4.744   4.676  17.885  0.00  0.00    +0.000 N 
ATOM     11  C   UNL     1       6.098   4.760  18.117  0.00  0.00    +0.000 C 
ATOM     12  O   UNL     1       6.692   5.138  19.119  0.00  0.00    +0.000 OA
ATOM     13  H   UNL     1       4.466   4.644  16.908  0.00  0.00    +0.000 HD
BRANCH  11  14
ATOM     14  C   UNL     1       6.949   4.438  16.877  0.00  0.00    +0.000 C 
ATOM     15  O   UNL     1       6.528   4.553  15.742  0.00  0.00    +0.000 OA
BRANCH  14  16
ATOM     16  O   UNL     1       8.191   4.060  17.232  0.00  0.00    +0.000 OA
ATOM     17  H   UNL     1       8.172   3.761  18.172  0.00  0.00    +0.000 HD
ENDBRANCH  14  16
ENDBRANCH  11  14
ENDBRANCH   5  10
BRANCH   1  18
ATOM     18  C   UNL     1       1.041   8.829  20.322  0.00  0.00    +0.000 C 
BRANCH  18  21
ATOM     19  C   UNL     1       0.732  12.477  19.229  0.00  0.00    +0.000 A 
ATOM     20  C   UNL     1       1.204  11.271  19.782  0.00  0.00    +0.000 A 
ATOM     21  C   UNL     1       0.494  10.063  19.645  0.00  0.00    +0.000 A 
ATOM     22  C   UNL     1      -0.727  10.083  18.961  0.00  0.00    +0.000 A 
ATOM     23  C   UNL     1      -1.197  11.261  18.380  0.00  0.00    +0.000 A 
ATOM     24  C   UNL     1      -0.466  12.442  18.508  0.00  0.00    +0.000 A 
BRANCH  19  26
ATOM     25  C   UNL     1       1.834  13.957  20.937  0.00  0.00    +0.000 C 
ATOM     26  C   UNL     1       1.485  13.780  19.455  0.00  0.00    +0.000 C 
ATOM     27  C   UNL     1       2.739  13.884  18.584  0.00  0.00    +0.000 C 
ENDBRANCH  19  26
BRANCH  24  28
ATOM     28  O   UNL     1      -0.933  13.588  17.929  0.00  0.00    +0.000 OA
ATOM     29  H   UNL     1      -1.163  13.400  17.004  0.00  0.00    +0.000 HD
ENDBRANCH  24  28
ENDBRANCH  18  21
ENDBRANCH   1  18
TORSDOF 7
ENDMDL
MODEL 7
REMARK VINA RESULT:      -8.0      3.542      7.336
REMARK  Name = 
REMARK  9 active torsions:
REMARK  status: ('A' for Active; 'I' for Inactive)
REMARK    1  A    between atoms: C_1  and  C_2
REMARK    2  A    between atoms: C_2  and  C_3
REMARK    3  A    between atoms: C_2  and  C_4
REMARK    4  A    between atoms: C_6  and  C_7
REMARK    5  A    between atoms: C_7  and  N_8
REMARK    6  A    between atoms: C_12  and  N_13
REMARK    7  A    between atoms: C_14  and  C_16
REMARK    8  A    between atoms: C_16  and  O_18
REMARK    9  A    between atoms: C_25  and  O_26
REMARK                            x       y       z     vdW  Elec       q    Type
REMARK                         _______ _______ _______ _____ _____    ______ ____
ROOT
ATOM      1  N   UNL     1       3.659   6.330  18.052  0.00  0.00    +0.000 N 
ATOM      2  C   UNL     1       4.951   6.204  18.500  0.00  0.00    +0.000 A 
ATOM      3  C   UNL     1       5.149   4.892  18.858  0.00  0.00    +0.000 A 
ATOM      4  C   UNL     1       3.935   4.187  18.628  0.00  0.00    +0.000 A 
ATOM      5  C   UNL     1       3.499   2.867  18.892  0.00  0.00    +0.000 A 
ATOM      6  C   UNL     1       2.180   2.502  18.578  0.00  0.00    +0.000 A 
ATOM      7  C   UNL     1       1.319   3.413  17.974  0.00  0.00    +0.000 A 
ATOM      8  C   UNL     1       1.719   4.728  17.726  0.00  0.00    +0.000 A 
ATOM      9  C   UNL     1       3.022   5.103  18.095  0.00  0.00    +0.000 A 
ENDROOT
BRANCH   5  10
ATOM     10  N   UNL     1       4.394   1.947  19.458  0.00  0.00    +0.000 N 
ATOM     11  C   UNL     1       4.430   1.651  20.803  0.00  0.00    +0.000 C 
ATOM     12  O   UNL     1       3.739   2.093  21.713  0.00  0.00    +0.000 OA
ATOM     13  H   UNL     1       5.236   1.723  18.936  0.00  0.00    +0.000 HD
BRANCH  11  14
ATOM     14  C   UNL     1       5.592   0.723  21.191  0.00  0.00    +0.000 C 
ATOM     15  O   UNL     1       6.162   0.794  22.263  0.00  0.00    +0.000 OA
BRANCH  14  16
ATOM     16  O   UNL     1       5.844  -0.166  20.211  0.00  0.00    +0.000 OA
ATOM     17  H   UNL     1       5.929  -1.063  20.614  0.00  0.00    +0.000 HD
ENDBRANCH  14  16
ENDBRANCH  11  14
ENDBRANCH   5  10
BRANCH   1  18
ATOM     18  C   UNL     1       3.027   7.604  17.719  0.00  0.00    +0.000 C 
BRANCH  18  21
ATOM     19  C   UNL     1       0.462   9.842  19.455  0.00  0.00    +0.000 A 
ATOM     20  C   UNL     1       1.304   9.252  18.493  0.00  0.00    +0.000 A 
ATOM     21  C   UNL     1       2.107   8.136  18.793  0.00  0.00    +0.000 A 
ATOM     22  C   UNL     1       2.079   7.626  20.096  0.00  0.00    +0.000 A 
ATOM     23  C   UNL     1       1.229   8.178  21.056  0.00  0.00    +0.000 A 
ATOM     24  C   UNL     1       0.424   9.269  20.730  0.00  0.00    +0.000 A 
BRANCH  19  26
ATOM     25  C   UNL     1       0.590  12.251  18.747  0.00  0.00    +0.000 C 
ATOM     26  C   UNL     1      -0.340  11.092  19.122  0.00  0.00    +0.000 C 
ATOM     27  C   UNL     1      -1.370  10.841  18.019  0.00  0.00    +0.000 C 
ENDBRANCH  19  26
BRANCH  24  28
ATOM     28  O   UNL     1      -0.408   9.796  21.677  0.00  0.00    +0.000 OA
ATOM     29  H   UNL     1      -0.265  10.756  21.720  0.00  0.00    +0.000 HD
ENDBRANCH  24  28
ENDBRANCH  18  21
ENDBRANCH   1  18
TORSDOF 7
ENDMDL
MODEL 8
REMARK VINA RESULT:      -8.0      3.231      8.345
REMARK  Name = 
REMARK  9 active torsions:
REMARK  status: ('A' for Active; 'I' for Inactive)
REMARK    1  A    between atoms: C_1  and  C_2
REMARK    2  A    between atoms: C_2  and  C_3
REMARK    3  A    between atoms: C_2  and  C_4
REMARK    4  A    between atoms: C_6  and  C_7
REMARK    5  A    between atoms: C_7  and  N_8
REMARK    6  A    between atoms: C_12  and  N_13
REMARK    7  A    between atoms: C_14  and  C_16
REMARK    8  A    between atoms: C_16  and  O_18
REMARK    9  A    between atoms: C_25  and  O_26
REMARK                            x       y       z     vdW  Elec       q    Type
REMARK                         _______ _______ _______ _____ _____    ______ ____
ROOT
ATOM      1  N   UNL     1       1.818   8.044  19.312  0.00  0.00    +0.000 N 
ATOM      2  C   UNL     1       2.440   8.621  18.232  0.00  0.00    +0.000 A 
ATOM      3  C   UNL     1       3.378   7.735  17.760  0.00  0.00    +0.000 A 
ATOM      4  C   UNL     1       3.337   6.574  18.581  0.00  0.00    +0.000 A 
ATOM      5  C   UNL     1       4.114   5.393  18.654  0.00  0.00    +0.000 A 
ATOM      6  C   UNL     1       3.831   4.444  19.648  0.00  0.00    +0.000 A 
ATOM      7  C   UNL     1       2.771   4.638  20.530  0.00  0.00    +0.000 A 
ATOM      8  C   UNL     1       2.007   5.806  20.493  0.00  0.00    +0.000 A 
ATOM      9  C   UNL     1       2.331   6.777  19.531  0.00  0.00    +0.000 A 
ENDROOT
BRANCH   5  10
ATOM     10  N   UNL     1       5.147   5.192  17.727  0.00  0.00    +0.000 N 
ATOM     11  C   UNL     1       5.041   4.351  16.642  0.00  0.00    +0.000 C 
ATOM     12  O   UNL     1       4.095   3.659  16.286  0.00  0.00    +0.000 OA
ATOM     13  H   UNL     1       6.095   5.418  18.017  0.00  0.00    +0.000 HD
BRANCH  11  14
ATOM     14  C   UNL     1       6.358   4.194  15.862  0.00  0.00    +0.000 C 
ATOM     15  O   UNL     1       7.411   4.663  16.248  0.00  0.00    +0.000 OA
BRANCH  14  16
ATOM     16  O   UNL     1       6.172   3.457  14.752  0.00  0.00    +0.000 OA
ATOM     17  H   UNL     1       6.988   3.508  14.200  0.00  0.00    +0.000 HD
ENDBRANCH  14  16
ENDBRANCH  11  14
ENDBRANCH   5  10
BRANCH   1  18
ATOM     18  C   UNL     1       0.863   8.733  20.175  0.00  0.00    +0.000 C 
BRANCH  18  21
ATOM     19  C   UNL     1      -1.211  11.280  18.222  0.00  0.00    +0.000 A 
ATOM     20  C   UNL     1      -0.743  10.088  18.809  0.00  0.00    +0.000 A 
ATOM     21  C   UNL     1       0.394  10.064  19.637  0.00  0.00    +0.000 A 
ATOM     22  C   UNL     1       1.085  11.263  19.853  0.00  0.00    +0.000 A 
ATOM     23  C   UNL     1       0.620  12.459  19.306  0.00  0.00    +0.000 A 
ATOM     24  C   UNL     1      -0.522  12.463  18.507  0.00  0.00    +0.000 A 
BRANCH  19  26
ATOM     25  C   UNL     1      -2.433   9.958  16.466  0.00  0.00    +0.000 C 
ATOM     26  C   UNL     1      -2.400  11.261  17.273  0.00  0.00    +0.000 C 
ATOM     27  C   UNL     1      -3.727  11.485  18.002  0.00  0.00    +0.000 C 
ENDBRANCH  19  26
BRANCH  24  28
ATOM     28  O   UNL     1      -0.971  13.642  17.982  0.00  0.00    +0.000 OA
ATOM     29  H   UNL     1      -0.206  14.209  17.785  0.00  0.00    +0.000 HD
ENDBRANCH  24  28
ENDBRANCH  18  21
ENDBRANCH   1  18
TORSDOF 7
ENDMDL
MODEL 9
REMARK VINA RESULT:      -8.0      3.119      8.387
REMARK  Name = 
REMARK  9 active torsions:
REMARK  status: ('A' for Active; 'I' for Inactive)
REMARK    1  A    between atoms: C_1  and  C_2
REMARK    2  A    between atoms: C_2  and  C_3
REMARK    3  A    between atoms: C_2  and  C_4
REMARK    4  A    between atoms: C_6  and  C_7
REMARK    5  A    between atoms: C_7  and  N_8
REMARK    6  A    between atoms: C_12  and  N_13
REMARK    7  A    between atoms: C_14  and  C_16
REMARK    8  A    between atoms: C_16  and  O_18
REMARK    9  A    between atoms: C_25  and  O_26
REMARK                            x       y       z     vdW  Elec       q    Type
REMARK                         _______ _______ _______ _____ _____    ______ ____
ROOT
ATOM      1  N   UNL     1       1.914   8.338  19.167  0.00  0.00    +0.000 N 
ATOM      2  C   UNL     1       2.597   8.658  18.019  0.00  0.00    +0.000 A 
ATOM      3  C   UNL     1       3.312   7.552  17.629  0.00  0.00    +0.000 A 
ATOM      4  C   UNL     1       3.066   6.516  18.572  0.00  0.00    +0.000 A 
ATOM      5  C   UNL     1       3.586   5.213  18.759  0.00  0.00    +0.000 A 
ATOM      6  C   UNL     1       3.154   4.451  19.857  0.00  0.00    +0.000 A 
ATOM      7  C   UNL     1       2.194   4.952  20.732  0.00  0.00    +0.000 A 
ATOM      8  C   UNL     1       1.686   6.244  20.581  0.00  0.00    +0.000 A 
ATOM      9  C   UNL     1       2.164   7.022  19.514  0.00  0.00    +0.000 A 
ENDROOT
BRANCH   5  10
ATOM     10  N   UNL     1       4.517   4.705  17.841  0.00  0.00    +0.000 N 
ATOM     11  C   UNL     1       5.880   4.786  18.019  0.00  0.00    +0.000 C 
ATOM     12  O   UNL     1       6.513   5.278  18.945  0.00  0.00    +0.000 OA
ATOM     13  H   UNL     1       4.207   4.554  16.886  0.00  0.00    +0.000 HD
BRANCH  11  14
ATOM     14  C   UNL     1       6.683   4.286  16.807  0.00  0.00    +0.000 C 
ATOM     15  O   UNL     1       7.853   4.566  16.631  0.00  0.00    +0.000 OA
BRANCH  14  16
ATOM     16  O   UNL     1       5.927   3.494  16.025  0.00  0.00    +0.000 OA
ATOM     17  H   UNL     1       5.218   3.088  16.579  0.00  0.00    +0.000 HD
ENDBRANCH  14  16
ENDBRANCH  11  14
ENDBRANCH   5  10
BRANCH   1  18
ATOM     18  C   UNL     1       1.157   9.298  19.967  0.00  0.00    +0.000 C 
BRANCH  18  21
ATOM     19  C   UNL     1      -1.579  11.837  19.153  0.00  0.00    +0.000 A 
ATOM     20  C   UNL     1      -0.507  11.161  19.766  0.00  0.00    +0.000 A 
ATOM     21  C   UNL     1       0.049   9.993  19.212  0.00  0.00    +0.000 A 
ATOM     22  C   UNL     1      -0.509   9.485  18.033  0.00  0.00    +0.000 A 
ATOM     23  C   UNL     1      -1.552  10.156  17.394  0.00  0.00    +0.000 A 
ATOM     24  C   UNL     1      -2.072  11.325  17.949  0.00  0.00    +0.000 A 
BRANCH  19  26
ATOM     25  C   UNL     1      -3.382  12.647  20.708  0.00  0.00    +0.000 C 
ATOM     26  C   UNL     1      -2.206  13.056  19.814  0.00  0.00    +0.000 C 
ATOM     27  C   UNL     1      -1.183  13.878  20.601  0.00  0.00    +0.000 C 
ENDBRANCH  19  26
BRANCH  24  28
ATOM     28  O   UNL     1      -3.090  11.976  17.310  0.00  0.00    +0.000 OA
ATOM     29  H   UNL     1      -2.836  12.120  16.383  0.00  0.00    +0.000 HD
ENDBRANCH  24  28
ENDBRANCH  18  21
ENDBRANCH   1  18
TORSDOF 7
ENDMDL
