MODEL 1
REMARK VINA RESULT:      -7.7      0.000      0.000
REMARK  Name = 
REMARK  12 active torsions:
REMARK  status: ('A' for Active; 'I' for Inactive)
REMARK    1  A    between atoms: C_1  and  O_2
REMARK    2  A    between atoms: O_2  and  C_3
REMARK    3  A    between atoms: C_6  and  C_7
REMARK    4  A    between atoms: N_9  and  C_10
REMARK    5  A    between atoms: C_10  and  C_11
REMARK    6  A    between atoms: C_11  and  C_12
REMARK    7  A    between atoms: C_12  and  C_13
REMARK    8  A    between atoms: C_13  and  C_14
REMARK    9  A    between atoms: N_16  and  C_17
REMARK   10  A    between atoms: C_20  and  C_21
REMARK   11  A    between atoms: C_21  and  C_22
REMARK   12  A    between atoms: N_24  and  O_25
REMARK                            x       y       z     vdW  Elec       q    Type
REMARK                         _______ _______ _______ _____ _____    ______ ____
ROOT
ATOM      1  C   UNL     1       8.155   7.859  18.282  0.00  0.00    +0.000 C 
ATOM      2  O   UNL     1       7.647   8.225  17.226  0.00  0.00    +0.000 OA
ATOM      3  N   UNL     1       8.850   8.655  19.179  0.00  0.00    +0.000 N 
ATOM      4  H   UNL     1       9.323   8.199  19.949  0.00  0.00    +0.000 HD
ENDROOT
BRANCH   3   5
ATOM      5  C   UNL     1       9.030  10.051  19.086  0.00  0.00    +0.000 A 
ATOM      6  C   UNL     1       8.816  10.763  17.908  0.00  0.00    +0.000 A 
ATOM      7  C   UNL     1       8.963  12.151  17.875  0.00  0.00    +0.000 A 
ATOM      8  C   UNL     1       9.334  12.859  19.021  0.00  0.00    +0.000 A 
ATOM      9  C   UNL     1       9.581  12.146  20.201  0.00  0.00    +0.000 A 
ATOM     10  C   UNL     1       9.413  10.753  20.236  0.00  0.00    +0.000 A 
BRANCH   8  11
ATOM     11  C   UNL     1       9.495  14.357  18.949  0.00  0.00    +0.000 C 
BRANCH  11  12
ATOM     12  C   UNL     1      10.464  14.846  17.891  0.00  0.00    +0.000 C 
ATOM     13  O   UNL     1      11.649  14.526  17.871  0.00  0.00    +0.000 OA
ATOM     14  N   UNL     1       9.906  15.609  16.889  0.00  0.00    +0.000 N 
ATOM     15  H   UNL     1       9.096  16.196  17.064  0.00  0.00    +0.000 HD
BRANCH  14  16
ATOM     16  O   UNL     1      10.824  16.084  15.925  0.00  0.00    +0.000 OA
ATOM     17  H   UNL     1      11.455  15.333  15.845  0.00  0.00    +0.000 HD
ENDBRANCH  14  16
ENDBRANCH  11  12
ENDBRANCH   8  11
ENDBRANCH   3   5
BRANCH   1  18
ATOM     18  C   UNL     1       8.044   6.406  18.706  0.00  0.00    +0.000 C 
BRANCH  18  19
ATOM     19  C   UNL     1       7.379   5.549  17.638  0.00  0.00    +0.000 C 
BRANCH  19  20
ATOM     20  C   UNL     1       5.954   5.157  18.014  0.00  0.00    +0.000 C 
BRANCH  20  21
ATOM     21  C   UNL     1       4.982   5.700  16.971  0.00  0.00    +0.000 C 
BRANCH  21  24
ATOM     22  C   UNL     1       3.063   6.558  18.256  0.00  0.00    +0.000 C 
ATOM     23  O   UNL     1       2.683   5.426  18.540  0.00  0.00    +0.000 OA
ATOM     24  N   UNL     1       4.186   6.789  17.487  0.00  0.00    +0.000 N 
ATOM     25  H   UNL     1       4.484   7.722  17.257  0.00  0.00    +0.000 HD
BRANCH  22  29
ATOM     26  C   UNL     1       0.864  10.044  19.528  0.00  0.00    +0.000 A 
ATOM     27  C   UNL     1       1.387   9.949  18.240  0.00  0.00    +0.000 A 
ATOM     28  C   UNL     1       2.090   8.807  17.843  0.00  0.00    +0.000 A 
ATOM     29  C   UNL     1       2.297   7.749  18.740  0.00  0.00    +0.000 A 
ATOM     30  C   UNL     1       1.782   7.859  20.038  0.00  0.00    +0.000 A 
ATOM     31  C   UNL     1       1.073   9.001  20.429  0.00  0.00    +0.000 A 
BRANCH  26  33
ATOM     32  C   UNL     1       0.042  11.499  21.199  0.00  0.00    +0.000 C 
ATOM     33  O   UNL     1       0.208  11.210  19.815  0.00  0.00    +0.000 OA
ENDBRANCH  26  33
ENDBRANCH  22  29
ENDBRANCH  21  24
ENDBRANCH  20  21
ENDBRANCH  19  20
ENDBRANCH  18  19
ENDBRANCH   1  18
TORSDOF 11
ENDMDL
MODEL 2
REMARK VINA RESULT:      -7.7      5.014      7.624
REMARK  Name = 
REMARK  12 active torsions:
REMARK  status: ('A' for Active; 'I' for Inactive)
REMARK    1  A    between atoms: C_1  and  O_2
REMARK    2  A    between atoms: O_2  and  C_3
REMARK    3  A    between atoms: C_6  and  C_7
REMARK    4  A    between atoms: N_9  and  C_10
REMARK    5  A    between atoms: C_10  and  C_11
REMARK    6  A    between atoms: C_11  and  C_12
REMARK    7  A    between atoms: C_12  and  C_13
REMARK    8  A    between atoms: C_13  and  C_14
REMARK    9  A    between atoms: N_16  and  C_17
REMARK   10  A    between atoms: C_20  and  C_21
REMARK   11  A    between atoms: C_21  and  C_22
REMARK   12  A    between atoms: N_24  and  O_25
REMARK                            x       y       z     vdW  Elec       q    Type
REMARK                         _______ _______ _______ _____ _____    ______ ____
ROOT
ATOM      1  C   UNL     1       2.646   5.793  20.227  0.00  0.00    +0.000 C 
ATOM      2  O   UNL     1       3.508   5.997  19.377  0.00  0.00    +0.000 OA
ATOM      3  N   UNL     1       1.722   6.713  20.696  0.00  0.00    +0.000 N 
ATOM      4  H   UNL     1       1.148   6.447  21.487  0.00  0.00    +0.000 HD
ENDROOT
BRANCH   3   5
ATOM      5  C   UNL     1       1.547   8.031  20.225  0.00  0.00    +0.000 A 
ATOM      6  C   UNL     1       1.802   8.402  18.906  0.00  0.00    +0.000 A 
ATOM      7  C   UNL     1       1.571   9.708  18.475  0.00  0.00    +0.000 A 
ATOM      8  C   UNL     1       1.083  10.678  19.353  0.00  0.00    +0.000 A 
ATOM      9  C   UNL     1       0.852  10.320  20.688  0.00  0.00    +0.000 A 
ATOM     10  C   UNL     1       1.067   9.001  21.115  0.00  0.00    +0.000 A 
BRANCH   8  11
ATOM     11  C   UNL     1       0.853  12.084  18.857  0.00  0.00    +0.000 C 
BRANCH  11  12
ATOM     12  C   UNL     1       2.087  12.964  18.838  0.00  0.00    +0.000 C 
ATOM     13  O   UNL     1       2.571  13.458  19.853  0.00  0.00    +0.000 OA
ATOM     14  N   UNL     1       2.690  13.105  17.608  0.00  0.00    +0.000 N 
ATOM     15  H   UNL     1       2.149  13.068  16.749  0.00  0.00    +0.000 HD
BRANCH  14  16
ATOM     16  O   UNL     1       3.821  13.953  17.597  0.00  0.00    +0.000 OA
ATOM     17  H   UNL     1       4.174  13.825  16.687  0.00  0.00    +0.000 HD
ENDBRANCH  14  16
ENDBRANCH  11  12
ENDBRANCH   8  11
ENDBRANCH   3   5
BRANCH   1  18
ATOM     18  C   UNL     1       2.525   4.420  20.861  0.00  0.00    +0.000 C 
BRANCH  18  19
ATOM     19  C   UNL     1       1.162   3.792  20.606  0.00  0.00    +0.000 C 
BRANCH  19  20
ATOM     20  C   UNL     1       0.893   3.572  19.122  0.00  0.00    +0.000 C 
BRANCH  20  21
ATOM     21  C   UNL     1       1.860   2.526  18.576  0.00  0.00    +0.000 C 
BRANCH  21  24
ATOM     22  C   UNL     1       4.177   3.076  17.944  0.00  0.00    +0.000 C 
ATOM     23  O   UNL     1       4.629   2.568  18.966  0.00  0.00    +0.000 OA
ATOM     24  N   UNL     1       2.824   3.101  17.668  0.00  0.00    +0.000 N 
ATOM     25  H   UNL     1       2.466   3.526  16.830  0.00  0.00    +0.000 HD
BRANCH  22  29
ATOM     26  C   UNL     1       6.917   4.926  15.173  0.00  0.00    +0.000 A 
ATOM     27  C   UNL     1       7.111   5.014  16.550  0.00  0.00    +0.000 A 
ATOM     28  C   UNL     1       6.216   4.400  17.433  0.00  0.00    +0.000 A 
ATOM     29  C   UNL     1       5.099   3.704  16.948  0.00  0.00    +0.000 A 
ATOM     30  C   UNL     1       4.902   3.634  15.562  0.00  0.00    +0.000 A 
ATOM     31  C   UNL     1       5.805   4.243  14.682  0.00  0.00    +0.000 A 
BRANCH  26  33
ATOM     32  C   UNL     1       7.913   5.159  13.043  0.00  0.00    +0.000 C 
ATOM     33  O   UNL     1       7.843   5.575  14.403  0.00  0.00    +0.000 OA
ENDBRANCH  26  33
ENDBRANCH  22  29
ENDBRANCH  21  24
ENDBRANCH  20  21
ENDBRANCH  19  20
ENDBRANCH  18  19
ENDBRANCH   1  18
TORSDOF 11
ENDMDL
MODEL 3
REMARK VINA RESULT:      -7.7      5.339      8.085
REMARK  Name = 
REMARK  12 active torsions:
REMARK  status: ('A' for Active; 'I' for Inactive)
REMARK    1  A    between atoms: C_1  and  O_2
REMARK    2  A    between atoms: O_2  and  C_3
REMARK    3  A    between atoms: C_6  and  C_7
REMARK    4  A    between atoms: N_9  and  C_10
REMARK    5  A    between atoms: C_10  and  C_11
REMARK    6  A    between atoms: C_11  and  C_12
REMARK    7  A    between atoms: C_12  and  C_13
REMARK    8  A    between atoms: C_13  and  C_14
REMARK    9  A    between atoms: N_16  and  C_17
REMARK   10  A    between atoms: C_20  and  C_21
REMARK   11  A    between atoms: C_21  and  C_22
REMARK   12  A    between atoms: N_24  and  O_25
REMARK                            x       y       z     vdW  Elec       q    Type
REMARK                         _______ _______ _______ _____ _____    ______ ____
ROOT
ATOM      1  C   UNL     1       7.520   5.082  17.384  0.00  0.00    +0.000 C 
ATOM      2  O   UNL     1       8.291   4.130  17.298  0.00  0.00    +0.000 OA
ATOM      3  N   UNL     1       6.658   5.532  16.397  0.00  0.00    +0.000 N 
ATOM      4  H   UNL     1       6.167   6.403  16.557  0.00  0.00    +0.000 HD
ENDROOT
BRANCH   3   5
ATOM      5  C   UNL     1       6.445   4.929  15.140  0.00  0.00    +0.000 A 
ATOM      6  C   UNL     1       7.350   5.042  14.086  0.00  0.00    +0.000 A 
ATOM      7  C   UNL     1       7.118   4.391  12.874  0.00  0.00    +0.000 A 
ATOM      8  C   UNL     1       5.973   3.614  12.684  0.00  0.00    +0.000 A 
ATOM      9  C   UNL     1       5.045   3.519  13.729  0.00  0.00    +0.000 A 
ATOM     10  C   UNL     1       5.290   4.160  14.954  0.00  0.00    +0.000 A 
BRANCH   8  11
ATOM     11  C   UNL     1       5.749   2.931  11.358  0.00  0.00    +0.000 C 
BRANCH  11  12
ATOM     12  C   UNL     1       6.505   1.630  11.173  0.00  0.00    +0.000 C 
ATOM     13  O   UNL     1       7.707   1.585  10.922  0.00  0.00    +0.000 OA
ATOM     14  N   UNL     1       5.771   0.486  11.396  0.00  0.00    +0.000 N 
ATOM     15  H   UNL     1       4.773   0.457  11.212  0.00  0.00    +0.000 HD
BRANCH  14  16
ATOM     16  O   UNL     1       6.479  -0.720  11.190  0.00  0.00    +0.000 OA
ATOM     17  H   UNL     1       6.622  -1.041  12.109  0.00  0.00    +0.000 HD
ENDBRANCH  14  16
ENDBRANCH  11  12
ENDBRANCH   8  11
ENDBRANCH   3   5
BRANCH   1  18
ATOM     18  C   UNL     1       7.454   5.882  18.672  0.00  0.00    +0.000 C 
BRANCH  18  19
ATOM     19  C   UNL     1       6.136   5.674  19.405  0.00  0.00    +0.000 C 
BRANCH  19  20
ATOM     20  C   UNL     1       5.632   4.240  19.296  0.00  0.00    +0.000 C 
BRANCH  20  21
ATOM     21  C   UNL     1       4.256   4.230  18.637  0.00  0.00    +0.000 C 
BRANCH  21  24
ATOM     22  C   UNL     1       3.278   6.446  18.188  0.00  0.00    +0.000 C 
ATOM     23  O   UNL     1       3.779   6.496  17.068  0.00  0.00    +0.000 OA
ATOM     24  N   UNL     1       3.459   5.368  19.031  0.00  0.00    +0.000 N 
ATOM     25  H   UNL     1       3.048   5.343  19.948  0.00  0.00    +0.000 HD
BRANCH  22  29
ATOM     26  C   UNL     1       0.868   9.775  19.499  0.00  0.00    +0.000 A 
ATOM     27  C   UNL     1       1.339   9.694  18.189  0.00  0.00    +0.000 A 
ATOM     28  C   UNL     1       2.111   8.602  17.781  0.00  0.00    +0.000 A 
ATOM     29  C   UNL     1       2.442   7.583  18.686  0.00  0.00    +0.000 A 
ATOM     30  C   UNL     1       1.978   7.680  20.004  0.00  0.00    +0.000 A 
ATOM     31  C   UNL     1       1.198   8.770  20.407  0.00  0.00    +0.000 A 
BRANCH  26  33
ATOM     32  C   UNL     1      -0.506  11.519  18.688  0.00  0.00    +0.000 C 
ATOM     33  O   UNL     1       0.134  10.891  19.794  0.00  0.00    +0.000 OA
ENDBRANCH  26  33
ENDBRANCH  22  29
ENDBRANCH  21  24
ENDBRANCH  20  21
ENDBRANCH  19  20
ENDBRANCH  18  19
ENDBRANCH   1  18
TORSDOF 11
ENDMDL
MODEL 4
REMARK VINA RESULT:      -7.4      4.271      8.091
REMARK  Name = 
REMARK  12 active torsions:
REMARK  status: ('A' for Active; 'I' for Inactive)
REMARK    1  A    between atoms: C_1  and  O_2
REMARK    2  A    between atoms: O_2  and  C_3
REMARK    3  A    between atoms: C_6  and  C_7
REMARK    4  A    between atoms: N_9  and  C_10
REMARK    5  A    between atoms: C_10  and  C_11
REMARK    6  A    between atoms: C_11  and  C_12
REMARK    7  A    between atoms: C_12  and  C_13
REMARK    8  A    between atoms: C_13  and  C_14
REMARK    9  A    between atoms: N_16  and  C_17
REMARK   10  A    between atoms: C_20  and  C_21
REMARK   11  A    between atoms: C_21  and  C_22
REMARK   12  A    between atoms: N_24  and  O_25
REMARK                            x       y       z     vdW  Elec       q    Type
REMARK                         _______ _______ _______ _____ _____    ______ ____
ROOT
ATOM      1  C   UNL     1       1.672   4.847  20.731  0.00  0.00    +0.000 C 
ATOM      2  O   UNL     1       0.467   4.758  20.516  0.00  0.00    +0.000 OA
ATOM      3  N   UNL     1       2.467   5.958  20.501  0.00  0.00    +0.000 N 
ATOM      4  H   UNL     1       3.469   5.854  20.607  0.00  0.00    +0.000 HD
ENDROOT
BRANCH   3   5
ATOM      5  C   UNL     1       2.024   7.221  20.057  0.00  0.00    +0.000 A 
ATOM      6  C   UNL     1       1.399   8.141  20.896  0.00  0.00    +0.000 A 
ATOM      7  C   UNL     1       1.018   9.397  20.422  0.00  0.00    +0.000 A 
ATOM      8  C   UNL     1       1.248   9.762  19.094  0.00  0.00    +0.000 A 
ATOM      9  C   UNL     1       1.849   8.832  18.236  0.00  0.00    +0.000 A 
ATOM     10  C   UNL     1       2.249   7.576  18.720  0.00  0.00    +0.000 A 
BRANCH   8  11
ATOM     11  C   UNL     1       0.815  11.123  18.611  0.00  0.00    +0.000 C 
BRANCH  11  12
ATOM     12  C   UNL     1      -0.683  11.353  18.607  0.00  0.00    +0.000 C 
ATOM     13  O   UNL     1      -1.299  11.767  19.586  0.00  0.00    +0.000 OA
ATOM     14  N   UNL     1      -1.306  11.152  17.395  0.00  0.00    +0.000 N 
ATOM     15  H   UNL     1      -0.952  10.473  16.728  0.00  0.00    +0.000 HD
BRANCH  14  16
ATOM     16  O   UNL     1      -2.707  11.339  17.412  0.00  0.00    +0.000 OA
ATOM     17  H   UNL     1      -2.791  12.285  17.670  0.00  0.00    +0.000 HD
ENDBRANCH  14  16
ENDBRANCH  11  12
ENDBRANCH   8  11
ENDBRANCH   3   5
BRANCH   1  18
ATOM     18  C   UNL     1       2.422   3.660  21.307  0.00  0.00    +0.000 C 
BRANCH  18  19
ATOM     19  C   UNL     1       2.680   2.585  20.261  0.00  0.00    +0.000 C 
BRANCH  19  20
ATOM     20  C   UNL     1       1.488   2.385  19.331  0.00  0.00    +0.000 C 
BRANCH  20  21
ATOM     21  C   UNL     1       1.929   2.589  17.884  0.00  0.00    +0.000 C 
BRANCH  21  24
ATOM     22  C   UNL     1       4.225   3.382  17.474  0.00  0.00    +0.000 C 
ATOM     23  O   UNL     1       4.645   2.239  17.312  0.00  0.00    +0.000 OA
ATOM     24  N   UNL     1       2.901   3.649  17.759  0.00  0.00    +0.000 N 
ATOM     25  H   UNL     1       2.572   4.590  17.895  0.00  0.00    +0.000 HD
BRANCH  22  29
ATOM     26  C   UNL     1       6.826   6.805  17.117  0.00  0.00    +0.000 A 
ATOM     27  C   UNL     1       5.539   6.815  16.581  0.00  0.00    +0.000 A 
ATOM     28  C   UNL     1       4.708   5.698  16.715  0.00  0.00    +0.000 A 
ATOM     29  C   UNL     1       5.161   4.545  17.371  0.00  0.00    +0.000 A 
ATOM     30  C   UNL     1       6.461   4.538  17.894  0.00  0.00    +0.000 A 
ATOM     31  C   UNL     1       7.287   5.660  17.765  0.00  0.00    +0.000 A 
BRANCH  26  33
ATOM     32  C   UNL     1       8.120   8.528  18.088  0.00  0.00    +0.000 C 
ATOM     33  O   UNL     1       7.557   7.943  16.917  0.00  0.00    +0.000 OA
ENDBRANCH  26  33
ENDBRANCH  22  29
ENDBRANCH  21  24
ENDBRANCH  20  21
ENDBRANCH  19  20
ENDBRANCH  18  19
ENDBRANCH   1  18
TORSDOF 11
ENDMDL
MODEL 5
REMARK VINA RESULT:      -7.4      5.464      8.927
REMARK  Name = 
REMARK  12 active torsions:
REMARK  status: ('A' for Active; 'I' for Inactive)
REMARK    1  A    between atoms: C_1  and  O_2
REMARK    2  A    between atoms: O_2  and  C_3
REMARK    3  A    between atoms: C_6  and  C_7
REMARK    4  A    between atoms: N_9  and  C_10
REMARK    5  A    between atoms: C_10  and  C_11
REMARK    6  A    between atoms: C_11  and  C_12
REMARK    7  A    between atoms: C_12  and  C_13
REMARK    8  A    between atoms: C_13  and  C_14
REMARK    9  A    between atoms: N_16  and  C_17
REMARK   10  A    between atoms: C_20  and  C_21
REMARK   11  A    between atoms: C_21  and  C_22
REMARK   12  A    between atoms: N_24  and  O_25
REMARK                            x       y       z     vdW  Elec       q    Type
REMARK                         _______ _______ _______ _____ _____    ______ ____
ROOT
ATOM      1  C   UNL     1       2.751   5.884  19.342  0.00  0.00    +0.000 C 
ATOM      2  O   UNL     1       2.172   5.793  18.263  0.00  0.00    +0.000 OA
ATOM      3  N   UNL     1       2.622   6.914  20.259  0.00  0.00    +0.000 N 
ATOM      4  H   UNL     1       3.252   6.925  21.052  0.00  0.00    +0.000 HD
ENDROOT
BRANCH   3   5
ATOM      5  C   UNL     1       1.738   8.009  20.162  0.00  0.00    +0.000 A 
ATOM      6  C   UNL     1       1.716   8.867  19.064  0.00  0.00    +0.000 A 
ATOM      7  C   UNL     1       0.792   9.910  18.991  0.00  0.00    +0.000 A 
ATOM      8  C   UNL     1      -0.129  10.125  20.019  0.00  0.00    +0.000 A 
ATOM      9  C   UNL     1      -0.093   9.286  21.140  0.00  0.00    +0.000 A 
ATOM     10  C   UNL     1       0.824   8.225  21.201  0.00  0.00    +0.000 A 
BRANCH   8  11
ATOM     11  C   UNL     1      -1.108  11.268  19.914  0.00  0.00    +0.000 C 
BRANCH  11  12
ATOM     12  C   UNL     1      -1.249  11.862  18.527  0.00  0.00    +0.000 C 
ATOM     13  O   UNL     1      -0.633  12.860  18.161  0.00  0.00    +0.000 OA
ATOM     14  N   UNL     1      -2.054  11.154  17.662  0.00  0.00    +0.000 N 
ATOM     15  H   UNL     1      -2.841  10.611  18.002  0.00  0.00    +0.000 HD
BRANCH  14  16
ATOM     16  O   UNL     1      -2.202  11.734  16.382  0.00  0.00    +0.000 OA
ATOM     17  H   UNL     1      -2.163  10.950  15.788  0.00  0.00    +0.000 HD
ENDBRANCH  14  16
ENDBRANCH  11  12
ENDBRANCH   8  11
ENDBRANCH   3   5
BRANCH   1  18
ATOM     18  C   UNL     1       3.713   4.792  19.773  0.00  0.00    +0.000 C 
BRANCH  18  19
ATOM     19  C   UNL     1       4.906   4.679  18.835  0.00  0.00    +0.000 C 
BRANCH  19  20
ATOM     20  C   UNL     1       6.120   5.446  19.347  0.00  0.00    +0.000 C 
BRANCH  20  21
ATOM     21  C   UNL     1       7.361   5.018  18.570  0.00  0.00    +0.000 C 
BRANCH  21  24
ATOM     22  C   UNL     1       7.114   5.358  16.143  0.00  0.00    +0.000 C 
ATOM     23  O   UNL     1       7.468   6.532  16.221  0.00  0.00    +0.000 OA
ATOM     24  N   UNL     1       7.033   4.536  17.249  0.00  0.00    +0.000 N 
ATOM     25  H   UNL     1       6.737   3.578  17.172  0.00  0.00    +0.000 HD
BRANCH  22  29
ATOM     26  C   UNL     1       5.932   3.643  12.366  0.00  0.00    +0.000 A 
ATOM     27  C   UNL     1       5.081   3.620  13.469  0.00  0.00    +0.000 A 
ATOM     28  C   UNL     1       5.479   4.189  14.683  0.00  0.00    +0.000 A 
ATOM     29  C   UNL     1       6.747   4.773  14.816  0.00  0.00    +0.000 A 
ATOM     30  C   UNL     1       7.603   4.778  13.706  0.00  0.00    +0.000 A 
ATOM     31  C   UNL     1       7.197   4.214  12.491  0.00  0.00    +0.000 A 
BRANCH  26  33
ATOM     32  C   UNL     1       4.032   2.918  11.162  0.00  0.00    +0.000 C 
ATOM     33  O   UNL     1       5.449   3.046  11.234  0.00  0.00    +0.000 OA
ENDBRANCH  26  33
ENDBRANCH  22  29
ENDBRANCH  21  24
ENDBRANCH  20  21
ENDBRANCH  19  20
ENDBRANCH  18  19
ENDBRANCH   1  18
TORSDOF 11
ENDMDL
MODEL 6
REMARK VINA RESULT:      -7.4      4.499      7.765
REMARK  Name = 
REMARK  12 active torsions:
REMARK  status: ('A' for Active; 'I' for Inactive)
REMARK    1  A    between atoms: C_1  and  O_2
REMARK    2  A    between atoms: O_2  and  C_3
REMARK    3  A    between atoms: C_6  and  C_7
REMARK    4  A    between atoms: N_9  and  C_10
REMARK    5  A    between atoms: C_10  and  C_11
REMARK    6  A    between atoms: C_11  and  C_12
REMARK    7  A    between atoms: C_12  and  C_13
REMARK    8  A    between atoms: C_13  and  C_14
REMARK    9  A    between atoms: N_16  and  C_17
REMARK   10  A    between atoms: C_20  and  C_21
REMARK   11  A    between atoms: C_21  and  C_22
REMARK   12  A    between atoms: N_24  and  O_25
REMARK                            x       y       z     vdW  Elec       q    Type
REMARK                         _______ _______ _______ _____ _____    ______ ____
ROOT
ATOM      1  C   UNL     1       2.467   5.867  20.450  0.00  0.00    +0.000 C 
ATOM      2  O   UNL     1       3.363   6.237  19.697  0.00  0.00    +0.000 OA
ATOM      3  N   UNL     1       1.506   6.671  21.041  0.00  0.00    +0.000 N 
ATOM      4  H   UNL     1       0.902   6.255  21.739  0.00  0.00    +0.000 HD
ENDROOT
BRANCH   3   5
ATOM      5  C   UNL     1       1.328   8.053  20.821  0.00  0.00    +0.000 A 
ATOM      6  C   UNL     1       1.328   8.622  19.549  0.00  0.00    +0.000 A 
ATOM      7  C   UNL     1       1.103   9.988  19.377  0.00  0.00    +0.000 A 
ATOM      8  C   UNL     1       0.877  10.821  20.476  0.00  0.00    +0.000 A 
ATOM      9  C   UNL     1       0.905  10.262  21.760  0.00  0.00    +0.000 A 
ATOM     10  C   UNL     1       1.112   8.884  21.928  0.00  0.00    +0.000 A 
BRANCH   8  11
ATOM     11  C   UNL     1       0.647  12.296  20.256  0.00  0.00    +0.000 C 
BRANCH  11  12
ATOM     12  C   UNL     1       0.234  12.675  18.848  0.00  0.00    +0.000 C 
ATOM     13  O   UNL     1       0.992  13.226  18.054  0.00  0.00    +0.000 OA
ATOM     14  N   UNL     1      -1.032  12.278  18.479  0.00  0.00    +0.000 N 
ATOM     15  H   UNL     1      -1.779  12.200  19.163  0.00  0.00    +0.000 HD
BRANCH  14  16
ATOM     16  O   UNL     1      -1.417  12.664  17.175  0.00  0.00    +0.000 OA
ATOM     17  H   UNL     1      -0.575  12.586  16.673  0.00  0.00    +0.000 HD
ENDBRANCH  14  16
ENDBRANCH  11  12
ENDBRANCH   8  11
ENDBRANCH   3   5
BRANCH   1  18
ATOM     18  C   UNL     1       2.342   4.397  20.805  0.00  0.00    +0.000 C 
BRANCH  18  19
ATOM     19  C   UNL     1       1.015   3.809  20.346  0.00  0.00    +0.000 C 
BRANCH  19  20
ATOM     20  C   UNL     1       1.198   2.561  19.490  0.00  0.00    +0.000 C 
BRANCH  20  21
ATOM     21  C   UNL     1       1.354   2.963  18.026  0.00  0.00    +0.000 C 
BRANCH  21  24
ATOM     22  C   UNL     1       3.744   3.329  17.554  0.00  0.00    +0.000 C 
ATOM     23  O   UNL     1       3.964   2.124  17.476  0.00  0.00    +0.000 OA
ATOM     24  N   UNL     1       2.487   3.834  17.821  0.00  0.00    +0.000 N 
ATOM     25  H   UNL     1       2.321   4.824  17.889  0.00  0.00    +0.000 HD
BRANCH  22  29
ATOM     26  C   UNL     1       6.876   6.229  16.933  0.00  0.00    +0.000 A 
ATOM     27  C   UNL     1       5.630   6.369  16.325  0.00  0.00    +0.000 A 
ATOM     28  C   UNL     1       4.624   5.423  16.546  0.00  0.00    +0.000 A 
ATOM     29  C   UNL     1       4.859   4.309  17.365  0.00  0.00    +0.000 A 
ATOM     30  C   UNL     1       6.120   4.167  17.960  0.00  0.00    +0.000 A 
ATOM     31  C   UNL     1       7.121   5.121  17.743  0.00  0.00    +0.000 A 
BRANCH  26  33
ATOM     32  C   UNL     1       7.941   8.224  17.620  0.00  0.00    +0.000 C 
ATOM     33  O   UNL     1       7.790   7.203  16.638  0.00  0.00    +0.000 OA
ENDBRANCH  26  33
ENDBRANCH  22  29
ENDBRANCH  21  24
ENDBRANCH  20  21
ENDBRANCH  19  20
ENDBRANCH  18  19
ENDBRANCH   1  18
TORSDOF 11
ENDMDL
MODEL 7
REMARK VINA RESULT:      -7.3      4.313      7.754
REMARK  Name = 
REMARK  12 active torsions:
REMARK  status: ('A' for Active; 'I' for Inactive)
REMARK    1  A    between atoms: C_1  and  O_2
REMARK    2  A    between atoms: O_2  and  C_3
REMARK    3  A    between atoms: C_6  and  C_7
REMARK    4  A    between atoms: N_9  and  C_10
REMARK    5  A    between atoms: C_10  and  C_11
REMARK    6  A    between atoms: C_11  and  C_12
REMARK    7  A    between atoms: C_12  and  C_13
REMARK    8  A    between atoms: C_13  and  C_14
REMARK    9  A    between atoms: N_16  and  C_17
REMARK   10  A    between atoms: C_20  and  C_21
REMARK   11  A    between atoms: C_21  and  C_22
REMARK   12  A    between atoms: N_24  and  O_25
REMARK                            x       y       z     vdW  Elec       q    Type
REMARK                         _______ _______ _______ _____ _____    ______ ____
ROOT
ATOM      1  C   UNL     1       2.048   5.755  20.508  0.00  0.00    +0.000 C 
ATOM      2  O   UNL     1       3.148   6.085  20.075  0.00  0.00    +0.000 OA
ATOM      3  N   UNL     1       1.018   6.608  20.871  0.00  0.00    +0.000 N 
ATOM      4  H   UNL     1       0.209   6.207  21.330  0.00  0.00    +0.000 HD
ENDROOT
BRANCH   3   5
ATOM      5  C   UNL     1       1.012   8.012  20.732  0.00  0.00    +0.000 A 
ATOM      6  C   UNL     1       1.392   8.656  19.557  0.00  0.00    +0.000 A 
ATOM      7  C   UNL     1       1.327  10.046  19.451  0.00  0.00    +0.000 A 
ATOM      8  C   UNL     1       0.885  10.827  20.522  0.00  0.00    +0.000 A 
ATOM      9  C   UNL     1       0.531  10.188  21.717  0.00  0.00    +0.000 A 
ATOM     10  C   UNL     1       0.578   8.789  21.814  0.00  0.00    +0.000 A 
BRANCH   8  11
ATOM     11  C   UNL     1       0.837  12.327  20.378  0.00  0.00    +0.000 C 
BRANCH  11  12
ATOM     12  C   UNL     1       0.450  12.825  19.000  0.00  0.00    +0.000 C 
ATOM     13  O   UNL     1       1.211  13.470  18.283  0.00  0.00    +0.000 OA
ATOM     14  N   UNL     1      -0.793  12.427  18.558  0.00  0.00    +0.000 N 
ATOM     15  H   UNL     1      -1.555  12.263  19.209  0.00  0.00    +0.000 HD
BRANCH  14  16
ATOM     16  O   UNL     1      -1.155  12.922  17.284  0.00  0.00    +0.000 OA
ATOM     17  H   UNL     1      -1.625  12.156  16.885  0.00  0.00    +0.000 HD
ENDBRANCH  14  16
ENDBRANCH  11  12
ENDBRANCH   8  11
ENDBRANCH   3   5
BRANCH   1  18
ATOM     18  C   UNL     1       1.719   4.284  20.682  0.00  0.00    +0.000 C 
BRANCH  18  19
ATOM     19  C   UNL     1       1.397   3.610  19.355  0.00  0.00    +0.000 C 
BRANCH  19  20
ATOM     20  C   UNL     1       1.596   2.100  19.409  0.00  0.00    +0.000 C 
BRANCH  20  21
ATOM     21  C   UNL     1       2.809   1.713  18.569  0.00  0.00    +0.000 C 
BRANCH  21  24
ATOM     22  C   UNL     1       4.683   3.305  18.725  0.00  0.00    +0.000 C 
ATOM     23  O   UNL     1       5.150   2.735  19.708  0.00  0.00    +0.000 OA
ATOM     24  N   UNL     1       3.532   2.871  18.098  0.00  0.00    +0.000 N 
ATOM     25  H   UNL     1       3.157   3.350  17.297  0.00  0.00    +0.000 HD
BRANCH  22  29
ATOM     26  C   UNL     1       6.719   6.801  17.230  0.00  0.00    +0.000 A 
ATOM     27  C   UNL     1       7.076   6.220  18.446  0.00  0.00    +0.000 A 
ATOM     28  C   UNL     1       6.409   5.082  18.910  0.00  0.00    +0.000 A 
ATOM     29  C   UNL     1       5.360   4.518  18.171  0.00  0.00    +0.000 A 
ATOM     30  C   UNL     1       4.997   5.117  16.957  0.00  0.00    +0.000 A 
ATOM     31  C   UNL     1       5.672   6.252  16.493  0.00  0.00    +0.000 A 
BRANCH  26  33
ATOM     32  C   UNL     1       8.143   8.551  17.936  0.00  0.00    +0.000 C 
ATOM     33  O   UNL     1       7.426   7.918  16.880  0.00  0.00    +0.000 OA
ENDBRANCH  26  33
ENDBRANCH  22  29
ENDBRANCH  21  24
ENDBRANCH  20  21
ENDBRANCH  19  20
ENDBRANCH  18  19
ENDBRANCH   1  18
TORSDOF 11
ENDMDL
MODEL 8
REMARK VINA RESULT:      -7.3      6.068      9.093
REMARK  Name = 
REMARK  12 active torsions:
REMARK  status: ('A' for Active; 'I' for Inactive)
REMARK    1  A    between atoms: C_1  and  O_2
REMARK    2  A    between atoms: O_2  and  C_3
REMARK    3  A    between atoms: C_6  and  C_7
REMARK    4  A    between atoms: N_9  and  C_10
REMARK    5  A    between atoms: C_10  and  C_11
REMARK    6  A    between atoms: C_11  and  C_12
REMARK    7  A    between atoms: C_12  and  C_13
REMARK    8  A    between atoms: C_13  and  C_14
REMARK    9  A    between atoms: N_16  and  C_17
REMARK   10  A    between atoms: C_20  and  C_21
REMARK   11  A    between atoms: C_21  and  C_22
REMARK   12  A    between atoms: N_24  and  O_25
REMARK                            x       y       z     vdW  Elec       q    Type
REMARK                         _______ _______ _______ _____ _____    ______ ____
ROOT
ATOM      1  C   UNL     1       1.120   8.998  22.314  0.00  0.00    +0.000 C 
ATOM      2  O   UNL     1       2.287   9.294  22.554  0.00  0.00    +0.000 OA
ATOM      3  N   UNL     1       0.680   8.107  21.348  0.00  0.00    +0.000 N 
ATOM      4  H   UNL     1      -0.316   8.050  21.173  0.00  0.00    +0.000 HD
ENDROOT
BRANCH   3   5
ATOM      5  C   UNL     1       1.496   7.311  20.517  0.00  0.00    +0.000 A 
ATOM      6  C   UNL     1       1.784   5.976  20.795  0.00  0.00    +0.000 A 
ATOM      7  C   UNL     1       2.559   5.216  19.920  0.00  0.00    +0.000 A 
ATOM      8  C   UNL     1       3.071   5.773  18.746  0.00  0.00    +0.000 A 
ATOM      9  C   UNL     1       2.812   7.122  18.474  0.00  0.00    +0.000 A 
ATOM     10  C   UNL     1       2.015   7.880  19.347  0.00  0.00    +0.000 A 
BRANCH   8  11
ATOM     11  C   UNL     1       3.914   4.925  17.826  0.00  0.00    +0.000 C 
BRANCH  11  12
ATOM     12  C   UNL     1       5.410   5.127  17.963  0.00  0.00    +0.000 C 
ATOM     13  O   UNL     1       5.925   6.233  18.113  0.00  0.00    +0.000 OA
ATOM     14  N   UNL     1       6.159   3.972  18.000  0.00  0.00    +0.000 N 
ATOM     15  H   UNL     1       5.860   3.136  17.509  0.00  0.00    +0.000 HD
BRANCH  14  16
ATOM     16  O   UNL     1       7.555   4.174  18.098  0.00  0.00    +0.000 OA
ATOM     17  H   UNL     1       7.814   3.532  18.796  0.00  0.00    +0.000 HD
ENDBRANCH  14  16
ENDBRANCH  11  12
ENDBRANCH   8  11
ENDBRANCH   3   5
BRANCH   1  18
ATOM     18  C   UNL     1       0.003   9.633  23.121  0.00  0.00    +0.000 C 
BRANCH  18  19
ATOM     19  C   UNL     1      -0.833  10.592  22.285  0.00  0.00    +0.000 C 
BRANCH  19  20
ATOM     20  C   UNL     1      -1.299  11.803  23.084  0.00  0.00    +0.000 C 
BRANCH  20  21
ATOM     21  C   UNL     1      -1.914  12.833  22.142  0.00  0.00    +0.000 C 
BRANCH  21  24
ATOM     22  C   UNL     1      -3.284  12.561  20.112  0.00  0.00    +0.000 C 
ATOM     23  O   UNL     1      -4.184  13.263  20.566  0.00  0.00    +0.000 OA
ATOM     24  N   UNL     1      -2.128  12.295  20.818  0.00  0.00    +0.000 N 
ATOM     25  H   UNL     1      -1.401  11.714  20.438  0.00  0.00    +0.000 HD
BRANCH  22  29
ATOM     26  C   UNL     1      -3.813  10.829  16.197  0.00  0.00    +0.000 A 
ATOM     27  C   UNL     1      -4.905  11.228  16.966  0.00  0.00    +0.000 A 
ATOM     28  C   UNL     1      -4.713  11.796  18.229  0.00  0.00    +0.000 A 
ATOM     29  C   UNL     1      -3.421  11.954  18.752  0.00  0.00    +0.000 A 
ATOM     30  C   UNL     1      -2.329  11.535  17.980  0.00  0.00    +0.000 A 
ATOM     31  C   UNL     1      -2.526  10.975  16.713  0.00  0.00    +0.000 A 
BRANCH  26  33
ATOM     32  C   UNL     1      -3.002   9.998  14.139  0.00  0.00    +0.000 C 
ATOM     33  O   UNL     1      -4.115  10.274  14.984  0.00  0.00    +0.000 OA
ENDBRANCH  26  33
ENDBRANCH  22  29
ENDBRANCH  21  24
ENDBRANCH  20  21
ENDBRANCH  19  20
ENDBRANCH  18  19
ENDBRANCH   1  18
TORSDOF 11
ENDMDL
MODEL 9
REMARK VINA RESULT:      -7.3      6.153      9.448
REMARK  Name = 
REMARK  12 active torsions:
REMARK  status: ('A' for Active; 'I' for Inactive)
REMARK    1  A    between atoms: C_1  and  O_2
REMARK    2  A    between atoms: O_2  and  C_3
REMARK    3  A    between atoms: C_6  and  C_7
REMARK    4  A    between atoms: N_9  and  C_10
REMARK    5  A    between atoms: C_10  and  C_11
REMARK    6  A    between atoms: C_11  and  C_12
REMARK    7  A    between atoms: C_12  and  C_13
REMARK    8  A    between atoms: C_13  and  C_14
REMARK    9  A    between atoms: N_16  and  C_17
REMARK   10  A    between atoms: C_20  and  C_21
REMARK   11  A    between atoms: C_21  and  C_22
REMARK   12  A    between atoms: N_24  and  O_25
REMARK                            x       y       z     vdW  Elec       q    Type
REMARK                         _______ _______ _______ _____ _____    ______ ____
ROOT
ATOM      1  C   UNL     1       2.075   7.423  19.881  0.00  0.00    +0.000 C 
ATOM      2  O   UNL     1       2.179   8.214  18.948  0.00  0.00    +0.000 OA
ATOM      3  N   UNL     1       1.441   7.659  21.090  0.00  0.00    +0.000 N 
ATOM      4  H   UNL     1       1.536   6.963  21.820  0.00  0.00    +0.000 HD
ENDROOT
BRANCH   3   5
ATOM      5  C   UNL     1       0.724   8.822  21.441  0.00  0.00    +0.000 A 
ATOM      6  C   UNL     1       0.215   9.039  22.720  0.00  0.00    +0.000 A 
ATOM      7  C   UNL     1      -0.448  10.226  23.033  0.00  0.00    +0.000 A 
ATOM      8  C   UNL     1      -0.625  11.224  22.072  0.00  0.00    +0.000 A 
ATOM      9  C   UNL     1      -0.143  11.001  20.776  0.00  0.00    +0.000 A 
ATOM     10  C   UNL     1       0.542   9.814  20.469  0.00  0.00    +0.000 A 
BRANCH   8  11
ATOM     11  C   UNL     1      -1.355  12.491  22.440  0.00  0.00    +0.000 C 
BRANCH  11  12
ATOM     12  C   UNL     1      -2.835  12.494  22.109  0.00  0.00    +0.000 C 
ATOM     13  O   UNL     1      -3.265  12.668  20.972  0.00  0.00    +0.000 OA
ATOM     14  N   UNL     1      -3.673  12.198  23.161  0.00  0.00    +0.000 N 
ATOM     15  H   UNL     1      -3.425  12.436  24.116  0.00  0.00    +0.000 HD
BRANCH  14  16
ATOM     16  O   UNL     1      -5.051  12.234  22.847  0.00  0.00    +0.000 OA
ATOM     17  H   UNL     1      -5.269  11.281  22.736  0.00  0.00    +0.000 HD
ENDBRANCH  14  16
ENDBRANCH  11  12
ENDBRANCH   8  11
ENDBRANCH   3   5
BRANCH   1  18
ATOM     18  C   UNL     1       2.675   6.035  19.760  0.00  0.00    +0.000 C 
BRANCH  18  19
ATOM     19  C   UNL     1       1.730   4.958  20.277  0.00  0.00    +0.000 C 
BRANCH  19  20
ATOM     20  C   UNL     1       2.477   3.747  20.825  0.00  0.00    +0.000 C 
BRANCH  20  21
ATOM     21  C   UNL     1       2.778   2.775  19.688  0.00  0.00    +0.000 C 
BRANCH  21  24
ATOM     22  C   UNL     1       3.557   3.439  17.447  0.00  0.00    +0.000 C 
ATOM     23  O   UNL     1       2.476   3.161  16.934  0.00  0.00    +0.000 OA
ATOM     24  N   UNL     1       3.796   3.282  18.798  0.00  0.00    +0.000 N 
ATOM     25  H   UNL     1       4.687   3.507  19.204  0.00  0.00    +0.000 HD
BRANCH  22  29
ATOM     26  C   UNL     1       6.857   4.956  15.120  0.00  0.00    +0.000 A 
ATOM     27  C   UNL     1       6.951   4.816  16.503  0.00  0.00    +0.000 A 
ATOM     28  C   UNL     1       5.873   4.315  17.240  0.00  0.00    +0.000 A 
ATOM     29  C   UNL     1       4.675   3.963  16.602  0.00  0.00    +0.000 A 
ATOM     30  C   UNL     1       4.582   4.121  15.212  0.00  0.00    +0.000 A 
ATOM     31  C   UNL     1       5.667   4.616  14.479  0.00  0.00    +0.000 A 
BRANCH  26  33
ATOM     32  C   UNL     1       8.013   5.301  13.088  0.00  0.00    +0.000 C 
ATOM     33  O   UNL     1       7.964   5.469  14.501  0.00  0.00    +0.000 OA
ENDBRANCH  26  33
ENDBRANCH  22  29
ENDBRANCH  21  24
ENDBRANCH  20  21
ENDBRANCH  19  20
ENDBRANCH  18  19
ENDBRANCH   1  18
TORSDOF 11
ENDMDL
