MODEL 1
REMARK VINA RESULT:      -7.6      0.000      0.000
REMARK  Name = 
REMARK  4 active torsions:
REMARK  status: ('A' for Active; 'I' for Inactive)
REMARK    1  A    between atoms: O_1  and  C_2
REMARK    2  A    between atoms: C_2  and  C_3
REMARK    3  A    between atoms: C_3  and  N_4
REMARK    4  A    between atoms: C_10  and  C_11
REMARK                            x       y       z     vdW  Elec       q    Type
REMARK                         _______ _______ _______ _____ _____    ______ ____
ROOT
ATOM      1  N   UNL     1      -0.496  11.670  19.753  0.00  0.00    +0.000 NA
ATOM      2  C   UNL     1       0.397  11.575  18.567  0.00  0.00    +0.000 C 
ATOM      3  C   UNL     1       1.681  10.735  18.777  0.00  0.00    +0.000 C 
ATOM      4  N   UNL     1       1.316   9.412  19.275  0.00  0.00    +0.000 N 
ATOM      5  C   UNL     1       2.063   8.316  18.923  0.00  0.00    +0.000 A 
ATOM      6  N   UNL     1       1.800   7.137  19.494  0.00  0.00    +0.000 NA
ATOM      7  C   UNL     1       2.428   6.023  19.039  0.00  0.00    +0.000 A 
ATOM      8  C   UNL     1       3.334   6.071  17.961  0.00  0.00    +0.000 A 
ATOM      9  C   UNL     1       3.981   4.977  17.319  0.00  0.00    +0.000 A 
ATOM     10  C   UNL     1       4.952   5.184  16.345  0.00  0.00    +0.000 A 
ATOM     11 BR   UNL     1       5.893   3.715  15.624  0.00  0.00    +0.000 Br
ATOM     12  C   UNL     1       5.244   6.472  15.928  0.00  0.00    +0.000 A 
ATOM     13  C   UNL     1       4.542   7.540  16.488  0.00  0.00    +0.000 A 
ATOM     14  C   UNL     1       3.595   7.363  17.492  0.00  0.00    +0.000 A 
ATOM     15  N   UNL     1       2.980   8.448  17.958  0.00  0.00    +0.000 NA
ATOM     16  C   UNL     1       0.446   9.371  20.446  0.00  0.00    +0.000 C 
ATOM     17  C   UNL     1      -0.782  10.291  20.222  0.00  0.00    +0.000 C 
ENDROOT
BRANCH   7  18
ATOM     18  C   UNL     1       2.072   4.794  19.806  0.00  0.00    +0.000 A 
ATOM     19  C   UNL     1       1.276   3.789  19.224  0.00  0.00    +0.000 A 
ATOM     20  C   UNL     1       0.944   2.618  19.915  0.00  0.00    +0.000 A 
ATOM     21  C   UNL     1       1.421   2.410  21.205  0.00  0.00    +0.000 A 
ATOM     22  C   UNL     1       2.181   3.396  21.821  0.00  0.00    +0.000 A 
ATOM     23  C   UNL     1       2.467   4.586  21.142  0.00  0.00    +0.000 A 
ENDBRANCH   7  18
BRANCH   1  24
ATOM     24  C   UNL     1       0.105  12.540  20.775  0.00  0.00    +0.000 C 
BRANCH  24  25
ATOM     25  C   UNL     1      -0.845  12.980  21.896  0.00  0.00    +0.000 C 
BRANCH  25  26
ATOM     26  O   UNL     1      -0.568  12.219  23.071  0.00  0.00    +0.000 OA
ATOM     27  H   UNL     1      -1.420  11.881  23.396  0.00  0.00    +0.000 HD
ENDBRANCH  25  26
ENDBRANCH  24  25
ENDBRANCH   1  24
TORSDOF 4
ENDMDL
MODEL 2
REMARK VINA RESULT:      -7.4      0.817      1.245
REMARK  Name = 
REMARK  4 active torsions:
REMARK  status: ('A' for Active; 'I' for Inactive)
REMARK    1  A    between atoms: O_1  and  C_2
REMARK    2  A    between atoms: C_2  and  C_3
REMARK    3  A    between atoms: C_3  and  N_4
REMARK    4  A    between atoms: C_10  and  C_11
REMARK                            x       y       z     vdW  Elec       q    Type
REMARK                         _______ _______ _______ _____ _____    ______ ____
ROOT
ATOM      1  N   UNL     1      -0.483  11.695  19.589  0.00  0.00    +0.000 NA
ATOM      2  C   UNL     1       0.424  11.584  18.415  0.00  0.00    +0.000 C 
ATOM      3  C   UNL     1       1.704  10.743  18.651  0.00  0.00    +0.000 C 
ATOM      4  N   UNL     1       1.329   9.426  19.161  0.00  0.00    +0.000 N 
ATOM      5  C   UNL     1       2.077   8.324  18.830  0.00  0.00    +0.000 A 
ATOM      6  N   UNL     1       1.804   7.153  19.412  0.00  0.00    +0.000 NA
ATOM      7  C   UNL     1       2.434   6.032  18.977  0.00  0.00    +0.000 A 
ATOM      8  C   UNL     1       3.353   6.066  17.910  0.00  0.00    +0.000 A 
ATOM      9  C   UNL     1       4.005   4.962  17.288  0.00  0.00    +0.000 A 
ATOM     10  C   UNL     1       4.989   5.155  16.324  0.00  0.00    +0.000 A 
ATOM     11 BR   UNL     1       5.935   3.675  15.632  0.00  0.00    +0.000 Br
ATOM     12  C   UNL     1       5.290   6.437  15.896  0.00  0.00    +0.000 A 
ATOM     13  C   UNL     1       4.584   7.514  16.436  0.00  0.00    +0.000 A 
ATOM     14  C   UNL     1       3.623   7.351  17.430  0.00  0.00    +0.000 A 
ATOM     15  N   UNL     1       3.006   8.443  17.875  0.00  0.00    +0.000 NA
ATOM     16  C   UNL     1       0.445   9.401  20.321  0.00  0.00    +0.000 C 
ATOM     17  C   UNL     1      -0.778  10.323  20.071  0.00  0.00    +0.000 C 
ENDROOT
BRANCH   7  18
ATOM     18  C   UNL     1       2.065   4.813  19.754  0.00  0.00    +0.000 A 
ATOM     19  C   UNL     1       2.565   4.612  21.054  0.00  0.00    +0.000 A 
ATOM     20  C   UNL     1       2.219   3.487  21.812  0.00  0.00    +0.000 A 
ATOM     21  C   UNL     1       1.342   2.540  21.294  0.00  0.00    +0.000 A 
ATOM     22  C   UNL     1       0.856   2.691  20.002  0.00  0.00    +0.000 A 
ATOM     23  C   UNL     1       1.245   3.793  19.233  0.00  0.00    +0.000 A 
ENDBRANCH   7  18
BRANCH   1  24
ATOM     24  C   UNL     1       0.108  12.575  20.609  0.00  0.00    +0.000 C 
BRANCH  24  25
ATOM     25  C   UNL     1      -0.623  13.907  20.823  0.00  0.00    +0.000 C 
BRANCH  25  26
ATOM     26  O   UNL     1      -1.638  14.048  19.831  0.00  0.00    +0.000 OA
ATOM     27  H   UNL     1      -2.281  13.333  19.981  0.00  0.00    +0.000 HD
ENDBRANCH  25  26
ENDBRANCH  24  25
ENDBRANCH   1  24
TORSDOF 4
ENDMDL
MODEL 3
REMARK VINA RESULT:      -7.0      2.239      4.605
REMARK  Name = 
REMARK  4 active torsions:
REMARK  status: ('A' for Active; 'I' for Inactive)
REMARK    1  A    between atoms: O_1  and  C_2
REMARK    2  A    between atoms: C_2  and  C_3
REMARK    3  A    between atoms: C_3  and  N_4
REMARK    4  A    between atoms: C_10  and  C_11
REMARK                            x       y       z     vdW  Elec       q    Type
REMARK                         _______ _______ _______ _____ _____    ______ ____
ROOT
ATOM      1  N   UNL     1       0.743  11.079  19.601  0.00  0.00    +0.000 NA
ATOM      2  C   UNL     1       0.674  10.053  20.677  0.00  0.00    +0.000 C 
ATOM      3  C   UNL     1       0.606   8.586  20.183  0.00  0.00    +0.000 C 
ATOM      4  N   UNL     1       1.720   8.331  19.275  0.00  0.00    +0.000 N 
ATOM      5  C   UNL     1       2.299   7.087  19.232  0.00  0.00    +0.000 A 
ATOM      6  N   UNL     1       3.224   6.830  18.302  0.00  0.00    +0.000 NA
ATOM      7  C   UNL     1       3.908   5.659  18.352  0.00  0.00    +0.000 A 
ATOM      8  C   UNL     1       3.687   4.715  19.374  0.00  0.00    +0.000 A 
ATOM      9  C   UNL     1       4.398   3.502  19.606  0.00  0.00    +0.000 A 
ATOM     10  C   UNL     1       3.987   2.600  20.582  0.00  0.00    +0.000 A 
ATOM     11 BR   UNL     1       4.863   0.937  20.759  0.00  0.00    +0.000 Br
ATOM     12  C   UNL     1       2.916   2.915  21.401  0.00  0.00    +0.000 A 
ATOM     13  C   UNL     1       2.278   4.146  21.239  0.00  0.00    +0.000 A 
ATOM     14  C   UNL     1       2.645   5.048  20.244  0.00  0.00    +0.000 A 
ATOM     15  N   UNL     1       1.974   6.196  20.175  0.00  0.00    +0.000 NA
ATOM     16  C   UNL     1       1.890   9.266  18.168  0.00  0.00    +0.000 C 
ATOM     17  C   UNL     1       1.868  10.723  18.701  0.00  0.00    +0.000 C 
ENDROOT
BRANCH   7  18
ATOM     18  C   UNL     1       4.868   5.493  17.222  0.00  0.00    +0.000 A 
ATOM     19  C   UNL     1       6.106   6.163  17.226  0.00  0.00    +0.000 A 
ATOM     20  C   UNL     1       7.032   6.009  16.188  0.00  0.00    +0.000 A 
ATOM     21  C   UNL     1       6.752   5.158  15.124  0.00  0.00    +0.000 A 
ATOM     22  C   UNL     1       5.527   4.507  15.073  0.00  0.00    +0.000 A 
ATOM     23  C   UNL     1       4.586   4.704  16.089  0.00  0.00    +0.000 A 
ENDBRANCH   7  18
BRANCH   1  24
ATOM     24  C   UNL     1      -0.556  11.193  18.921  0.00  0.00    +0.000 C 
BRANCH  24  25
ATOM     25  C   UNL     1      -0.966  12.620  18.535  0.00  0.00    +0.000 C 
BRANCH  25  26
ATOM     26  O   UNL     1      -1.212  12.672  17.130  0.00  0.00    +0.000 OA
ATOM     27  H   UNL     1      -2.112  12.331  16.989  0.00  0.00    +0.000 HD
ENDBRANCH  25  26
ENDBRANCH  24  25
ENDBRANCH   1  24
TORSDOF 4
ENDMDL
MODEL 4
REMARK VINA RESULT:      -6.8      2.217      4.543
REMARK  Name = 
REMARK  4 active torsions:
REMARK  status: ('A' for Active; 'I' for Inactive)
REMARK    1  A    between atoms: O_1  and  C_2
REMARK    2  A    between atoms: C_2  and  C_3
REMARK    3  A    between atoms: C_3  and  N_4
REMARK    4  A    between atoms: C_10  and  C_11
REMARK                            x       y       z     vdW  Elec       q    Type
REMARK                         _______ _______ _______ _____ _____    ______ ____
ROOT
ATOM      1  N   UNL     1       0.985  11.075  19.191  0.00  0.00    +0.000 NA
ATOM      2  C   UNL     1       0.878  10.093  20.303  0.00  0.00    +0.000 C 
ATOM      3  C   UNL     1       0.788   8.610  19.863  0.00  0.00    +0.000 C 
ATOM      4  N   UNL     1       1.912   8.298  18.984  0.00  0.00    +0.000 N 
ATOM      5  C   UNL     1       2.467   7.043  18.998  0.00  0.00    +0.000 A 
ATOM      6  N   UNL     1       3.401   6.733  18.094  0.00  0.00    +0.000 NA
ATOM      7  C   UNL     1       4.061   5.552  18.200  0.00  0.00    +0.000 A 
ATOM      8  C   UNL     1       3.805   4.651  19.252  0.00  0.00    +0.000 A 
ATOM      9  C   UNL     1       4.488   3.435  19.541  0.00  0.00    +0.000 A 
ATOM     10  C   UNL     1       4.043   2.579  20.543  0.00  0.00    +0.000 A 
ATOM     11 BR   UNL     1       4.882   0.907  20.797  0.00  0.00    +0.000 Br
ATOM     12  C   UNL     1       2.965   2.945  21.332  0.00  0.00    +0.000 A 
ATOM     13  C   UNL     1       2.355   4.181  21.113  0.00  0.00    +0.000 A 
ATOM     14  C   UNL     1       2.756   5.038  20.091  0.00  0.00    +0.000 A 
ATOM     15  N   UNL     1       2.108   6.195  19.968  0.00  0.00    +0.000 NA
ATOM     16  C   UNL     1       2.119   9.188  17.846  0.00  0.00    +0.000 C 
ATOM     17  C   UNL     1       2.117  10.664  18.324  0.00  0.00    +0.000 C 
ENDROOT
BRANCH   7  18
ATOM     18  C   UNL     1       5.036   5.325  17.093  0.00  0.00    +0.000 A 
ATOM     19  C   UNL     1       4.757   4.399  16.070  0.00  0.00    +0.000 A 
ATOM     20  C   UNL     1       5.646   4.181  15.010  0.00  0.00    +0.000 A 
ATOM     21  C   UNL     1       6.832   4.903  14.934  0.00  0.00    +0.000 A 
ATOM     22  C   UNL     1       7.153   5.800  15.945  0.00  0.00    +0.000 A 
ATOM     23  C   UNL     1       6.283   5.976  17.027  0.00  0.00    +0.000 A 
ENDBRANCH   7  18
BRANCH   1  24
ATOM     24  C   UNL     1      -0.301  11.189  18.485  0.00  0.00    +0.000 C 
BRANCH  24  25
ATOM     25  C   UNL     1      -0.824  12.620  18.311  0.00  0.00    +0.000 C 
BRANCH  25  26
ATOM     26  O   UNL     1      -2.230  12.578  18.072  0.00  0.00    +0.000 OA
ATOM     27  H   UNL     1      -2.366  12.830  17.142  0.00  0.00    +0.000 HD
ENDBRANCH  25  26
ENDBRANCH  24  25
ENDBRANCH   1  24
TORSDOF 4
ENDMDL
MODEL 5
REMARK VINA RESULT:      -6.6      4.180      7.137
REMARK  Name = 
REMARK  4 active torsions:
REMARK  status: ('A' for Active; 'I' for Inactive)
REMARK    1  A    between atoms: O_1  and  C_2
REMARK    2  A    between atoms: C_2  and  C_3
REMARK    3  A    between atoms: C_3  and  N_4
REMARK    4  A    between atoms: C_10  and  C_11
REMARK                            x       y       z     vdW  Elec       q    Type
REMARK                         _______ _______ _______ _____ _____    ______ ____
ROOT
ATOM      1  N   UNL     1       7.334   5.009  14.974  0.00  0.00    +0.000 NA
ATOM      2  C   UNL     1       6.925   6.414  15.243  0.00  0.00    +0.000 C 
ATOM      3  C   UNL     1       5.409   6.621  15.488  0.00  0.00    +0.000 C 
ATOM      4  N   UNL     1       4.965   5.724  16.551  0.00  0.00    +0.000 N 
ATOM      5  C   UNL     1       3.965   6.115  17.406  0.00  0.00    +0.000 A 
ATOM      6  N   UNL     1       3.476   5.235  18.284  0.00  0.00    +0.000 NA
ATOM      7  C   UNL     1       2.601   5.657  19.232  0.00  0.00    +0.000 A 
ATOM      8  C   UNL     1       2.210   7.007  19.330  0.00  0.00    +0.000 A 
ATOM      9  C   UNL     1       1.387   7.603  20.328  0.00  0.00    +0.000 A 
ATOM     10  C   UNL     1       0.979   8.930  20.229  0.00  0.00    +0.000 A 
ATOM     11 BR   UNL     1      -0.232   9.641  21.490  0.00  0.00    +0.000 Br
ATOM     12  C   UNL     1       1.442   9.715  19.186  0.00  0.00    +0.000 A 
ATOM     13  C   UNL     1       2.325   9.158  18.260  0.00  0.00    +0.000 A 
ATOM     14  C   UNL     1       2.718   7.824  18.315  0.00  0.00    +0.000 A 
ATOM     15  N   UNL     1       3.567   7.392  17.384  0.00  0.00    +0.000 NA
ATOM     16  C   UNL     1       5.299   4.312  16.399  0.00  0.00    +0.000 C 
ATOM     17  C   UNL     1       6.809   4.161  16.072  0.00  0.00    +0.000 C 
ENDROOT
BRANCH   7  18
ATOM     18  C   UNL     1       2.106   4.554  20.106  0.00  0.00    +0.000 A 
ATOM     19  C   UNL     1       1.038   3.735  19.692  0.00  0.00    +0.000 A 
ATOM     20  C   UNL     1       0.567   2.681  20.484  0.00  0.00    +0.000 A 
ATOM     21  C   UNL     1       1.169   2.404  21.707  0.00  0.00    +0.000 A 
ATOM     22  C   UNL     1       2.203   3.213  22.159  0.00  0.00    +0.000 A 
ATOM     23  C   UNL     1       2.636   4.295  21.385  0.00  0.00    +0.000 A 
ENDBRANCH   7  18
BRANCH   1  24
ATOM     24  C   UNL     1       6.892   4.597  13.633  0.00  0.00    +0.000 C 
BRANCH  24  25
ATOM     25  C   UNL     1       7.759   5.108  12.475  0.00  0.00    +0.000 C 
BRANCH  25  26
ATOM     26  O   UNL     1       8.779   5.960  12.995  0.00  0.00    +0.000 OA
ATOM     27  H   UNL     1       8.630   6.024  13.954  0.00  0.00    +0.000 HD
ENDBRANCH  25  26
ENDBRANCH  24  25
ENDBRANCH   1  24
TORSDOF 4
ENDMDL
MODEL 6
REMARK VINA RESULT:      -6.3      1.912      4.442
REMARK  Name = 
REMARK  4 active torsions:
REMARK  status: ('A' for Active; 'I' for Inactive)
REMARK    1  A    between atoms: O_1  and  C_2
REMARK    2  A    between atoms: C_2  and  C_3
REMARK    3  A    between atoms: C_3  and  N_4
REMARK    4  A    between atoms: C_10  and  C_11
REMARK                            x       y       z     vdW  Elec       q    Type
REMARK                         _______ _______ _______ _____ _____    ______ ____
ROOT
ATOM      1  N   UNL     1       0.969  12.100  19.141  0.00  0.00    +0.000 NA
ATOM      2  C   UNL     1       0.649  11.087  20.182  0.00  0.00    +0.000 C 
ATOM      3  C   UNL     1       0.526   9.631  19.667  0.00  0.00    +0.000 C 
ATOM      4  N   UNL     1       1.737   9.275  18.933  0.00  0.00    +0.000 N 
ATOM      5  C   UNL     1       2.204   7.985  18.962  0.00  0.00    +0.000 A 
ATOM      6  N   UNL     1       3.231   7.645  18.178  0.00  0.00    +0.000 NA
ATOM      7  C   UNL     1       3.794   6.418  18.317  0.00  0.00    +0.000 A 
ATOM      8  C   UNL     1       3.340   5.499  19.283  0.00  0.00    +0.000 A 
ATOM      9  C   UNL     1       3.899   4.228  19.604  0.00  0.00    +0.000 A 
ATOM     10  C   UNL     1       3.268   3.368  20.497  0.00  0.00    +0.000 A 
ATOM     11 BR   UNL     1       3.957   1.634  20.784  0.00  0.00    +0.000 Br
ATOM     12  C   UNL     1       2.118   3.779  21.151  0.00  0.00    +0.000 A 
ATOM     13  C   UNL     1       1.623   5.061  20.909  0.00  0.00    +0.000 A 
ATOM     14  C   UNL     1       2.213   5.925  19.991  0.00  0.00    +0.000 A 
ATOM     15  N   UNL     1       1.663   7.129  19.836  0.00  0.00    +0.000 NA
ATOM     16  C   UNL     1       2.153  10.190  17.874  0.00  0.00    +0.000 C 
ATOM     17  C   UNL     1       2.180  11.644  18.415  0.00  0.00    +0.000 C 
ENDROOT
BRANCH   7  18
ATOM     18  C   UNL     1       4.894   6.165  17.341  0.00  0.00    +0.000 A 
ATOM     19  C   UNL     1       6.214   6.562  17.627  0.00  0.00    +0.000 A 
ATOM     20  C   UNL     1       7.268   6.319  16.738  0.00  0.00    +0.000 A 
ATOM     21  C   UNL     1       7.030   5.648  15.542  0.00  0.00    +0.000 A 
ATOM     22  C   UNL     1       5.735   5.272  15.214  0.00  0.00    +0.000 A 
ATOM     23  C   UNL     1       4.679   5.563  16.086  0.00  0.00    +0.000 A 
ENDBRANCH   7  18
BRANCH   1  24
ATOM     24  C   UNL     1      -0.199  12.328  18.276  0.00  0.00    +0.000 C 
BRANCH  24  25
ATOM     25  C   UNL     1      -1.539  12.458  19.011  0.00  0.00    +0.000 C 
BRANCH  25  26
ATOM     26  O   UNL     1      -1.664  13.783  19.526  0.00  0.00    +0.000 OA
ATOM     27  H   UNL     1      -2.580  14.065  19.359  0.00  0.00    +0.000 HD
ENDBRANCH  25  26
ENDBRANCH  24  25
ENDBRANCH   1  24
TORSDOF 4
ENDMDL
MODEL 7
REMARK VINA RESULT:      -6.2      7.290     10.448
REMARK  Name = 
REMARK  4 active torsions:
REMARK  status: ('A' for Active; 'I' for Inactive)
REMARK    1  A    between atoms: O_1  and  C_2
REMARK    2  A    between atoms: C_2  and  C_3
REMARK    3  A    between atoms: C_3  and  N_4
REMARK    4  A    between atoms: C_10  and  C_11
REMARK                            x       y       z     vdW  Elec       q    Type
REMARK                         _______ _______ _______ _____ _____    ______ ____
ROOT
ATOM      1  N   UNL     1      -2.818  10.090  16.610  0.00  0.00    +0.000 NA
ATOM      2  C   UNL     1      -1.611  10.545  17.350  0.00  0.00    +0.000 C 
ATOM      3  C   UNL     1      -1.736  11.937  18.019  0.00  0.00    +0.000 C 
ATOM      4  N   UNL     1      -2.922  11.958  18.870  0.00  0.00    +0.000 N 
ATOM      5  C   UNL     1      -2.926  12.701  20.024  0.00  0.00    +0.000 A 
ATOM      6  N   UNL     1      -4.060  12.820  20.720  0.00  0.00    +0.000 NA
ATOM      7  C   UNL     1      -4.034  13.421  21.936  0.00  0.00    +0.000 A 
ATOM      8  C   UNL     1      -2.835  13.902  22.499  0.00  0.00    +0.000 A 
ATOM      9  C   UNL     1      -2.645  14.456  23.798  0.00  0.00    +0.000 A 
ATOM     10  C   UNL     1      -1.426  15.010  24.174  0.00  0.00    +0.000 A 
ATOM     11 BR   UNL     1      -1.256  15.868  25.847  0.00  0.00    +0.000 Br
ATOM     12  C   UNL     1      -0.348  14.953  23.307  0.00  0.00    +0.000 A 
ATOM     13  C   UNL     1      -0.506  14.325  22.070  0.00  0.00    +0.000 A 
ATOM     14  C   UNL     1      -1.726  13.799  21.654  0.00  0.00    +0.000 A 
ATOM     15  N   UNL     1      -1.770  13.217  20.457  0.00  0.00    +0.000 NA
ATOM     16  C   UNL     1      -4.177  11.540  18.255  0.00  0.00    +0.000 C 
ATOM     17  C   UNL     1      -3.980  10.183  17.527  0.00  0.00    +0.000 C 
ENDROOT
BRANCH   7  18
ATOM     18  C   UNL     1      -5.381  13.525  22.568  0.00  0.00    +0.000 A 
ATOM     19  C   UNL     1      -5.772  12.625  23.578  0.00  0.00    +0.000 A 
ATOM     20  C   UNL     1      -7.023  12.713  24.201  0.00  0.00    +0.000 A 
ATOM     21  C   UNL     1      -7.911  13.723  23.843  0.00  0.00    +0.000 A 
ATOM     22  C   UNL     1      -7.569  14.607  22.828  0.00  0.00    +0.000 A 
ATOM     23  C   UNL     1      -6.338  14.482  22.176  0.00  0.00    +0.000 A 
ENDBRANCH   7  18
BRANCH   1  24
ATOM     24  C   UNL     1      -2.973  10.858  15.365  0.00  0.00    +0.000 C 
BRANCH  24  25
ATOM     25  C   UNL     1      -3.502  10.059  14.167  0.00  0.00    +0.000 C 
BRANCH  25  26
ATOM     26  O   UNL     1      -2.419   9.767  13.284  0.00  0.00    +0.000 OA
ATOM     27  H   UNL     1      -2.444   8.809  13.115  0.00  0.00    +0.000 HD
ENDBRANCH  25  26
ENDBRANCH  24  25
ENDBRANCH   1  24
TORSDOF 4
ENDMDL
MODEL 8
REMARK VINA RESULT:      -6.1      2.138      4.500
REMARK  Name = 
REMARK  4 active torsions:
REMARK  status: ('A' for Active; 'I' for Inactive)
REMARK    1  A    between atoms: O_1  and  C_2
REMARK    2  A    between atoms: C_2  and  C_3
REMARK    3  A    between atoms: C_3  and  N_4
REMARK    4  A    between atoms: C_10  and  C_11
REMARK                            x       y       z     vdW  Elec       q    Type
REMARK                         _______ _______ _______ _____ _____    ______ ____
ROOT
ATOM      1  N   UNL     1       0.240  10.886  20.758  0.00  0.00    +0.000 NA
ATOM      2  C   UNL     1       0.152   9.707  21.661  0.00  0.00    +0.000 C 
ATOM      3  C   UNL     1       0.195   8.331  20.951  0.00  0.00    +0.000 C 
ATOM      4  N   UNL     1       1.381   8.264  20.101  0.00  0.00    +0.000 N 
ATOM      5  C   UNL     1       2.026   7.067  19.917  0.00  0.00    +0.000 A 
ATOM      6  N   UNL     1       3.025   6.994  19.031  0.00  0.00    +0.000 NA
ATOM      7  C   UNL     1       3.765   5.859  18.958  0.00  0.00    +0.000 A 
ATOM      8  C   UNL     1       3.526   4.761  19.808  0.00  0.00    +0.000 A 
ATOM      9  C   UNL     1       4.283   3.558  19.909  0.00  0.00    +0.000 A 
ATOM     10  C   UNL     1       3.854   2.502  20.706  0.00  0.00    +0.000 A 
ATOM     11 BR   UNL     1       4.803   0.870  20.699  0.00  0.00    +0.000 Br
ATOM     12  C   UNL     1       2.715   2.643  21.481  0.00  0.00    +0.000 A 
ATOM     13  C   UNL     1       2.025   3.856  21.456  0.00  0.00    +0.000 A 
ATOM     14  C   UNL     1       2.411   4.914  20.637  0.00  0.00    +0.000 A 
ATOM     15  N   UNL     1       1.685   6.030  20.690  0.00  0.00    +0.000 NA
ATOM     16  C   UNL     1       1.576   9.363  19.162  0.00  0.00    +0.000 C 
ATOM     17  C   UNL     1       1.441  10.720  19.903  0.00  0.00    +0.000 C 
ENDROOT
BRANCH   7  18
ATOM     18  C   UNL     1       4.807   5.907  17.891  0.00  0.00    +0.000 A 
ATOM     19  C   UNL     1       4.461   5.719  16.540  0.00  0.00    +0.000 A 
ATOM     20  C   UNL     1       5.416   5.778  15.517  0.00  0.00    +0.000 A 
ATOM     21  C   UNL     1       6.745   6.052  15.820  0.00  0.00    +0.000 A 
ATOM     22  C   UNL     1       7.126   6.210  17.146  0.00  0.00    +0.000 A 
ATOM     23  C   UNL     1       6.175   6.100  18.166  0.00  0.00    +0.000 A 
ENDBRANCH   7  18
BRANCH   1  24
ATOM     24  C   UNL     1      -1.014  11.049  20.008  0.00  0.00    +0.000 C 
BRANCH  24  25
ATOM     25  C   UNL     1      -0.970  12.090  18.882  0.00  0.00    +0.000 C 
BRANCH  25  26
ATOM     26  O   UNL     1      -0.999  11.418  17.623  0.00  0.00    +0.000 OA
ATOM     27  H   UNL     1      -1.710  11.828  17.101  0.00  0.00    +0.000 HD
ENDBRANCH  25  26
ENDBRANCH  24  25
ENDBRANCH   1  24
TORSDOF 4
ENDMDL
MODEL 9
REMARK VINA RESULT:      -5.9      7.335     10.492
REMARK  Name = 
REMARK  4 active torsions:
REMARK  status: ('A' for Active; 'I' for Inactive)
REMARK    1  A    between atoms: O_1  and  C_2
REMARK    2  A    between atoms: C_2  and  C_3
REMARK    3  A    between atoms: C_3  and  N_4
REMARK    4  A    between atoms: C_10  and  C_11
REMARK                            x       y       z     vdW  Elec       q    Type
REMARK                         _______ _______ _______ _____ _____    ______ ____
ROOT
ATOM      1  N   UNL     1      -3.009   9.990  16.646  0.00  0.00    +0.000 NA
ATOM      2  C   UNL     1      -1.775  10.439  17.344  0.00  0.00    +0.000 C 
ATOM      3  C   UNL     1      -1.852  11.853  17.972  0.00  0.00    +0.000 C 
ATOM      4  N   UNL     1      -3.017  11.928  18.849  0.00  0.00    +0.000 N 
ATOM      5  C   UNL     1      -2.976  12.706  19.979  0.00  0.00    +0.000 A 
ATOM      6  N   UNL     1      -4.091  12.874  20.697  0.00  0.00    +0.000 NA
ATOM      7  C   UNL     1      -4.021  13.510  21.893  0.00  0.00    +0.000 A 
ATOM      8  C   UNL     1      -2.799  13.980  22.413  0.00  0.00    +0.000 A 
ATOM      9  C   UNL     1      -2.566  14.569  23.689  0.00  0.00    +0.000 A 
ATOM     10  C   UNL     1      -1.325  15.104  24.020  0.00  0.00    +0.000 A 
ATOM     11 BR   UNL     1      -1.096  16.009  25.661  0.00  0.00    +0.000 Br
ATOM     12  C   UNL     1      -0.270  14.996  23.130  0.00  0.00    +0.000 A 
ATOM     13  C   UNL     1      -0.472  14.333  21.918  0.00  0.00    +0.000 A 
ATOM     14  C   UNL     1      -1.713  13.824  21.546  0.00  0.00    +0.000 A 
ATOM     15  N   UNL     1      -1.799  13.208  20.369  0.00  0.00    +0.000 NA
ATOM     16  C   UNL     1      -4.295  11.521  18.276  0.00  0.00    +0.000 C 
ATOM     17  C   UNL     1      -4.147  10.139  17.587  0.00  0.00    +0.000 C 
ENDROOT
BRANCH   7  18
ATOM     18  C   UNL     1      -5.351  13.666  22.552  0.00  0.00    +0.000 A 
ATOM     19  C   UNL     1      -6.150  14.797  22.299  0.00  0.00    +0.000 A 
ATOM     20  C   UNL     1      -7.410  14.958  22.889  0.00  0.00    +0.000 A 
ATOM     21  C   UNL     1      -7.914  13.976  23.735  0.00  0.00    +0.000 A 
ATOM     22  C   UNL     1      -7.138  12.863  24.031  0.00  0.00    +0.000 A 
ATOM     23  C   UNL     1      -5.860  12.733  23.477  0.00  0.00    +0.000 A 
ENDBRANCH   7  18
BRANCH   1  24
ATOM     24  C   UNL     1      -3.175  10.723  15.382  0.00  0.00    +0.000 C 
BRANCH  24  25
ATOM     25  C   UNL     1      -2.929   9.897  14.113  0.00  0.00    +0.000 C 
BRANCH  25  26
ATOM     26  O   UNL     1      -3.802  10.355  13.081  0.00  0.00    +0.000 OA
ATOM     27  H   UNL     1      -3.408  11.167  12.718  0.00  0.00    +0.000 HD
ENDBRANCH  25  26
ENDBRANCH  24  25
ENDBRANCH   1  24
TORSDOF 4
ENDMDL
