MODEL 1
REMARK VINA RESULT:      -7.9      0.000      0.000
REMARK  Name = 
REMARK  8 active torsions:
REMARK  status: ('A' for Active; 'I' for Inactive)
REMARK    1  A    between atoms: C_1  and  O_2
REMARK    2  A    between atoms: O_2  and  C_3
REMARK    3  A    between atoms: C_3  and  C_5
REMARK    4  A    between atoms: C_8  and  C_9
REMARK    5  A    between atoms: N_10  and  N_11
REMARK    6  A    between atoms: C_12  and  C_14
REMARK    7  A    between atoms: C_16  and  C_17
REMARK    8  A    between atoms: C_21  and  N_22
REMARK                            x       y       z     vdW  Elec       q    Type
REMARK                         _______ _______ _______ _____ _____    ______ ____
ROOT
ATOM      1  N   UNL     1       2.661   6.705  18.663  0.00  0.00    +0.000 N 
ATOM      2  C   UNL     1       3.485   5.662  19.105  0.00  0.00    +0.000 C 
ATOM      3  O   UNL     1       3.602   5.330  20.283  0.00  0.00    +0.000 OA
ATOM      4  H   UNL     1       2.574   6.929  17.679  0.00  0.00    +0.000 HD
ENDROOT
BRANCH   2   5
ATOM      5  C   UNL     1       4.224   4.944  18.036  0.00  0.00    +0.000 A 
ATOM      6  C   UNL     1       4.460   5.407  16.705  0.00  0.00    +0.000 A 
ATOM      7  C   UNL     1       5.232   4.439  16.088  0.00  0.00    +0.000 A 
ATOM      8  N   UNL     1       5.399   3.477  17.047  0.00  0.00    +0.000 N 
ATOM      9  N   UNL     1       4.793   3.735  18.208  0.00  0.00    +0.000 NA
ATOM     10  H   UNL     1       5.939   2.623  16.979  0.00  0.00    +0.000 HD
BRANCH   7  11
ATOM     11  C   UNL     1       5.841   4.353  14.764  0.00  0.00    +0.000 A 
ATOM     12  C   UNL     1       6.982   5.106  14.455  0.00  0.00    +0.000 A 
ATOM     13  C   UNL     1       7.588   5.012  13.197  0.00  0.00    +0.000 A 
ATOM     14  C   UNL     1       7.055   4.166  12.225  0.00  0.00    +0.000 A 
ATOM     15  C   UNL     1       5.914   3.416  12.523  0.00  0.00    +0.000 A 
ATOM     16  C   UNL     1       5.308   3.502  13.784  0.00  0.00    +0.000 A 
BRANCH  15  17
ATOM     17  N   UNL     1       5.340   2.528  11.505  0.00  0.00    +0.000 N 
ATOM     18  O   UNL     1       6.008   1.547  11.149  0.00  0.00    +0.000 OA
ATOM     19  O   UNL     1       4.215   2.808  11.066  0.00  0.00    +0.000 OA
ENDBRANCH  15  17
ENDBRANCH   7  11
ENDBRANCH   2   5
BRANCH   1  21
ATOM     20  C   UNL     1       1.770   8.687  19.310  0.00  0.00    +0.000 C 
ATOM     21  N   UNL     1       1.937   7.429  19.567  0.00  0.00    +0.000 NA
BRANCH  20  25
ATOM     22  C   UNL     1      -0.464  11.183  21.987  0.00  0.00    +0.000 A 
ATOM     23  C   UNL     1       0.105  11.720  20.825  0.00  0.00    +0.000 A 
ATOM     24  C   UNL     1       0.831  10.905  19.954  0.00  0.00    +0.000 A 
ATOM     25  C   UNL     1       0.996   9.545  20.236  0.00  0.00    +0.000 A 
ATOM     26  C   UNL     1       0.430   8.998  21.391  0.00  0.00    +0.000 A 
ATOM     27  C   UNL     1      -0.296   9.818  22.267  0.00  0.00    +0.000 A 
BRANCH  22  28
ATOM     28  C   UNL     1      -1.241  12.097  22.871  0.00  0.00    +0.000 C 
ATOM     29  O   UNL     1      -0.918  13.254  23.093  0.00  0.00    +0.000 OA
BRANCH  28  31
ATOM     30  C   UNL     1      -3.421  12.343  23.672  0.00  0.00    +0.000 C 
ATOM     31  O   UNL     1      -2.331  11.467  23.377  0.00  0.00    +0.000 OA
ENDBRANCH  28  31
ENDBRANCH  22  28
ENDBRANCH  20  25
ENDBRANCH   1  21
TORSDOF 7
ENDMDL
MODEL 2
REMARK VINA RESULT:      -7.8      3.135      5.233
REMARK  Name = 
REMARK  8 active torsions:
REMARK  status: ('A' for Active; 'I' for Inactive)
REMARK    1  A    between atoms: C_1  and  O_2
REMARK    2  A    between atoms: O_2  and  C_3
REMARK    3  A    between atoms: C_3  and  C_5
REMARK    4  A    between atoms: C_8  and  C_9
REMARK    5  A    between atoms: N_10  and  N_11
REMARK    6  A    between atoms: C_12  and  C_14
REMARK    7  A    between atoms: C_16  and  C_17
REMARK    8  A    between atoms: C_21  and  N_22
REMARK                            x       y       z     vdW  Elec       q    Type
REMARK                         _______ _______ _______ _____ _____    ______ ____
ROOT
ATOM      1  N   UNL     1       0.572   9.996  21.785  0.00  0.00    +0.000 N 
ATOM      2  C   UNL     1       0.843   9.784  20.428  0.00  0.00    +0.000 C 
ATOM      3  O   UNL     1       0.613  10.608  19.544  0.00  0.00    +0.000 OA
ATOM      4  H   UNL     1       0.802   9.300  22.485  0.00  0.00    +0.000 HD
ENDROOT
BRANCH   2   5
ATOM      5  C   UNL     1       1.457   8.472  20.102  0.00  0.00    +0.000 A 
ATOM      6  C   UNL     1       2.053   8.095  18.859  0.00  0.00    +0.000 A 
ATOM      7  C   UNL     1       2.537   6.812  19.033  0.00  0.00    +0.000 A 
ATOM      8  N   UNL     1       2.205   6.497  20.323  0.00  0.00    +0.000 N 
ATOM      9  N   UNL     1       1.542   7.452  20.979  0.00  0.00    +0.000 NA
ATOM     10  H   UNL     1       2.424   5.646  20.828  0.00  0.00    +0.000 HD
BRANCH   7  11
ATOM     11  C   UNL     1       3.289   5.910  18.165  0.00  0.00    +0.000 A 
ATOM     12  C   UNL     1       2.863   4.590  17.970  0.00  0.00    +0.000 A 
ATOM     13  C   UNL     1       3.562   3.725  17.121  0.00  0.00    +0.000 A 
ATOM     14  C   UNL     1       4.706   4.169  16.458  0.00  0.00    +0.000 A 
ATOM     15  C   UNL     1       5.142   5.483  16.652  0.00  0.00    +0.000 A 
ATOM     16  C   UNL     1       4.440   6.354  17.497  0.00  0.00    +0.000 A 
BRANCH  15  17
ATOM     17  N   UNL     1       6.349   5.959  15.966  0.00  0.00    +0.000 N 
ATOM     18  O   UNL     1       6.488   5.666  14.770  0.00  0.00    +0.000 OA
ATOM     19  O   UNL     1       7.156   6.632  16.623  0.00  0.00    +0.000 OA
ENDBRANCH  15  17
ENDBRANCH   7  11
ENDBRANCH   2   5
BRANCH   1  21
ATOM     20  C   UNL     1      -1.169  11.100  22.727  0.00  0.00    +0.000 C 
ATOM     21  N   UNL     1       0.008  11.171  22.191  0.00  0.00    +0.000 NA
BRANCH  20  25
ATOM     22  C   UNL     1      -3.164  14.647  24.082  0.00  0.00    +0.000 A 
ATOM     23  C   UNL     1      -3.849  13.426  24.022  0.00  0.00    +0.000 A 
ATOM     24  C   UNL     1      -3.197  12.272  23.582  0.00  0.00    +0.000 A 
ATOM     25  C   UNL     1      -1.853  12.327  23.197  0.00  0.00    +0.000 A 
ATOM     26  C   UNL     1      -1.159  13.538  23.255  0.00  0.00    +0.000 A 
ATOM     27  C   UNL     1      -1.816  14.697  23.694  0.00  0.00    +0.000 A 
BRANCH  22  28
ATOM     28  C   UNL     1      -3.906  15.841  24.575  0.00  0.00    +0.000 C 
ATOM     29  O   UNL     1      -3.386  16.738  25.220  0.00  0.00    +0.000 OA
BRANCH  28  31
ATOM     30  C   UNL     1      -5.557  16.678  23.152  0.00  0.00    +0.000 C 
ATOM     31  O   UNL     1      -5.211  15.781  24.209  0.00  0.00    +0.000 OA
ENDBRANCH  28  31
ENDBRANCH  22  28
ENDBRANCH  20  25
ENDBRANCH   1  21
TORSDOF 7
ENDMDL
MODEL 3
REMARK VINA RESULT:      -7.7      3.135      5.262
REMARK  Name = 
REMARK  8 active torsions:
REMARK  status: ('A' for Active; 'I' for Inactive)
REMARK    1  A    between atoms: C_1  and  O_2
REMARK    2  A    between atoms: O_2  and  C_3
REMARK    3  A    between atoms: C_3  and  C_5
REMARK    4  A    between atoms: C_8  and  C_9
REMARK    5  A    between atoms: N_10  and  N_11
REMARK    6  A    between atoms: C_12  and  C_14
REMARK    7  A    between atoms: C_16  and  C_17
REMARK    8  A    between atoms: C_21  and  N_22
REMARK                            x       y       z     vdW  Elec       q    Type
REMARK                         _______ _______ _______ _____ _____    ______ ____
ROOT
ATOM      1  N   UNL     1       0.530   9.656  22.231  0.00  0.00    +0.000 N 
ATOM      2  C   UNL     1       0.882   9.584  20.877  0.00  0.00    +0.000 C 
ATOM      3  O   UNL     1       0.786  10.525  20.091  0.00  0.00    +0.000 OA
ATOM      4  H   UNL     1       0.649   8.864  22.851  0.00  0.00    +0.000 HD
ENDROOT
BRANCH   2   5
ATOM      5  C   UNL     1       1.409   8.270  20.430  0.00  0.00    +0.000 A 
ATOM      6  C   UNL     1       2.070   7.993  19.194  0.00  0.00    +0.000 A 
ATOM      7  C   UNL     1       2.429   6.658  19.235  0.00  0.00    +0.000 A 
ATOM      8  N   UNL     1       1.967   6.221  20.448  0.00  0.00    +0.000 N 
ATOM      9  N   UNL     1       1.335   7.147  21.172  0.00  0.00    +0.000 NA
ATOM     10  H   UNL     1       2.072   5.299  20.853  0.00  0.00    +0.000 HD
BRANCH   7  11
ATOM     11  C   UNL     1       3.171   5.803  18.314  0.00  0.00    +0.000 A 
ATOM     12  C   UNL     1       2.763   4.483  18.083  0.00  0.00    +0.000 A 
ATOM     13  C   UNL     1       3.452   3.663  17.183  0.00  0.00    +0.000 A 
ATOM     14  C   UNL     1       4.569   4.151  16.505  0.00  0.00    +0.000 A 
ATOM     15  C   UNL     1       4.987   5.465  16.734  0.00  0.00    +0.000 A 
ATOM     16  C   UNL     1       4.294   6.292  17.630  0.00  0.00    +0.000 A 
BRANCH  15  17
ATOM     17  N   UNL     1       6.165   5.987  16.032  0.00  0.00    +0.000 N 
ATOM     18  O   UNL     1       6.905   6.768  16.647  0.00  0.00    +0.000 OA
ATOM     19  O   UNL     1       6.354   5.610  14.867  0.00  0.00    +0.000 OA
ENDBRANCH  15  17
ENDBRANCH   7  11
ENDBRANCH   2   5
BRANCH   1  21
ATOM     20  C   UNL     1      -1.247  10.987  22.687  0.00  0.00    +0.000 C 
ATOM     21  N   UNL     1       0.036  10.821  22.743  0.00  0.00    +0.000 NA
BRANCH  20  25
ATOM     22  C   UNL     1      -3.030  14.564  24.244  0.00  0.00    +0.000 A 
ATOM     23  C   UNL     1      -1.712  14.576  23.769  0.00  0.00    +0.000 A 
ATOM     24  C   UNL     1      -1.134  13.411  23.261  0.00  0.00    +0.000 A 
ATOM     25  C   UNL     1      -1.868  12.221  23.223  0.00  0.00    +0.000 A 
ATOM     26  C   UNL     1      -3.184  12.197  23.692  0.00  0.00    +0.000 A 
ATOM     27  C   UNL     1      -3.762  13.368  24.205  0.00  0.00    +0.000 A 
BRANCH  22  28
ATOM     28  C   UNL     1      -3.598  15.841  24.760  0.00  0.00    +0.000 C 
ATOM     29  O   UNL     1      -4.765  16.169  24.606  0.00  0.00    +0.000 OA
BRANCH  28  31
ATOM     30  C   UNL     1      -2.849  17.977  25.334  0.00  0.00    +0.000 C 
ATOM     31  O   UNL     1      -2.650  16.564  25.407  0.00  0.00    +0.000 OA
ENDBRANCH  28  31
ENDBRANCH  22  28
ENDBRANCH  20  25
ENDBRANCH   1  21
TORSDOF 7
ENDMDL
MODEL 4
REMARK VINA RESULT:      -7.7      4.404     12.091
REMARK  Name = 
REMARK  8 active torsions:
REMARK  status: ('A' for Active; 'I' for Inactive)
REMARK    1  A    between atoms: C_1  and  O_2
REMARK    2  A    between atoms: O_2  and  C_3
REMARK    3  A    between atoms: C_3  and  C_5
REMARK    4  A    between atoms: C_8  and  C_9
REMARK    5  A    between atoms: N_10  and  N_11
REMARK    6  A    between atoms: C_12  and  C_14
REMARK    7  A    between atoms: C_16  and  C_17
REMARK    8  A    between atoms: C_21  and  N_22
REMARK                            x       y       z     vdW  Elec       q    Type
REMARK                         _______ _______ _______ _____ _____    ______ ____
ROOT
ATOM      1  N   UNL     1       0.866   9.798  17.757  0.00  0.00    +0.000 N 
ATOM      2  C   UNL     1       0.806  10.939  18.567  0.00  0.00    +0.000 C 
ATOM      3  O   UNL     1       1.778  11.424  19.145  0.00  0.00    +0.000 OA
ATOM      4  H   UNL     1       0.045   9.447  17.278  0.00  0.00    +0.000 HD
ENDROOT
BRANCH   2   5
ATOM      5  C   UNL     1      -0.536  11.562  18.685  0.00  0.00    +0.000 A 
ATOM      6  C   UNL     1      -1.795  10.888  18.644  0.00  0.00    +0.000 A 
ATOM      7  C   UNL     1      -2.762  11.856  18.847  0.00  0.00    +0.000 A 
ATOM      8  N   UNL     1      -2.053  13.019  18.980  0.00  0.00    +0.000 N 
ATOM      9  N   UNL     1      -0.730  12.884  18.865  0.00  0.00    +0.000 NA
ATOM     10  H   UNL     1      -2.414  13.945  19.175  0.00  0.00    +0.000 HD
BRANCH   7  11
ATOM     11  C   UNL     1      -4.215  11.794  18.971  0.00  0.00    +0.000 A 
ATOM     12  C   UNL     1      -4.995  11.252  17.940  0.00  0.00    +0.000 A 
ATOM     13  C   UNL     1      -6.386  11.166  18.059  0.00  0.00    +0.000 A 
ATOM     14  C   UNL     1      -7.020  11.629  19.212  0.00  0.00    +0.000 A 
ATOM     15  C   UNL     1      -6.251  12.176  20.242  0.00  0.00    +0.000 A 
ATOM     16  C   UNL     1      -4.855  12.258  20.130  0.00  0.00    +0.000 A 
BRANCH  15  17
ATOM     17  N   UNL     1      -6.908  12.674  21.457  0.00  0.00    +0.000 N 
ATOM     18  O   UNL     1      -6.978  11.911  22.431  0.00  0.00    +0.000 OA
ATOM     19  O   UNL     1      -7.348  13.833  21.439  0.00  0.00    +0.000 OA
ENDBRANCH  15  17
ENDBRANCH   7  11
ENDBRANCH   2   5
BRANCH   1  21
ATOM     20  C   UNL     1       2.149   7.957  18.079  0.00  0.00    +0.000 C 
ATOM     21  N   UNL     1       2.055   9.150  17.583  0.00  0.00    +0.000 NA
BRANCH  20  25
ATOM     22  C   UNL     1       5.777   5.707  17.671  0.00  0.00    +0.000 A 
ATOM     23  C   UNL     1       4.795   5.311  18.588  0.00  0.00    +0.000 A 
ATOM     24  C   UNL     1       3.614   6.044  18.718  0.00  0.00    +0.000 A 
ATOM     25  C   UNL     1       3.402   7.182  17.933  0.00  0.00    +0.000 A 
ATOM     26  C   UNL     1       4.373   7.585  17.012  0.00  0.00    +0.000 A 
ATOM     27  C   UNL     1       5.561   6.850  16.885  0.00  0.00    +0.000 A 
BRANCH  22  28
ATOM     28  C   UNL     1       7.010   4.877  17.565  0.00  0.00    +0.000 C 
ATOM     29  O   UNL     1       7.613   4.440  18.533  0.00  0.00    +0.000 OA
BRANCH  28  31
ATOM     30  C   UNL     1       6.432   3.867  15.541  0.00  0.00    +0.000 C 
ATOM     31  O   UNL     1       7.351   4.686  16.266  0.00  0.00    +0.000 OA
ENDBRANCH  28  31
ENDBRANCH  22  28
ENDBRANCH  20  25
ENDBRANCH   1  21
TORSDOF 7
ENDMDL
MODEL 5
REMARK VINA RESULT:      -7.6      3.157      4.897
REMARK  Name = 
REMARK  8 active torsions:
REMARK  status: ('A' for Active; 'I' for Inactive)
REMARK    1  A    between atoms: C_1  and  O_2
REMARK    2  A    between atoms: O_2  and  C_3
REMARK    3  A    between atoms: C_3  and  C_5
REMARK    4  A    between atoms: C_8  and  C_9
REMARK    5  A    between atoms: N_10  and  N_11
REMARK    6  A    between atoms: C_12  and  C_14
REMARK    7  A    between atoms: C_16  and  C_17
REMARK    8  A    between atoms: C_21  and  N_22
REMARK                            x       y       z     vdW  Elec       q    Type
REMARK                         _______ _______ _______ _____ _____    ______ ____
ROOT
ATOM      1  N   UNL     1      -0.103   9.348  21.062  0.00  0.00    +0.000 N 
ATOM      2  C   UNL     1       0.884   9.463  20.076  0.00  0.00    +0.000 C 
ATOM      3  O   UNL     1       1.139  10.506  19.476  0.00  0.00    +0.000 OA
ATOM      4  H   UNL     1      -0.262   8.475  21.551  0.00  0.00    +0.000 HD
ENDROOT
BRANCH   2   5
ATOM      5  C   UNL     1       1.644   8.219  19.793  0.00  0.00    +0.000 A 
ATOM      6  C   UNL     1       2.285   7.873  18.563  0.00  0.00    +0.000 A 
ATOM      7  C   UNL     1       2.910   6.658  18.779  0.00  0.00    +0.000 A 
ATOM      8  N   UNL     1       2.608   6.349  20.078  0.00  0.00    +0.000 N 
ATOM      9  N   UNL     1       1.839   7.243  20.702  0.00  0.00    +0.000 NA
ATOM     10  H   UNL     1       2.919   5.545  20.610  0.00  0.00    +0.000 HD
BRANCH   7  11
ATOM     11  C   UNL     1       3.763   5.821  17.942  0.00  0.00    +0.000 A 
ATOM     12  C   UNL     1       3.357   4.529  17.579  0.00  0.00    +0.000 A 
ATOM     13  C   UNL     1       4.156   3.728  16.757  0.00  0.00    +0.000 A 
ATOM     14  C   UNL     1       5.380   4.205  16.289  0.00  0.00    +0.000 A 
ATOM     15  C   UNL     1       5.796   5.490  16.650  0.00  0.00    +0.000 A 
ATOM     16  C   UNL     1       4.994   6.299  17.469  0.00  0.00    +0.000 A 
BRANCH  15  17
ATOM     17  N   UNL     1       7.085   6.001  16.171  0.00  0.00    +0.000 N 
ATOM     18  O   UNL     1       7.629   6.903  16.823  0.00  0.00    +0.000 OA
ATOM     19  O   UNL     1       7.558   5.494  15.143  0.00  0.00    +0.000 OA
ENDBRANCH  15  17
ENDBRANCH   7  11
ENDBRANCH   2   5
BRANCH   1  21
ATOM     20  C   UNL     1      -0.645  10.959  22.562  0.00  0.00    +0.000 C 
ATOM     21  N   UNL     1      -0.859  10.435  21.398  0.00  0.00    +0.000 NA
BRANCH  20  25
ATOM     22  C   UNL     1      -2.872  14.390  23.850  0.00  0.00    +0.000 A 
ATOM     23  C   UNL     1      -1.548  14.526  23.413  0.00  0.00    +0.000 A 
ATOM     24  C   UNL     1      -0.825  13.408  22.993  0.00  0.00    +0.000 A 
ATOM     25  C   UNL     1      -1.419  12.141  23.005  0.00  0.00    +0.000 A 
ATOM     26  C   UNL     1      -2.740  11.994  23.436  0.00  0.00    +0.000 A 
ATOM     27  C   UNL     1      -3.464  13.118  23.861  0.00  0.00    +0.000 A 
BRANCH  22  28
ATOM     28  C   UNL     1      -3.598  15.621  24.272  0.00  0.00    +0.000 C 
ATOM     29  O   UNL     1      -3.214  16.356  25.168  0.00  0.00    +0.000 OA
BRANCH  28  31
ATOM     30  C   UNL     1      -5.697  16.638  24.146  0.00  0.00    +0.000 C 
ATOM     31  O   UNL     1      -4.721  15.795  23.529  0.00  0.00    +0.000 OA
ENDBRANCH  28  31
ENDBRANCH  22  28
ENDBRANCH  20  25
ENDBRANCH   1  21
TORSDOF 7
ENDMDL
MODEL 6
REMARK VINA RESULT:      -7.6      1.292      2.016
REMARK  Name = 
REMARK  8 active torsions:
REMARK  status: ('A' for Active; 'I' for Inactive)
REMARK    1  A    between atoms: C_1  and  O_2
REMARK    2  A    between atoms: O_2  and  C_3
REMARK    3  A    between atoms: C_3  and  C_5
REMARK    4  A    between atoms: C_8  and  C_9
REMARK    5  A    between atoms: N_10  and  N_11
REMARK    6  A    between atoms: C_12  and  C_14
REMARK    7  A    between atoms: C_16  and  C_17
REMARK    8  A    between atoms: C_21  and  N_22
REMARK                            x       y       z     vdW  Elec       q    Type
REMARK                         _______ _______ _______ _____ _____    ______ ____
ROOT
ATOM      1  N   UNL     1       2.234   7.339  19.904  0.00  0.00    +0.000 N 
ATOM      2  C   UNL     1       2.202   5.939  19.926  0.00  0.00    +0.000 C 
ATOM      3  O   UNL     1       1.422   5.280  20.613  0.00  0.00    +0.000 OA
ATOM      4  H   UNL     1       2.875   7.843  19.303  0.00  0.00    +0.000 HD
ENDROOT
BRANCH   2   5
ATOM      5  C   UNL     1       3.181   5.269  19.034  0.00  0.00    +0.000 A 
ATOM      6  C   UNL     1       3.738   5.798  17.829  0.00  0.00    +0.000 A 
ATOM      7  C   UNL     1       4.638   4.854  17.369  0.00  0.00    +0.000 A 
ATOM      8  N   UNL     1       4.564   3.841  18.286  0.00  0.00    +0.000 N 
ATOM      9  N   UNL     1       3.691   4.044  19.275  0.00  0.00    +0.000 NA
ATOM     10  H   UNL     1       5.105   2.985  18.306  0.00  0.00    +0.000 HD
BRANCH   7  11
ATOM     11  C   UNL     1       5.554   4.830  16.233  0.00  0.00    +0.000 A 
ATOM     12  C   UNL     1       6.820   5.424  16.326  0.00  0.00    +0.000 A 
ATOM     13  C   UNL     1       7.714   5.385  15.251  0.00  0.00    +0.000 A 
ATOM     14  C   UNL     1       7.352   4.755  14.061  0.00  0.00    +0.000 A 
ATOM     15  C   UNL     1       6.089   4.166  13.957  0.00  0.00    +0.000 A 
ATOM     16  C   UNL     1       5.192   4.197  15.034  0.00  0.00    +0.000 A 
BRANCH  15  17
ATOM     17  N   UNL     1       5.692   3.507  12.706  0.00  0.00    +0.000 N 
ATOM     18  O   UNL     1       4.485   3.468  12.431  0.00  0.00    +0.000 OA
ATOM     19  O   UNL     1       6.592   3.036  11.995  0.00  0.00    +0.000 OA
ENDBRANCH  15  17
ENDBRANCH   7  11
ENDBRANCH   2   5
BRANCH   1  21
ATOM     20  C   UNL     1       0.997   9.207  20.242  0.00  0.00    +0.000 C 
ATOM     21  N   UNL     1       1.373   8.051  20.688  0.00  0.00    +0.000 NA
BRANCH  20  25
ATOM     22  C   UNL     1      -1.716  11.620  22.525  0.00  0.00    +0.000 A 
ATOM     23  C   UNL     1      -1.097  10.506  23.105  0.00  0.00    +0.000 A 
ATOM     24  C   UNL     1      -0.213   9.722  22.361  0.00  0.00    +0.000 A 
ATOM     25  C   UNL     1       0.062  10.045  21.028  0.00  0.00    +0.000 A 
ATOM     26  C   UNL     1      -0.548  11.157  20.439  0.00  0.00    +0.000 A 
ATOM     27  C   UNL     1      -1.439  11.941  21.187  0.00  0.00    +0.000 A 
BRANCH  22  28
ATOM     28  C   UNL     1      -2.637  12.428  23.373  0.00  0.00    +0.000 C 
ATOM     29  O   UNL     1      -3.459  11.937  24.130  0.00  0.00    +0.000 OA
BRANCH  28  31
ATOM     30  C   UNL     1      -1.728  14.392  24.250  0.00  0.00    +0.000 C 
ATOM     31  O   UNL     1      -2.430  13.755  23.180  0.00  0.00    +0.000 OA
ENDBRANCH  28  31
ENDBRANCH  22  28
ENDBRANCH  20  25
ENDBRANCH   1  21
TORSDOF 7
ENDMDL
MODEL 7
REMARK VINA RESULT:      -7.6      0.643      1.334
REMARK  Name = 
REMARK  8 active torsions:
REMARK  status: ('A' for Active; 'I' for Inactive)
REMARK    1  A    between atoms: C_1  and  O_2
REMARK    2  A    between atoms: O_2  and  C_3
REMARK    3  A    between atoms: C_3  and  C_5
REMARK    4  A    between atoms: C_8  and  C_9
REMARK    5  A    between atoms: N_10  and  N_11
REMARK    6  A    between atoms: C_12  and  C_14
REMARK    7  A    between atoms: C_16  and  C_17
REMARK    8  A    between atoms: C_21  and  N_22
REMARK                            x       y       z     vdW  Elec       q    Type
REMARK                         _______ _______ _______ _____ _____    ______ ____
ROOT
ATOM      1  N   UNL     1       2.679   6.934  18.545  0.00  0.00    +0.000 N 
ATOM      2  C   UNL     1       3.437   5.870  19.048  0.00  0.00    +0.000 C 
ATOM      3  O   UNL     1       3.350   5.449  20.200  0.00  0.00    +0.000 OA
ATOM      4  H   UNL     1       2.763   7.233  17.580  0.00  0.00    +0.000 HD
ENDROOT
BRANCH   2   5
ATOM      5  C   UNL     1       4.373   5.246  18.079  0.00  0.00    +0.000 A 
ATOM      6  C   UNL     1       4.348   5.388  16.657  0.00  0.00    +0.000 A 
ATOM      7  C   UNL     1       5.433   4.679  16.176  0.00  0.00    +0.000 A 
ATOM      8  N   UNL     1       6.021   4.157  17.298  0.00  0.00    +0.000 N 
ATOM      9  N   UNL     1       5.403   4.455  18.442  0.00  0.00    +0.000 NA
ATOM     10  H   UNL     1       6.867   3.603  17.351  0.00  0.00    +0.000 HD
BRANCH   7  11
ATOM     11  C   UNL     1       5.977   4.489  14.835  0.00  0.00    +0.000 A 
ATOM     12  C   UNL     1       7.184   5.098  14.463  0.00  0.00    +0.000 A 
ATOM     13  C   UNL     1       7.726   4.903  13.189  0.00  0.00    +0.000 A 
ATOM     14  C   UNL     1       7.064   4.098  12.261  0.00  0.00    +0.000 A 
ATOM     15  C   UNL     1       5.857   3.492  12.621  0.00  0.00    +0.000 A 
ATOM     16  C   UNL     1       5.314   3.680  13.901  0.00  0.00    +0.000 A 
BRANCH  15  17
ATOM     17  N   UNL     1       5.146   2.650  11.652  0.00  0.00    +0.000 N 
ATOM     18  O   UNL     1       4.041   3.039  11.248  0.00  0.00    +0.000 OA
ATOM     19  O   UNL     1       5.699   1.602  11.288  0.00  0.00    +0.000 OA
ENDBRANCH  15  17
ENDBRANCH   7  11
ENDBRANCH   2   5
BRANCH   1  21
ATOM     20  C   UNL     1       1.828   8.871  19.358  0.00  0.00    +0.000 C 
ATOM     21  N   UNL     1       1.788   7.577  19.355  0.00  0.00    +0.000 NA
BRANCH  20  25
ATOM     22  C   UNL     1      -0.876  11.108  21.823  0.00  0.00    +0.000 A 
ATOM     23  C   UNL     1       0.043  10.223  22.400  0.00  0.00    +0.000 A 
ATOM     24  C   UNL     1       0.924   9.496  21.595  0.00  0.00    +0.000 A 
ATOM     25  C   UNL     1       0.894   9.648  20.205  0.00  0.00    +0.000 A 
ATOM     26  C   UNL     1      -0.016  10.532  19.619  0.00  0.00    +0.000 A 
ATOM     27  C   UNL     1      -0.902  11.258  20.428  0.00  0.00    +0.000 A 
BRANCH  22  28
ATOM     28  C   UNL     1      -1.780  11.868  22.732  0.00  0.00    +0.000 C 
ATOM     29  O   UNL     1      -2.456  11.342  23.602  0.00  0.00    +0.000 OA
BRANCH  28  31
ATOM     30  C   UNL     1      -1.335  14.006  23.559  0.00  0.00    +0.000 C 
ATOM     31  O   UNL     1      -1.738  13.195  22.453  0.00  0.00    +0.000 OA
ENDBRANCH  28  31
ENDBRANCH  22  28
ENDBRANCH  20  25
ENDBRANCH   1  21
TORSDOF 7
ENDMDL
MODEL 8
REMARK VINA RESULT:      -7.5      1.055      1.400
REMARK  Name = 
REMARK  8 active torsions:
REMARK  status: ('A' for Active; 'I' for Inactive)
REMARK    1  A    between atoms: C_1  and  O_2
REMARK    2  A    between atoms: O_2  and  C_3
REMARK    3  A    between atoms: C_3  and  C_5
REMARK    4  A    between atoms: C_8  and  C_9
REMARK    5  A    between atoms: N_10  and  N_11
REMARK    6  A    between atoms: C_12  and  C_14
REMARK    7  A    between atoms: C_16  and  C_17
REMARK    8  A    between atoms: C_21  and  N_22
REMARK                            x       y       z     vdW  Elec       q    Type
REMARK                         _______ _______ _______ _____ _____    ______ ____
ROOT
ATOM      1  N   UNL     1       2.938   7.376  18.148  0.00  0.00    +0.000 N 
ATOM      2  C   UNL     1       3.516   6.214  18.674  0.00  0.00    +0.000 C 
ATOM      3  O   UNL     1       3.313   5.801  19.815  0.00  0.00    +0.000 OA
ATOM      4  H   UNL     1       3.112   7.667  17.193  0.00  0.00    +0.000 HD
ENDROOT
BRANCH   2   5
ATOM      5  C   UNL     1       4.405   5.473  17.745  0.00  0.00    +0.000 A 
ATOM      6  C   UNL     1       4.480   5.634  16.327  0.00  0.00    +0.000 A 
ATOM      7  C   UNL     1       5.477   4.781  15.891  0.00  0.00    +0.000 A 
ATOM      8  N   UNL     1       5.921   4.168  17.032  0.00  0.00    +0.000 N 
ATOM      9  N   UNL     1       5.289   4.538  18.147  0.00  0.00    +0.000 NA
ATOM     10  H   UNL     1       6.675   3.497  17.120  0.00  0.00    +0.000 HD
BRANCH   7  11
ATOM     11  C   UNL     1       6.062   4.530  14.577  0.00  0.00    +0.000 A 
ATOM     12  C   UNL     1       7.235   5.189  14.183  0.00  0.00    +0.000 A 
ATOM     13  C   UNL     1       7.817   4.937  12.936  0.00  0.00    +0.000 A 
ATOM     14  C   UNL     1       7.229   4.025  12.059  0.00  0.00    +0.000 A 
ATOM     15  C   UNL     1       6.056   3.369  12.442  0.00  0.00    +0.000 A 
ATOM     16  C   UNL     1       5.473   3.613  13.694  0.00  0.00    +0.000 A 
BRANCH  15  17
ATOM     17  N   UNL     1       5.424   2.413  11.525  0.00  0.00    +0.000 N 
ATOM     18  O   UNL     1       4.268   2.652  11.148  0.00  0.00    +0.000 OA
ATOM     19  O   UNL     1       6.087   1.426  11.176  0.00  0.00    +0.000 OA
ENDBRANCH  15  17
ENDBRANCH   7  11
ENDBRANCH   2   5
BRANCH   1  21
ATOM     20  C   UNL     1       1.485   9.106  18.335  0.00  0.00    +0.000 C 
ATOM     21  N   UNL     1       2.104   8.131  18.922  0.00  0.00    +0.000 NA
BRANCH  20  25
ATOM     22  C   UNL     1      -1.193  11.609  20.561  0.00  0.00    +0.000 A 
ATOM     23  C   UNL     1       0.019  11.189  21.124  0.00  0.00    +0.000 A 
ATOM     24  C   UNL     1       0.891  10.375  20.397  0.00  0.00    +0.000 A 
ATOM     25  C   UNL     1       0.559   9.973  19.099  0.00  0.00    +0.000 A 
ATOM     26  C   UNL     1      -0.646  10.388  18.526  0.00  0.00    +0.000 A 
ATOM     27  C   UNL     1      -1.522  11.202  19.260  0.00  0.00    +0.000 A 
BRANCH  22  28
ATOM     28  C   UNL     1      -2.075  12.489  21.379  0.00  0.00    +0.000 C 
ATOM     29  O   UNL     1      -2.422  13.606  21.028  0.00  0.00    +0.000 OA
BRANCH  28  31
ATOM     30  C   UNL     1      -2.858  12.779  23.559  0.00  0.00    +0.000 C 
ATOM     31  O   UNL     1      -2.423  11.878  22.539  0.00  0.00    +0.000 OA
ENDBRANCH  28  31
ENDBRANCH  22  28
ENDBRANCH  20  25
ENDBRANCH   1  21
TORSDOF 7
ENDMDL
MODEL 9
REMARK VINA RESULT:      -7.5      3.161      5.071
REMARK  Name = 
REMARK  8 active torsions:
REMARK  status: ('A' for Active; 'I' for Inactive)
REMARK    1  A    between atoms: C_1  and  O_2
REMARK    2  A    between atoms: O_2  and  C_3
REMARK    3  A    between atoms: C_3  and  C_5
REMARK    4  A    between atoms: C_8  and  C_9
REMARK    5  A    between atoms: N_10  and  N_11
REMARK    6  A    between atoms: C_12  and  C_14
REMARK    7  A    between atoms: C_16  and  C_17
REMARK    8  A    between atoms: C_21  and  N_22
REMARK                            x       y       z     vdW  Elec       q    Type
REMARK                         _______ _______ _______ _____ _____    ______ ____
ROOT
ATOM      1  N   UNL     1       0.667  10.037  21.110  0.00  0.00    +0.000 N 
ATOM      2  C   UNL     1       0.821   9.632  19.778  0.00  0.00    +0.000 C 
ATOM      3  O   UNL     1       0.374  10.254  18.815  0.00  0.00    +0.000 OA
ATOM      4  H   UNL     1       1.074   9.509  21.873  0.00  0.00    +0.000 HD
ENDROOT
BRANCH   2   5
ATOM      5  C   UNL     1       1.591   8.379  19.583  0.00  0.00    +0.000 A 
ATOM      6  C   UNL     1       2.236   7.953  18.380  0.00  0.00    +0.000 A 
ATOM      7  C   UNL     1       2.871   6.762  18.680  0.00  0.00    +0.000 A 
ATOM      8  N   UNL     1       2.571   6.541  19.997  0.00  0.00    +0.000 N 
ATOM      9  N   UNL     1       1.793   7.469  20.557  0.00  0.00    +0.000 NA
ATOM     10  H   UNL     1       2.888   5.778  20.584  0.00  0.00    +0.000 HD
BRANCH   7  11
ATOM     11  C   UNL     1       3.732   5.875  17.903  0.00  0.00    +0.000 A 
ATOM     12  C   UNL     1       3.335   4.559  17.628  0.00  0.00    +0.000 A 
ATOM     13  C   UNL     1       4.142   3.709  16.864  0.00  0.00    +0.000 A 
ATOM     14  C   UNL     1       5.364   4.162  16.367  0.00  0.00    +0.000 A 
ATOM     15  C   UNL     1       5.770   5.472  16.642  0.00  0.00    +0.000 A 
ATOM     16  C   UNL     1       4.961   6.329  17.402  0.00  0.00    +0.000 A 
BRANCH  15  17
ATOM     17  N   UNL     1       7.057   5.957  16.131  0.00  0.00    +0.000 N 
ATOM     18  O   UNL     1       7.674   6.788  16.814  0.00  0.00    +0.000 OA
ATOM     19  O   UNL     1       7.455   5.502  15.049  0.00  0.00    +0.000 OA
ENDBRANCH  15  17
ENDBRANCH   7  11
ENDBRANCH   2   5
BRANCH   1  21
ATOM     20  C   UNL     1      -0.747  11.169  22.473  0.00  0.00    +0.000 C 
ATOM     21  N   UNL     1      -0.026  11.178  21.398  0.00  0.00    +0.000 NA
BRANCH  20  25
ATOM     22  C   UNL     1      -3.021  14.629  23.592  0.00  0.00    +0.000 A 
ATOM     23  C   UNL     1      -3.646  13.383  23.456  0.00  0.00    +0.000 A 
ATOM     24  C   UNL     1      -2.903  12.257  23.093  0.00  0.00    +0.000 A 
ATOM     25  C   UNL     1      -1.528  12.366  22.862  0.00  0.00    +0.000 A 
ATOM     26  C   UNL     1      -0.893  13.604  22.998  0.00  0.00    +0.000 A 
ATOM     27  C   UNL     1      -1.641  14.734  23.359  0.00  0.00    +0.000 A 
BRANCH  22  28
ATOM     28  C   UNL     1      -3.861  15.791  23.996  0.00  0.00    +0.000 C 
ATOM     29  O   UNL     1      -4.964  15.678  24.508  0.00  0.00    +0.000 OA
BRANCH  28  31
ATOM     30  C   UNL     1      -3.821  17.692  22.641  0.00  0.00    +0.000 C 
ATOM     31  O   UNL     1      -3.231  16.960  23.718  0.00  0.00    +0.000 OA
ENDBRANCH  28  31
ENDBRANCH  22  28
ENDBRANCH  20  25
ENDBRANCH   1  21
TORSDOF 7
ENDMDL
