MODEL 1
REMARK VINA RESULT:      -5.8      0.000      0.000
REMARK  Name = 
REMARK  11 active torsions:
REMARK  status: ('A' for Active; 'I' for Inactive)
REMARK    1  A    between atoms: C_1  and  C_2
REMARK    2  A    between atoms: C_2  and  C_3
REMARK    3  A    between atoms: C_3  and  C_4
REMARK    4  A    between atoms: C_6  and  O_7
REMARK    5  A    between atoms: C_10  and  O_11
REMARK    6  A    between atoms: O_11  and  C_12
REMARK    7  A    between atoms: C_13  and  O_14
REMARK    8  A    between atoms: O_14  and  C_15
REMARK    9  A    between atoms: C_18  and  O_19
REMARK   10  A    between atoms: C_27  and  C_28
REMARK   11  A    between atoms: C_28  and  C_29
REMARK                            x       y       z     vdW  Elec       q    Type
REMARK                         _______ _______ _______ _____ _____    ______ ____
ROOT
ATOM      1  C   UNL     1      -3.141  12.285  19.732  0.00  0.00    +0.000 A 
ATOM      2  C   UNL     1      -4.134  11.997  18.793  0.00  0.00    +0.000 A 
ATOM      3 CL   UNL     1      -5.754  12.569  19.000  0.00  0.00    +0.000 Cl
ATOM      4  C   UNL     1      -3.828  11.198  17.675  0.00  0.00    +0.000 A 
ATOM      5  C   UNL     1      -2.606  10.507  17.612  0.00  0.00    +0.000 A 
ATOM      6 CL   UNL     1      -2.203   9.651  16.169  0.00  0.00    +0.000 Cl
ATOM      7  C   UNL     1      -1.681  10.698  18.637  0.00  0.00    +0.000 A 
ATOM      8  C   UNL     1      -1.864  11.799  19.467  0.00  0.00    +0.000 A 
ATOM      9  C   UNL     1      -0.762  12.625  18.842  0.00  0.00    +0.000 C 
ATOM     10  O   UNL     1      -0.809  13.764  18.405  0.00  0.00    +0.000 OA
ATOM     11  O   UNL     1       0.259  11.744  18.525  0.00  0.00    +0.000 OA
ATOM     12  C   UNL     1      -0.229  10.425  18.775  0.00  0.00    +0.000 C 
ENDROOT
BRANCH   4  13
ATOM     13  O   UNL     1      -4.714  11.103  16.630  0.00  0.00    +0.000 OA
ATOM     14  H   UNL     1      -4.389  10.415  16.018  0.00  0.00    +0.000 HD
ENDBRANCH   4  13
BRANCH  12  15
ATOM     15  C   UNL     1       0.473   9.303  18.029  0.00  0.00    +0.000 C 
ATOM     16  C   UNL     1       1.946   9.661  17.847  0.00  0.00    +0.000 C 
ENDBRANCH  12  15
BRANCH   1  17
ATOM     17  O   UNL     1      -3.586  12.608  21.018  0.00  0.00    +0.000 OA
BRANCH  17  24
ATOM     18  C   UNL     1      -2.194  12.984  22.935  0.00  0.00    +0.000 A 
ATOM     19  C   UNL     1      -1.648  13.885  23.872  0.00  0.00    +0.000 A 
ATOM     20  C   UNL     1      -1.728  15.258  23.663  0.00  0.00    +0.000 A 
ATOM     21  C   UNL     1      -2.391  15.783  22.549  0.00  0.00    +0.000 A 
ATOM     22 CL   UNL     1      -2.267  17.500  22.317  0.00  0.00    +0.000 Cl
ATOM     23  C   UNL     1      -3.068  14.914  21.674  0.00  0.00    +0.000 A 
ATOM     24  C   UNL     1      -2.908  13.510  21.830  0.00  0.00    +0.000 A 
BRANCH  20  25
ATOM     25  O   UNL     1      -1.157  16.107  24.578  0.00  0.00    +0.000 OA
ATOM     26  H   UNL     1      -0.506  15.625  25.114  0.00  0.00    +0.000 HD
ENDBRANCH  20  25
BRANCH  23  27
ATOM     27  O   UNL     1      -3.962  15.232  20.691  0.00  0.00    +0.000 OA
ATOM     28  C   UNL     1      -5.215  15.830  20.968  0.00  0.00    +0.000 C 
ENDBRANCH  23  27
BRANCH  18  29
ATOM     29  C   UNL     1      -1.949  11.510  23.195  0.00  0.00    +0.000 C 
BRANCH  29  31
ATOM     30  C   UNL     1      -0.464   9.467  22.842  0.00  0.00    +0.000 C 
ATOM     31  C   UNL     1      -0.604  10.971  22.683  0.00  0.00    +0.000 C 
ENDBRANCH  29  31
ENDBRANCH  18  29
ENDBRANCH  17  24
ENDBRANCH   1  17
TORSDOF 8
ENDMDL
MODEL 2
REMARK VINA RESULT:      -5.7      2.839      7.067
REMARK  Name = 
REMARK  11 active torsions:
REMARK  status: ('A' for Active; 'I' for Inactive)
REMARK    1  A    between atoms: C_1  and  C_2
REMARK    2  A    between atoms: C_2  and  C_3
REMARK    3  A    between atoms: C_3  and  C_4
REMARK    4  A    between atoms: C_6  and  O_7
REMARK    5  A    between atoms: C_10  and  O_11
REMARK    6  A    between atoms: O_11  and  C_12
REMARK    7  A    between atoms: C_13  and  O_14
REMARK    8  A    between atoms: O_14  and  C_15
REMARK    9  A    between atoms: C_18  and  O_19
REMARK   10  A    between atoms: C_27  and  C_28
REMARK   11  A    between atoms: C_28  and  C_29
REMARK                            x       y       z     vdW  Elec       q    Type
REMARK                         _______ _______ _______ _____ _____    ______ ____
ROOT
ATOM      1  C   UNL     1      -0.448  13.579  22.194  0.00  0.00    +0.000 A 
ATOM      2  C   UNL     1      -0.350  14.929  22.538  0.00  0.00    +0.000 A 
ATOM      3 CL   UNL     1       1.049  15.859  22.123  0.00  0.00    +0.000 Cl
ATOM      4  C   UNL     1      -1.387  15.542  23.266  0.00  0.00    +0.000 A 
ATOM      5  C   UNL     1      -2.404  14.761  23.841  0.00  0.00    +0.000 A 
ATOM      6 CL   UNL     1      -3.733  15.552  24.607  0.00  0.00    +0.000 Cl
ATOM      7  C   UNL     1      -2.404  13.387  23.602  0.00  0.00    +0.000 A 
ATOM      8  C   UNL     1      -1.620  12.921  22.552  0.00  0.00    +0.000 A 
ATOM      9  C   UNL     1      -2.780  12.695  21.608  0.00  0.00    +0.000 C 
ATOM     10  O   UNL     1      -2.929  13.093  20.463  0.00  0.00    +0.000 OA
ATOM     11  O   UNL     1      -3.832  12.231  22.381  0.00  0.00    +0.000 OA
ATOM     12  C   UNL     1      -3.423  12.319  23.747  0.00  0.00    +0.000 C 
ENDROOT
BRANCH   4  13
ATOM     13  O   UNL     1      -1.421  16.907  23.405  0.00  0.00    +0.000 OA
ATOM     14  H   UNL     1      -1.831  17.284  22.602  0.00  0.00    +0.000 HD
ENDBRANCH   4  13
BRANCH  12  15
ATOM     15  C   UNL     1      -4.541  12.380  24.774  0.00  0.00    +0.000 C 
ATOM     16  C   UNL     1      -5.854  12.716  24.073  0.00  0.00    +0.000 C 
ENDBRANCH  12  15
BRANCH   1  17
ATOM     17  O   UNL     1       0.761  12.916  21.956  0.00  0.00    +0.000 OA
BRANCH  17  24
ATOM     18  C   UNL     1       0.846  12.391  19.617  0.00  0.00    +0.000 A 
ATOM     19  C   UNL     1       0.798  11.420  18.595  0.00  0.00    +0.000 A 
ATOM     20  C   UNL     1       0.891  10.066  18.902  0.00  0.00    +0.000 A 
ATOM     21  C   UNL     1       0.985   9.628  20.227  0.00  0.00    +0.000 A 
ATOM     22 CL   UNL     1       1.270   7.931  20.459  0.00  0.00    +0.000 Cl
ATOM     23  C   UNL     1       0.891  10.564  21.272  0.00  0.00    +0.000 A 
ATOM     24  C   UNL     1       0.893  11.952  20.964  0.00  0.00    +0.000 A 
BRANCH  20  25
ATOM     25  O   UNL     1       0.875   9.149  17.881  0.00  0.00    +0.000 OA
ATOM     26  H   UNL     1       1.684   8.613  17.905  0.00  0.00    +0.000 HD
ENDBRANCH  20  25
BRANCH  23  27
ATOM     27  O   UNL     1       0.714  10.327  22.607  0.00  0.00    +0.000 OA
ATOM     28  C   UNL     1      -0.436   9.678  23.116  0.00  0.00    +0.000 C 
ENDBRANCH  23  27
BRANCH  18  29
ATOM     29  C   UNL     1       0.858  13.840  19.170  0.00  0.00    +0.000 C 
BRANCH  29  31
ATOM     30  C   UNL     1       2.617  15.644  18.772  0.00  0.00    +0.000 C 
ATOM     31  C   UNL     1       2.103  14.269  18.378  0.00  0.00    +0.000 C 
ENDBRANCH  29  31
ENDBRANCH  18  29
ENDBRANCH  17  24
ENDBRANCH   1  17
TORSDOF 8
ENDMDL
MODEL 3
REMARK VINA RESULT:      -5.6      2.346      5.942
REMARK  Name = 
REMARK  11 active torsions:
REMARK  status: ('A' for Active; 'I' for Inactive)
REMARK    1  A    between atoms: C_1  and  C_2
REMARK    2  A    between atoms: C_2  and  C_3
REMARK    3  A    between atoms: C_3  and  C_4
REMARK    4  A    between atoms: C_6  and  O_7
REMARK    5  A    between atoms: C_10  and  O_11
REMARK    6  A    between atoms: O_11  and  C_12
REMARK    7  A    between atoms: C_13  and  O_14
REMARK    8  A    between atoms: O_14  and  C_15
REMARK    9  A    between atoms: C_18  and  O_19
REMARK   10  A    between atoms: C_27  and  C_28
REMARK   11  A    between atoms: C_28  and  C_29
REMARK                            x       y       z     vdW  Elec       q    Type
REMARK                         _______ _______ _______ _____ _____    ______ ____
ROOT
ATOM      1  C   UNL     1      -0.847  12.794  21.172  0.00  0.00    +0.000 A 
ATOM      2  C   UNL     1      -1.362  13.488  22.269  0.00  0.00    +0.000 A 
ATOM      3 CL   UNL     1      -2.302  12.681  23.477  0.00  0.00    +0.000 Cl
ATOM      4  C   UNL     1      -1.149  14.874  22.381  0.00  0.00    +0.000 A 
ATOM      5  C   UNL     1      -0.622  15.600  21.299  0.00  0.00    +0.000 A 
ATOM      6 CL   UNL     1      -0.242  17.268  21.516  0.00  0.00    +0.000 Cl
ATOM      7  C   UNL     1      -0.244  14.901  20.152  0.00  0.00    +0.000 A 
ATOM      8  C   UNL     1      -0.085  13.524  20.265  0.00  0.00    +0.000 A 
ATOM      9  C   UNL     1       1.426  13.562  20.273  0.00  0.00    +0.000 C 
ATOM     10  O   UNL     1       2.204  13.063  21.072  0.00  0.00    +0.000 OA
ATOM     11  O   UNL     1       1.800  14.564  19.392  0.00  0.00    +0.000 OA
ATOM     12  C   UNL     1       0.606  15.232  18.982  0.00  0.00    +0.000 C 
ENDROOT
BRANCH   4  13
ATOM     13  O   UNL     1      -1.436  15.525  23.556  0.00  0.00    +0.000 OA
ATOM     14  H   UNL     1      -2.117  16.200  23.370  0.00  0.00    +0.000 HD
ENDBRANCH   4  13
BRANCH  12  15
ATOM     15  C   UNL     1       0.781  16.649  18.464  0.00  0.00    +0.000 C 
ATOM     16  C   UNL     1      -0.553  17.158  17.925  0.00  0.00    +0.000 C 
ENDBRANCH  12  15
BRANCH   1  17
ATOM     17  O   UNL     1      -1.495  11.599  20.841  0.00  0.00    +0.000 OA
BRANCH  17  24
ATOM     18  C   UNL     1      -0.970  10.569  18.739  0.00  0.00    +0.000 A 
ATOM     19  C   UNL     1      -1.257  10.410  17.368  0.00  0.00    +0.000 A 
ATOM     20  C   UNL     1      -2.454  10.882  16.836  0.00  0.00    +0.000 A 
ATOM     21  C   UNL     1      -3.378  11.566  17.631  0.00  0.00    +0.000 A 
ATOM     22 CL   UNL     1      -4.902  11.945  16.888  0.00  0.00    +0.000 Cl
ATOM     23  C   UNL     1      -3.055  11.864  18.967  0.00  0.00    +0.000 A 
ATOM     24  C   UNL     1      -1.880  11.303  19.539  0.00  0.00    +0.000 A 
BRANCH  20  25
ATOM     25  O   UNL     1      -2.717  10.682  15.505  0.00  0.00    +0.000 OA
ATOM     26  H   UNL     1      -2.309  11.388  14.977  0.00  0.00    +0.000 HD
ENDBRANCH  20  25
BRANCH  23  27
ATOM     27  O   UNL     1      -3.695  12.717  19.822  0.00  0.00    +0.000 OA
ATOM     28  C   UNL     1      -4.937  12.402  20.422  0.00  0.00    +0.000 C 
ENDBRANCH  23  27
BRANCH  18  29
ATOM     29  C   UNL     1       0.304   9.916  19.241  0.00  0.00    +0.000 C 
BRANCH  29  31
ATOM     30  C   UNL     1       2.019   8.625  17.864  0.00  0.00    +0.000 C 
ATOM     31  C   UNL     1       1.499   9.991  18.279  0.00  0.00    +0.000 C 
ENDBRANCH  29  31
ENDBRANCH  18  29
ENDBRANCH  17  24
ENDBRANCH   1  17
TORSDOF 8
ENDMDL
MODEL 4
REMARK VINA RESULT:      -5.5      8.690     10.966
REMARK  Name = 
REMARK  11 active torsions:
REMARK  status: ('A' for Active; 'I' for Inactive)
REMARK    1  A    between atoms: C_1  and  C_2
REMARK    2  A    between atoms: C_2  and  C_3
REMARK    3  A    between atoms: C_3  and  C_4
REMARK    4  A    between atoms: C_6  and  O_7
REMARK    5  A    between atoms: C_10  and  O_11
REMARK    6  A    between atoms: O_11  and  C_12
REMARK    7  A    between atoms: C_13  and  O_14
REMARK    8  A    between atoms: O_14  and  C_15
REMARK    9  A    between atoms: C_18  and  O_19
REMARK   10  A    between atoms: C_27  and  C_28
REMARK   11  A    between atoms: C_28  and  C_29
REMARK                            x       y       z     vdW  Elec       q    Type
REMARK                         _______ _______ _______ _____ _____    ______ ____
ROOT
ATOM      1  C   UNL     1       8.762  14.984  19.177  0.00  0.00    +0.000 A 
ATOM      2  C   UNL     1       9.639  15.363  18.158  0.00  0.00    +0.000 A 
ATOM      3 CL   UNL     1       9.649  16.980  17.541  0.00  0.00    +0.000 Cl
ATOM      4  C   UNL     1      10.508  14.411  17.594  0.00  0.00    +0.000 A 
ATOM      5  C   UNL     1      10.346  13.045  17.883  0.00  0.00    +0.000 A 
ATOM      6 CL   UNL     1      11.511  11.920  17.288  0.00  0.00    +0.000 Cl
ATOM      7  C   UNL     1       9.364  12.672  18.801  0.00  0.00    +0.000 A 
ATOM      8  C   UNL     1       8.844  13.668  19.621  0.00  0.00    +0.000 A 
ATOM      9  C   UNL     1       9.610  13.241  20.853  0.00  0.00    +0.000 C 
ATOM     10  O   UNL     1      10.320  13.911  21.587  0.00  0.00    +0.000 OA
ATOM     11  O   UNL     1       9.654  11.857  20.830  0.00  0.00    +0.000 OA
ATOM     12  C   UNL     1       9.103  11.437  19.581  0.00  0.00    +0.000 C 
ENDROOT
BRANCH   4  13
ATOM     13  O   UNL     1      11.532  14.811  16.770  0.00  0.00    +0.000 OA
ATOM     14  H   UNL     1      12.189  14.090  16.731  0.00  0.00    +0.000 HD
ENDBRANCH   4  13
BRANCH  12  15
ATOM     15  C   UNL     1       9.515  10.057  19.101  0.00  0.00    +0.000 C 
ATOM     16  C   UNL     1       8.415   9.481  18.214  0.00  0.00    +0.000 C 
ENDBRANCH  12  15
BRANCH   1  17
ATOM     17  O   UNL     1       7.617  15.774  19.328  0.00  0.00    +0.000 OA
BRANCH  17  24
ATOM     18  C   UNL     1       5.349  15.072  19.667  0.00  0.00    +0.000 A 
ATOM     19  C   UNL     1       4.255  14.903  20.541  0.00  0.00    +0.000 A 
ATOM     20  C   UNL     1       4.429  15.003  21.918  0.00  0.00    +0.000 A 
ATOM     21  C   UNL     1       5.674  15.321  22.470  0.00  0.00    +0.000 A 
ATOM     22 CL   UNL     1       5.793  15.242  24.201  0.00  0.00    +0.000 Cl
ATOM     23  C   UNL     1       6.748  15.635  21.617  0.00  0.00    +0.000 A 
ATOM     24  C   UNL     1       6.602  15.441  20.216  0.00  0.00    +0.000 A 
BRANCH  20  25
ATOM     25  O   UNL     1       3.351  14.800  22.743  0.00  0.00    +0.000 OA
ATOM     26  H   UNL     1       3.627  14.308  23.533  0.00  0.00    +0.000 HD
ENDBRANCH  20  25
BRANCH  23  27
ATOM     27  O   UNL     1       7.949  16.199  21.943  0.00  0.00    +0.000 OA
ATOM     28  C   UNL     1       8.051  17.478  22.540  0.00  0.00    +0.000 C 
ENDBRANCH  23  27
BRANCH  18  29
ATOM     29  C   UNL     1       5.079  14.825  18.195  0.00  0.00    +0.000 C 
BRANCH  29  31
ATOM     30  C   UNL     1       3.265  16.340  17.237  0.00  0.00    +0.000 C 
ATOM     31  C   UNL     1       3.609  14.959  17.769  0.00  0.00    +0.000 C 
ENDBRANCH  29  31
ENDBRANCH  18  29
ENDBRANCH  17  24
ENDBRANCH   1  17
TORSDOF 8
ENDMDL
MODEL 5
REMARK VINA RESULT:      -5.5      3.611      5.022
REMARK  Name = 
REMARK  11 active torsions:
REMARK  status: ('A' for Active; 'I' for Inactive)
REMARK    1  A    between atoms: C_1  and  C_2
REMARK    2  A    between atoms: C_2  and  C_3
REMARK    3  A    between atoms: C_3  and  C_4
REMARK    4  A    between atoms: C_6  and  O_7
REMARK    5  A    between atoms: C_10  and  O_11
REMARK    6  A    between atoms: O_11  and  C_12
REMARK    7  A    between atoms: C_13  and  O_14
REMARK    8  A    between atoms: O_14  and  C_15
REMARK    9  A    between atoms: C_18  and  O_19
REMARK   10  A    between atoms: C_27  and  C_28
REMARK   11  A    between atoms: C_28  and  C_29
REMARK                            x       y       z     vdW  Elec       q    Type
REMARK                         _______ _______ _______ _____ _____    ______ ____
ROOT
ATOM      1  C   UNL     1       0.036  13.151  21.135  0.00  0.00    +0.000 A 
ATOM      2  C   UNL     1      -0.599  12.646  22.271  0.00  0.00    +0.000 A 
ATOM      3 CL   UNL     1      -1.138  13.696  23.536  0.00  0.00    +0.000 Cl
ATOM      4  C   UNL     1      -0.775  11.257  22.414  0.00  0.00    +0.000 A 
ATOM      5  C   UNL     1      -0.124  10.367  21.543  0.00  0.00    +0.000 A 
ATOM      6 CL   UNL     1      -0.471   8.681  21.656  0.00  0.00    +0.000 Cl
ATOM      7  C   UNL     1       0.627  10.895  20.493  0.00  0.00    +0.000 A 
ATOM      8  C   UNL     1       0.414  12.230  20.162  0.00  0.00    +0.000 A 
ATOM      9  C   UNL     1      -0.398  11.934  18.922  0.00  0.00    +0.000 C 
ATOM     10  O   UNL     1      -1.501  12.355  18.606  0.00  0.00    +0.000 OA
ATOM     11  O   UNL     1       0.171  10.815  18.335  0.00  0.00    +0.000 OA
ATOM     12  C   UNL     1       1.170  10.330  19.233  0.00  0.00    +0.000 C 
ENDROOT
BRANCH   4  13
ATOM     13  O   UNL     1      -1.600  10.762  23.395  0.00  0.00    +0.000 OA
ATOM     14  H   UNL     1      -2.097  11.509  23.779  0.00  0.00    +0.000 HD
ENDBRANCH   4  13
BRANCH  12  15
ATOM     15  C   UNL     1       1.549   8.867  19.081  0.00  0.00    +0.000 C 
ATOM     16  C   UNL     1       2.232   8.659  17.733  0.00  0.00    +0.000 C 
ENDBRANCH  12  15
BRANCH   1  17
ATOM     17  O   UNL     1       0.634  14.408  21.272  0.00  0.00    +0.000 OA
BRANCH  17  24
ATOM     18  C   UNL     1       2.399  15.186  19.846  0.00  0.00    +0.000 A 
ATOM     19  C   UNL     1       2.842  16.082  18.853  0.00  0.00    +0.000 A 
ATOM     20  C   UNL     1       1.930  16.860  18.144  0.00  0.00    +0.000 A 
ATOM     21  C   UNL     1       0.562  16.811  18.430  0.00  0.00    +0.000 A 
ATOM     22 CL   UNL     1      -0.480  17.697  17.360  0.00  0.00    +0.000 Cl
ATOM     23  C   UNL     1       0.109  16.034  19.511  0.00  0.00    +0.000 A 
ATOM     24  C   UNL     1       1.021  15.167  20.173  0.00  0.00    +0.000 A 
BRANCH  20  25
ATOM     25  O   UNL     1       2.391  17.698  17.161  0.00  0.00    +0.000 OA
ATOM     26  H   UNL     1       1.978  18.572  17.251  0.00  0.00    +0.000 HD
ENDBRANCH  20  25
BRANCH  23  27
ATOM     27  O   UNL     1      -1.124  16.042  20.100  0.00  0.00    +0.000 OA
ATOM     28  C   UNL     1      -1.603  17.147  20.844  0.00  0.00    +0.000 C 
ENDBRANCH  23  27
BRANCH  18  29
ATOM     29  C   UNL     1       3.458  14.299  20.475  0.00  0.00    +0.000 C 
BRANCH  29  31
ATOM     30  C   UNL     1       3.799  15.639  22.618  0.00  0.00    +0.000 C 
ATOM     31  C   UNL     1       4.455  15.023  21.393  0.00  0.00    +0.000 C 
ENDBRANCH  29  31
ENDBRANCH  18  29
ENDBRANCH  17  24
ENDBRANCH   1  17
TORSDOF 8
ENDMDL
MODEL 6
REMARK VINA RESULT:      -5.5      3.374      5.596
REMARK  Name = 
REMARK  11 active torsions:
REMARK  status: ('A' for Active; 'I' for Inactive)
REMARK    1  A    between atoms: C_1  and  C_2
REMARK    2  A    between atoms: C_2  and  C_3
REMARK    3  A    between atoms: C_3  and  C_4
REMARK    4  A    between atoms: C_6  and  O_7
REMARK    5  A    between atoms: C_10  and  O_11
REMARK    6  A    between atoms: O_11  and  C_12
REMARK    7  A    between atoms: C_13  and  O_14
REMARK    8  A    between atoms: O_14  and  C_15
REMARK    9  A    between atoms: C_18  and  O_19
REMARK   10  A    between atoms: C_27  and  C_28
REMARK   11  A    between atoms: C_28  and  C_29
REMARK                            x       y       z     vdW  Elec       q    Type
REMARK                         _______ _______ _______ _____ _____    ______ ____
ROOT
ATOM      1  C   UNL     1      -0.610  14.152  20.176  0.00  0.00    +0.000 A 
ATOM      2  C   UNL     1      -1.268  15.383  20.126  0.00  0.00    +0.000 A 
ATOM      3 CL   UNL     1      -2.914  15.538  20.637  0.00  0.00    +0.000 Cl
ATOM      4  C   UNL     1      -0.600  16.513  19.620  0.00  0.00    +0.000 A 
ATOM      5  C   UNL     1       0.632  16.369  18.960  0.00  0.00    +0.000 A 
ATOM      6 CL   UNL     1       1.492  17.785  18.476  0.00  0.00    +0.000 Cl
ATOM      7  C   UNL     1       1.208  15.101  18.895  0.00  0.00    +0.000 A 
ATOM      8  C   UNL     1       0.719  14.131  19.763  0.00  0.00    +0.000 A 
ATOM      9  C   UNL     1       1.895  14.193  20.712  0.00  0.00    +0.000 C 
ATOM     10  O   UNL     1       1.899  14.349  21.924  0.00  0.00    +0.000 OA
ATOM     11  O   UNL     1       3.022  14.388  19.930  0.00  0.00    +0.000 OA
ATOM     12  C   UNL     1       2.574  14.607  18.591  0.00  0.00    +0.000 C 
ENDROOT
BRANCH   4  13
ATOM     13  O   UNL     1      -1.138  17.765  19.783  0.00  0.00    +0.000 OA
ATOM     14  H   UNL     1      -0.465  18.422  19.520  0.00  0.00    +0.000 HD
ENDBRANCH   4  13
BRANCH  12  15
ATOM     15  C   UNL     1       3.536  15.349  17.680  0.00  0.00    +0.000 C 
ATOM     16  C   UNL     1       4.803  15.696  18.457  0.00  0.00    +0.000 C 
ENDBRANCH  12  15
BRANCH   1  17
ATOM     17  O   UNL     1      -1.428  13.017  20.181  0.00  0.00    +0.000 OA
BRANCH  17  24
ATOM     18  C   UNL     1      -1.630  12.059  22.371  0.00  0.00    +0.000 A 
ATOM     19  C   UNL     1      -1.249  11.062  23.293  0.00  0.00    +0.000 A 
ATOM     20  C   UNL     1      -0.542   9.941  22.869  0.00  0.00    +0.000 A 
ATOM     21  C   UNL     1      -0.148   9.795  21.535  0.00  0.00    +0.000 A 
ATOM     22 CL   UNL     1       0.573   8.274  21.107  0.00  0.00    +0.000 Cl
ATOM     23  C   UNL     1      -0.390  10.839  20.625  0.00  0.00    +0.000 A 
ATOM     24  C   UNL     1      -1.193  11.940  21.028  0.00  0.00    +0.000 A 
BRANCH  20  25
ATOM     25  O   UNL     1      -0.215   8.973  23.785  0.00  0.00    +0.000 OA
ATOM     26  H   UNL     1      -0.020   8.138  23.329  0.00  0.00    +0.000 HD
ENDBRANCH  20  25
BRANCH  23  27
ATOM     27  O   UNL     1       0.121  11.000  19.367  0.00  0.00    +0.000 OA
ATOM     28  C   UNL     1      -0.363  10.275  18.252  0.00  0.00    +0.000 C 
ENDBRANCH  23  27
BRANCH  18  29
ATOM     29  C   UNL     1      -2.500  13.179  22.911  0.00  0.00    +0.000 C 
BRANCH  29  31
ATOM     30  C   UNL     1      -4.353  12.582  24.558  0.00  0.00    +0.000 C 
ATOM     31  C   UNL     1      -3.981  12.819  23.104  0.00  0.00    +0.000 C 
ENDBRANCH  29  31
ENDBRANCH  18  29
ENDBRANCH  17  24
ENDBRANCH   1  17
TORSDOF 8
ENDMDL
MODEL 7
REMARK VINA RESULT:      -5.4      3.611      5.222
REMARK  Name = 
REMARK  11 active torsions:
REMARK  status: ('A' for Active; 'I' for Inactive)
REMARK    1  A    between atoms: C_1  and  C_2
REMARK    2  A    between atoms: C_2  and  C_3
REMARK    3  A    between atoms: C_3  and  C_4
REMARK    4  A    between atoms: C_6  and  O_7
REMARK    5  A    between atoms: C_10  and  O_11
REMARK    6  A    between atoms: O_11  and  C_12
REMARK    7  A    between atoms: C_13  and  O_14
REMARK    8  A    between atoms: O_14  and  C_15
REMARK    9  A    between atoms: C_18  and  O_19
REMARK   10  A    between atoms: C_27  and  C_28
REMARK   11  A    between atoms: C_28  and  C_29
REMARK                            x       y       z     vdW  Elec       q    Type
REMARK                         _______ _______ _______ _____ _____    ______ ____
ROOT
ATOM      1  C   UNL     1       0.303  13.258  20.918  0.00  0.00    +0.000 A 
ATOM      2  C   UNL     1      -0.377  12.838  22.063  0.00  0.00    +0.000 A 
ATOM      3 CL   UNL     1      -0.867  13.969  23.278  0.00  0.00    +0.000 Cl
ATOM      4  C   UNL     1      -0.641  11.469  22.257  0.00  0.00    +0.000 A 
ATOM      5  C   UNL     1      -0.035  10.508  21.431  0.00  0.00    +0.000 A 
ATOM      6 CL   UNL     1      -0.487   8.852  21.605  0.00  0.00    +0.000 Cl
ATOM      7  C   UNL     1       0.761  10.947  20.373  0.00  0.00    +0.000 A 
ATOM      8  C   UNL     1       0.636  12.277  19.988  0.00  0.00    +0.000 A 
ATOM      9  C   UNL     1      -0.177  11.983  18.748  0.00  0.00    +0.000 C 
ATOM     10  O   UNL     1      -1.247  12.458  18.398  0.00  0.00    +0.000 OA
ATOM     11  O   UNL     1       0.329  10.809  18.214  0.00  0.00    +0.000 OA
ATOM     12  C   UNL     1       1.285  10.300  19.145  0.00  0.00    +0.000 C 
ENDROOT
BRANCH   4  13
ATOM     13  O   UNL     1      -1.507  11.065  23.243  0.00  0.00    +0.000 OA
ATOM     14  H   UNL     1      -1.463  11.716  23.971  0.00  0.00    +0.000 HD
ENDBRANCH   4  13
BRANCH  12  15
ATOM     15  C   UNL     1       1.574   8.812  19.056  0.00  0.00    +0.000 C 
ATOM     16  C   UNL     1       2.306   8.516  17.750  0.00  0.00    +0.000 C 
ENDBRANCH  12  15
BRANCH   1  17
ATOM     17  O   UNL     1       0.975  14.481  21.015  0.00  0.00    +0.000 OA
BRANCH  17  24
ATOM     18  C   UNL     1       2.291  15.498  19.287  0.00  0.00    +0.000 A 
ATOM     19  C   UNL     1       2.440  16.518  18.325  0.00  0.00    +0.000 A 
ATOM     20  C   UNL     1       1.358  17.319  17.971  0.00  0.00    +0.000 A 
ATOM     21  C   UNL     1       0.113  17.170  18.591  0.00  0.00    +0.000 A 
ATOM     22 CL   UNL     1      -1.191  18.111  17.935  0.00  0.00    +0.000 Cl
ATOM     23  C   UNL     1      -0.026  16.258  19.652  0.00  0.00    +0.000 A 
ATOM     24  C   UNL     1       1.046  15.372  19.952  0.00  0.00    +0.000 A 
BRANCH  20  25
ATOM     25  O   UNL     1       1.528  18.282  17.008  0.00  0.00    +0.000 OA
ATOM     26  H   UNL     1       1.869  17.878  16.194  0.00  0.00    +0.000 HD
ENDBRANCH  20  25
BRANCH  23  27
ATOM     27  O   UNL     1      -1.063  16.139  20.535  0.00  0.00    +0.000 OA
ATOM     28  C   UNL     1      -1.374  17.144  21.481  0.00  0.00    +0.000 C 
ENDBRANCH  23  27
BRANCH  18  29
ATOM     29  C   UNL     1       3.496  14.604  19.514  0.00  0.00    +0.000 C 
BRANCH  29  31
ATOM     30  C   UNL     1       5.484  14.605  17.916  0.00  0.00    +0.000 C 
ATOM     31  C   UNL     1       4.850  15.231  19.148  0.00  0.00    +0.000 C 
ENDBRANCH  29  31
ENDBRANCH  18  29
ENDBRANCH  17  24
ENDBRANCH   1  17
TORSDOF 8
ENDMDL
MODEL 8
REMARK VINA RESULT:      -5.4      2.527      6.328
REMARK  Name = 
REMARK  11 active torsions:
REMARK  status: ('A' for Active; 'I' for Inactive)
REMARK    1  A    between atoms: C_1  and  C_2
REMARK    2  A    between atoms: C_2  and  C_3
REMARK    3  A    between atoms: C_3  and  C_4
REMARK    4  A    between atoms: C_6  and  O_7
REMARK    5  A    between atoms: C_10  and  O_11
REMARK    6  A    between atoms: O_11  and  C_12
REMARK    7  A    between atoms: C_13  and  O_14
REMARK    8  A    between atoms: O_14  and  C_15
REMARK    9  A    between atoms: C_18  and  O_19
REMARK   10  A    between atoms: C_27  and  C_28
REMARK   11  A    between atoms: C_28  and  C_29
REMARK                            x       y       z     vdW  Elec       q    Type
REMARK                         _______ _______ _______ _____ _____    ______ ____
ROOT
ATOM      1  C   UNL     1      -2.751  12.841  20.534  0.00  0.00    +0.000 A 
ATOM      2  C   UNL     1      -4.098  12.478  20.489  0.00  0.00    +0.000 A 
ATOM      3 CL   UNL     1      -4.817  11.886  19.031  0.00  0.00    +0.000 Cl
ATOM      4  C   UNL     1      -4.901  12.627  21.636  0.00  0.00    +0.000 A 
ATOM      5  C   UNL     1      -4.422  13.341  22.747  0.00  0.00    +0.000 A 
ATOM      6 CL   UNL     1      -5.373  13.386  24.186  0.00  0.00    +0.000 Cl
ATOM      7  C   UNL     1      -3.113  13.822  22.714  0.00  0.00    +0.000 A 
ATOM      8  C   UNL     1      -2.258  13.285  21.758  0.00  0.00    +0.000 A 
ATOM      9  C   UNL     1      -1.502  12.408  22.729  0.00  0.00    +0.000 C 
ATOM     10  O   UNL     1      -1.272  11.210  22.666  0.00  0.00    +0.000 OA
ATOM     11  O   UNL     1      -1.392  13.128  23.907  0.00  0.00    +0.000 OA
ATOM     12  C   UNL     1      -2.173  14.314  23.752  0.00  0.00    +0.000 C 
ENDROOT
BRANCH   4  13
ATOM     13  O   UNL     1      -6.150  12.059  21.684  0.00  0.00    +0.000 OA
ATOM     14  H   UNL     1      -6.641  12.337  20.886  0.00  0.00    +0.000 HD
ENDBRANCH   4  13
BRANCH  12  15
ATOM     15  C   UNL     1      -2.637  14.979  25.036  0.00  0.00    +0.000 C 
ATOM     16  C   UNL     1      -1.429  15.540  25.780  0.00  0.00    +0.000 C 
ENDBRANCH  12  15
BRANCH   1  17
ATOM     17  O   UNL     1      -2.159  13.163  19.308  0.00  0.00    +0.000 OA
BRANCH  17  24
ATOM     18  C   UNL     1       0.036  14.073  18.981  0.00  0.00    +0.000 A 
ATOM     19  C   UNL     1       1.366  13.891  18.552  0.00  0.00    +0.000 A 
ATOM     20  C   UNL     1       1.860  12.614  18.302  0.00  0.00    +0.000 A 
ATOM     21  C   UNL     1       1.042  11.486  18.419  0.00  0.00    +0.000 A 
ATOM     22 CL   UNL     1       1.825   9.946  18.249  0.00  0.00    +0.000 Cl
ATOM     23  C   UNL     1      -0.325  11.650  18.705  0.00  0.00    +0.000 A 
ATOM     24  C   UNL     1      -0.811  12.940  19.056  0.00  0.00    +0.000 A 
BRANCH  20  25
ATOM     25  O   UNL     1       3.169  12.469  17.918  0.00  0.00    +0.000 OA
ATOM     26  H   UNL     1       3.231  11.833  17.187  0.00  0.00    +0.000 HD
ENDBRANCH  20  25
BRANCH  23  27
ATOM     27  O   UNL     1      -1.325  10.722  18.620  0.00  0.00    +0.000 OA
ATOM     28  C   UNL     1      -1.738  10.161  17.388  0.00  0.00    +0.000 C 
ENDBRANCH  23  27
BRANCH  18  29
ATOM     29  C   UNL     1      -0.368  15.490  19.342  0.00  0.00    +0.000 C 
BRANCH  29  31
ATOM     30  C   UNL     1      -0.824  17.598  17.981  0.00  0.00    +0.000 C 
ATOM     31  C   UNL     1       0.214  16.586  18.435  0.00  0.00    +0.000 C 
ENDBRANCH  29  31
ENDBRANCH  18  29
ENDBRANCH  17  24
ENDBRANCH   1  17
TORSDOF 8
ENDMDL
MODEL 9
REMARK VINA RESULT:      -5.4      2.377      4.267
REMARK  Name = 
REMARK  11 active torsions:
REMARK  status: ('A' for Active; 'I' for Inactive)
REMARK    1  A    between atoms: C_1  and  C_2
REMARK    2  A    between atoms: C_2  and  C_3
REMARK    3  A    between atoms: C_3  and  C_4
REMARK    4  A    between atoms: C_6  and  O_7
REMARK    5  A    between atoms: C_10  and  O_11
REMARK    6  A    between atoms: O_11  and  C_12
REMARK    7  A    between atoms: C_13  and  O_14
REMARK    8  A    between atoms: O_14  and  C_15
REMARK    9  A    between atoms: C_18  and  O_19
REMARK   10  A    between atoms: C_27  and  C_28
REMARK   11  A    between atoms: C_28  and  C_29
REMARK                            x       y       z     vdW  Elec       q    Type
REMARK                         _______ _______ _______ _____ _____    ______ ____
ROOT
ATOM      1  C   UNL     1      -0.877  13.823  20.638  0.00  0.00    +0.000 A 
ATOM      2  C   UNL     1       0.182  14.663  20.286  0.00  0.00    +0.000 A 
ATOM      3 CL   UNL     1       0.186  16.334  20.738  0.00  0.00    +0.000 Cl
ATOM      4  C   UNL     1       1.249  14.159  19.520  0.00  0.00    +0.000 A 
ATOM      5  C   UNL     1       1.153  12.892  18.919  0.00  0.00    +0.000 A 
ATOM      6 CL   UNL     1       2.530  12.246  18.105  0.00  0.00    +0.000 Cl
ATOM      7  C   UNL     1       0.017  12.122  19.170  0.00  0.00    +0.000 A 
ATOM      8  C   UNL     1      -0.780  12.491  20.248  0.00  0.00    +0.000 A 
ATOM      9  C   UNL     1      -0.300  11.381  21.156  0.00  0.00    +0.000 C 
ATOM     10  O   UNL     1       0.142  11.453  22.293  0.00  0.00    +0.000 OA
ATOM     11  O   UNL     1      -0.119  10.266  20.354  0.00  0.00    +0.000 OA
ATOM     12  C   UNL     1      -0.307  10.684  19.001  0.00  0.00    +0.000 C 
ENDROOT
BRANCH   4  13
ATOM     13  O   UNL     1       2.399  14.894  19.368  0.00  0.00    +0.000 OA
ATOM     14  H   UNL     1       2.250  15.547  18.658  0.00  0.00    +0.000 HD
ENDBRANCH   4  13
BRANCH  12  15
ATOM     15  C   UNL     1       0.340   9.813  17.939  0.00  0.00    +0.000 C 
ATOM     16  C   UNL     1       1.446   8.976  18.576  0.00  0.00    +0.000 C 
ENDBRANCH  12  15
BRANCH   1  17
ATOM     17  O   UNL     1      -2.094  14.452  20.920  0.00  0.00    +0.000 OA
BRANCH  17  24
ATOM     18  C   UNL     1      -2.568  13.806  23.181  0.00  0.00    +0.000 A 
ATOM     19  C   UNL     1      -3.397  13.121  24.092  0.00  0.00    +0.000 A 
ATOM     20  C   UNL     1      -4.653  12.667  23.701  0.00  0.00    +0.000 A 
ATOM     21  C   UNL     1      -5.106  12.831  22.388  0.00  0.00    +0.000 A 
ATOM     22 CL   UNL     1      -6.753  12.376  22.078  0.00  0.00    +0.000 Cl
ATOM     23  C   UNL     1      -4.243  13.381  21.423  0.00  0.00    +0.000 A 
ATOM     24  C   UNL     1      -3.000  13.933  21.838  0.00  0.00    +0.000 A 
BRANCH  20  25
ATOM     25  O   UNL     1      -5.450  12.033  24.621  0.00  0.00    +0.000 OA
ATOM     26  H   UNL     1      -6.115  12.652  24.964  0.00  0.00    +0.000 HD
ENDBRANCH  20  25
BRANCH  23  27
ATOM     27  O   UNL     1      -4.395  13.400  20.065  0.00  0.00    +0.000 OA
ATOM     28  C   UNL     1      -4.422  12.217  19.287  0.00  0.00    +0.000 C 
ENDBRANCH  23  27
BRANCH  18  29
ATOM     29  C   UNL     1      -1.272  14.365  23.738  0.00  0.00    +0.000 C 
BRANCH  29  31
ATOM     30  C   UNL     1      -1.389  15.636  25.946  0.00  0.00    +0.000 C 
ATOM     31  C   UNL     1      -1.394  15.731  24.429  0.00  0.00    +0.000 C 
ENDBRANCH  29  31
ENDBRANCH  18  29
ENDBRANCH  17  24
ENDBRANCH   1  17
TORSDOF 8
ENDMDL
