MODEL 1
REMARK VINA RESULT:      -7.8      0.000      0.000
REMARK  Name = 
REMARK  10 active torsions:
REMARK  status: ('A' for Active; 'I' for Inactive)
REMARK    1  A    between atoms: C_1  and  O_2
REMARK    2  A    between atoms: O_2  and  C_3
REMARK    3  A    between atoms: C_6  and  C_7
REMARK    4  A    between atoms: C_9  and  S_10
REMARK    5  A    between atoms: S_10  and  N_13
REMARK    6  A    between atoms: N_13  and  C_14
REMARK    7  A    between atoms: N_13  and  C_18
REMARK    8  A    between atoms: C_14  and  C_15
REMARK    9  A    between atoms: C_15  and  O_17
REMARK   10  A    between atoms: C_21  and  C_22
REMARK                            x       y       z     vdW  Elec       q    Type
REMARK                         _______ _______ _______ _____ _____    ______ ____
ROOT
ATOM      1  N   UNL     1       5.433   4.687  16.906  0.00  0.00    +0.000 N 
ENDROOT
BRANCH   1   2
ATOM      2  C   UNL     1       6.267   5.769  17.413  0.00  0.00    +0.000 A 
ATOM      3  C   UNL     1       7.285   5.549  18.347  0.00  0.00    +0.000 A 
ATOM      4  C   UNL     1       8.116   6.603  18.745  0.00  0.00    +0.000 A 
ATOM      5  C   UNL     1       7.921   7.889  18.232  0.00  0.00    +0.000 A 
ATOM      6  C   UNL     1       8.831   9.020  18.609  0.00  0.00    +0.000 C 
ATOM      7  C   UNL     1       6.857   8.115  17.348  0.00  0.00    +0.000 A 
ATOM      8  C   UNL     1       6.031   7.061  16.945  0.00  0.00    +0.000 A 
ENDBRANCH   1   2
BRANCH   1   9
ATOM      9  S   UNL     1       4.554   3.862  18.159  0.00  0.00    +0.000 S 
ATOM     10  O   UNL     1       5.475   3.598  19.251  0.00  0.00    +0.000 OA
ATOM     11  O   UNL     1       3.802   2.769  17.575  0.00  0.00    +0.000 OA
BRANCH   9  18
ATOM     12  C   UNL     1       2.719   4.878  20.031  0.00  0.00    +0.000 A 
ATOM     13  C   UNL     1       1.996   5.957  20.562  0.00  0.00    +0.000 A 
ATOM     14  C   UNL     1       1.897   7.175  19.878  0.00  0.00    +0.000 A 
ATOM     15  C   UNL     1       2.488   7.335  18.628  0.00  0.00    +0.000 A 
ATOM     16  C   UNL     1       2.331   8.619  17.866  0.00  0.00    +0.000 C 
ATOM     17  C   UNL     1       3.231   6.271  18.098  0.00  0.00    +0.000 A 
ATOM     18  C   UNL     1       3.373   5.057  18.804  0.00  0.00    +0.000 A 
BRANCH  12  20
ATOM     19  C   UNL     1       1.839   3.283  21.592  0.00  0.00    +0.000 C 
ATOM     20  O   UNL     1       2.851   3.680  20.667  0.00  0.00    +0.000 OA
ENDBRANCH  12  20
ENDBRANCH   9  18
ENDBRANCH   1   9
BRANCH   1  21
ATOM     21  C   UNL     1       6.167   3.756  15.951  0.00  0.00    +0.000 C 
BRANCH  21  22
ATOM     22  C   UNL     1       6.181   4.310  14.541  0.00  0.00    +0.000 C 
ATOM     23  O   UNL     1       5.324   4.062  13.701  0.00  0.00    +0.000 OA
BRANCH  22  24
ATOM     24  O   UNL     1       7.223   5.133  14.290  0.00  0.00    +0.000 OA
ATOM     25  H   UNL     1       7.968   4.591  13.956  0.00  0.00    +0.000 HD
ENDBRANCH  22  24
ENDBRANCH  21  22
ENDBRANCH   1  21
TORSDOF 7
ENDMDL
MODEL 2
REMARK VINA RESULT:      -7.6      2.126      3.357
REMARK  Name = 
REMARK  10 active torsions:
REMARK  status: ('A' for Active; 'I' for Inactive)
REMARK    1  A    between atoms: C_1  and  O_2
REMARK    2  A    between atoms: O_2  and  C_3
REMARK    3  A    between atoms: C_6  and  C_7
REMARK    4  A    between atoms: C_9  and  S_10
REMARK    5  A    between atoms: S_10  and  N_13
REMARK    6  A    between atoms: N_13  and  C_14
REMARK    7  A    between atoms: N_13  and  C_18
REMARK    8  A    between atoms: C_14  and  C_15
REMARK    9  A    between atoms: C_15  and  O_17
REMARK   10  A    between atoms: C_21  and  C_22
REMARK                            x       y       z     vdW  Elec       q    Type
REMARK                         _______ _______ _______ _____ _____    ______ ____
ROOT
ATOM      1  N   UNL     1       3.962   2.944  18.466  0.00  0.00    +0.000 N 
ENDROOT
BRANCH   1   2
ATOM      2  C   UNL     1       4.908   4.005  18.147  0.00  0.00    +0.000 A 
ATOM      3  C   UNL     1       5.230   4.345  16.829  0.00  0.00    +0.000 A 
ATOM      4  C   UNL     1       6.079   5.427  16.566  0.00  0.00    +0.000 A 
ATOM      5  C   UNL     1       6.634   6.160  17.620  0.00  0.00    +0.000 A 
ATOM      6  C   UNL     1       7.508   7.352  17.358  0.00  0.00    +0.000 C 
ATOM      7  C   UNL     1       6.360   5.772  18.938  0.00  0.00    +0.000 A 
ATOM      8  C   UNL     1       5.506   4.696  19.200  0.00  0.00    +0.000 A 
ENDBRANCH   1   2
BRANCH   1   9
ATOM      9  S   UNL     1       2.323   3.345  18.049  0.00  0.00    +0.000 S 
ATOM     10  O   UNL     1       1.446   2.410  18.732  0.00  0.00    +0.000 OA
ATOM     11  O   UNL     1       2.220   3.505  16.612  0.00  0.00    +0.000 OA
BRANCH   9  18
ATOM     12  C   UNL     1       1.588   5.080  20.136  0.00  0.00    +0.000 A 
ATOM     13  C   UNL     1       1.580   6.362  20.705  0.00  0.00    +0.000 A 
ATOM     14  C   UNL     1       1.941   7.492  19.961  0.00  0.00    +0.000 A 
ATOM     15  C   UNL     1       2.284   7.374  18.616  0.00  0.00    +0.000 A 
ATOM     16  C   UNL     1       2.612   8.591  17.801  0.00  0.00    +0.000 C 
ATOM     17  C   UNL     1       2.317   6.095  18.044  0.00  0.00    +0.000 A 
ATOM     18  C   UNL     1       1.999   4.947  18.803  0.00  0.00    +0.000 A 
BRANCH  12  20
ATOM     19  C   UNL     1       2.145   3.487  21.841  0.00  0.00    +0.000 C 
ATOM     20  O   UNL     1       1.255   3.952  20.826  0.00  0.00    +0.000 OA
ENDBRANCH  12  20
ENDBRANCH   9  18
ENDBRANCH   1   9
BRANCH   1  21
ATOM     21  C   UNL     1       4.123   2.395  19.876  0.00  0.00    +0.000 C 
BRANCH  21  22
ATOM     22  C   UNL     1       4.849   1.065  19.873  0.00  0.00    +0.000 C 
ATOM     23  O   UNL     1       5.589   0.689  20.773  0.00  0.00    +0.000 OA
BRANCH  22  24
ATOM     24  O   UNL     1       4.587   0.305  18.787  0.00  0.00    +0.000 OA
ATOM     25  H   UNL     1       4.731   0.853  17.988  0.00  0.00    +0.000 HD
ENDBRANCH  22  24
ENDBRANCH  21  22
ENDBRANCH   1  21
TORSDOF 7
ENDMDL
MODEL 3
REMARK VINA RESULT:      -7.6      2.304      5.599
REMARK  Name = 
REMARK  10 active torsions:
REMARK  status: ('A' for Active; 'I' for Inactive)
REMARK    1  A    between atoms: C_1  and  O_2
REMARK    2  A    between atoms: O_2  and  C_3
REMARK    3  A    between atoms: C_6  and  C_7
REMARK    4  A    between atoms: C_9  and  S_10
REMARK    5  A    between atoms: S_10  and  N_13
REMARK    6  A    between atoms: N_13  and  C_14
REMARK    7  A    between atoms: N_13  and  C_18
REMARK    8  A    between atoms: C_14  and  C_15
REMARK    9  A    between atoms: C_15  and  O_17
REMARK   10  A    between atoms: C_21  and  C_22
REMARK                            x       y       z     vdW  Elec       q    Type
REMARK                         _______ _______ _______ _____ _____    ______ ____
ROOT
ATOM      1  N   UNL     1       3.518   4.903  19.695  0.00  0.00    +0.000 N 
ENDROOT
BRANCH   1   2
ATOM      2  C   UNL     1       3.028   6.207  19.269  0.00  0.00    +0.000 A 
ATOM      3  C   UNL     1       3.337   6.747  18.015  0.00  0.00    +0.000 A 
ATOM      4  C   UNL     1       2.777   7.965  17.614  0.00  0.00    +0.000 A 
ATOM      5  C   UNL     1       1.924   8.667  18.472  0.00  0.00    +0.000 A 
ATOM      6  C   UNL     1       1.276   9.950  18.041  0.00  0.00    +0.000 C 
ATOM      7  C   UNL     1       1.672   8.153  19.750  0.00  0.00    +0.000 A 
ATOM      8  C   UNL     1       2.226   6.933  20.149  0.00  0.00    +0.000 A 
ENDBRANCH   1   2
BRANCH   1   9
ATOM      9  S   UNL     1       3.560   3.738  18.405  0.00  0.00    +0.000 S 
ATOM     10  O   UNL     1       2.383   3.943  17.579  0.00  0.00    +0.000 OA
ATOM     11  O   UNL     1       3.830   2.425  18.956  0.00  0.00    +0.000 OA
BRANCH   9  18
ATOM     12  C   UNL     1       6.204   4.556  17.906  0.00  0.00    +0.000 A 
ATOM     13  C   UNL     1       7.295   4.674  17.031  0.00  0.00    +0.000 A 
ATOM     14  C   UNL     1       7.150   4.471  15.654  0.00  0.00    +0.000 A 
ATOM     15  C   UNL     1       5.903   4.180  15.108  0.00  0.00    +0.000 A 
ATOM     16  C   UNL     1       5.734   4.023  13.625  0.00  0.00    +0.000 C 
ATOM     17  C   UNL     1       4.810   4.038  15.975  0.00  0.00    +0.000 A 
ATOM     18  C   UNL     1       4.960   4.196  17.370  0.00  0.00    +0.000 A 
BRANCH  12  20
ATOM     19  C   UNL     1       7.353   5.556  19.759  0.00  0.00    +0.000 C 
ATOM     20  O   UNL     1       6.301   4.733  19.254  0.00  0.00    +0.000 OA
ENDBRANCH  12  20
ENDBRANCH   9  18
ENDBRANCH   1   9
BRANCH   1  21
ATOM     21  C   UNL     1       2.852   4.394  20.965  0.00  0.00    +0.000 C 
BRANCH  21  22
ATOM     22  C   UNL     1       1.592   3.613  20.654  0.00  0.00    +0.000 C 
ATOM     23  O   UNL     1       0.561   4.121  20.230  0.00  0.00    +0.000 OA
BRANCH  22  24
ATOM     24  O   UNL     1       1.709   2.283  20.864  0.00  0.00    +0.000 OA
ATOM     25  H   UNL     1       0.878   1.963  21.274  0.00  0.00    +0.000 HD
ENDBRANCH  22  24
ENDBRANCH  21  22
ENDBRANCH   1  21
TORSDOF 7
ENDMDL
MODEL 4
REMARK VINA RESULT:      -7.3      2.092      3.186
REMARK  Name = 
REMARK  10 active torsions:
REMARK  status: ('A' for Active; 'I' for Inactive)
REMARK    1  A    between atoms: C_1  and  O_2
REMARK    2  A    between atoms: O_2  and  C_3
REMARK    3  A    between atoms: C_6  and  C_7
REMARK    4  A    between atoms: C_9  and  S_10
REMARK    5  A    between atoms: S_10  and  N_13
REMARK    6  A    between atoms: N_13  and  C_14
REMARK    7  A    between atoms: N_13  and  C_18
REMARK    8  A    between atoms: C_14  and  C_15
REMARK    9  A    between atoms: C_15  and  O_17
REMARK   10  A    between atoms: C_21  and  C_22
REMARK                            x       y       z     vdW  Elec       q    Type
REMARK                         _______ _______ _______ _____ _____    ______ ____
ROOT
ATOM      1  N   UNL     1       4.189   3.040  18.477  0.00  0.00    +0.000 N 
ENDROOT
BRANCH   1   2
ATOM      2  C   UNL     1       5.036   4.194  18.207  0.00  0.00    +0.000 A 
ATOM      3  C   UNL     1       5.643   4.928  19.233  0.00  0.00    +0.000 A 
ATOM      4  C   UNL     1       6.516   5.979  18.926  0.00  0.00    +0.000 A 
ATOM      5  C   UNL     1       6.769   6.321  17.594  0.00  0.00    +0.000 A 
ATOM      6  C   UNL     1       7.738   7.412  17.245  0.00  0.00    +0.000 C 
ATOM      7  C   UNL     1       6.107   5.624  16.575  0.00  0.00    +0.000 A 
ATOM      8  C   UNL     1       5.240   4.570  16.881  0.00  0.00    +0.000 A 
ENDBRANCH   1   2
BRANCH   1   9
ATOM      9  S   UNL     1       2.518   3.316  18.085  0.00  0.00    +0.000 S 
ATOM     10  O   UNL     1       1.725   2.318  18.781  0.00  0.00    +0.000 OA
ATOM     11  O   UNL     1       2.383   3.467  16.650  0.00  0.00    +0.000 OA
BRANCH   9  18
ATOM     12  C   UNL     1       1.631   4.985  20.167  0.00  0.00    +0.000 A 
ATOM     13  C   UNL     1       1.537   6.259  20.747  0.00  0.00    +0.000 A 
ATOM     14  C   UNL     1       1.855   7.414  20.024  0.00  0.00    +0.000 A 
ATOM     15  C   UNL     1       2.241   7.330  18.689  0.00  0.00    +0.000 A 
ATOM     16  C   UNL     1       2.523   8.572  17.894  0.00  0.00    +0.000 C 
ATOM     17  C   UNL     1       2.360   6.061  18.106  0.00  0.00    +0.000 A 
ATOM     18  C   UNL     1       2.085   4.889  18.844  0.00  0.00    +0.000 A 
BRANCH  12  20
ATOM     19  C   UNL     1       2.142   3.484  21.968  0.00  0.00    +0.000 C 
ATOM     20  O   UNL     1       1.343   3.833  20.837  0.00  0.00    +0.000 OA
ENDBRANCH  12  20
ENDBRANCH   9  18
ENDBRANCH   1   9
BRANCH   1  21
ATOM     21  C   UNL     1       4.408   2.441  19.859  0.00  0.00    +0.000 C 
BRANCH  21  22
ATOM     22  C   UNL     1       4.885   1.005  19.771  0.00  0.00    +0.000 C 
ATOM     23  O   UNL     1       5.603   0.472  20.607  0.00  0.00    +0.000 OA
BRANCH  22  24
ATOM     24  O   UNL     1       4.425   0.344  18.686  0.00  0.00    +0.000 OA
ATOM     25  H   UNL     1       4.561  -0.615  18.832  0.00  0.00    +0.000 HD
ENDBRANCH  22  24
ENDBRANCH  21  22
ENDBRANCH   1  21
TORSDOF 7
ENDMDL
MODEL 5
REMARK VINA RESULT:      -7.3      2.307      5.547
REMARK  Name = 
REMARK  10 active torsions:
REMARK  status: ('A' for Active; 'I' for Inactive)
REMARK    1  A    between atoms: C_1  and  O_2
REMARK    2  A    between atoms: O_2  and  C_3
REMARK    3  A    between atoms: C_6  and  C_7
REMARK    4  A    between atoms: C_9  and  S_10
REMARK    5  A    between atoms: S_10  and  N_13
REMARK    6  A    between atoms: N_13  and  C_14
REMARK    7  A    between atoms: N_13  and  C_18
REMARK    8  A    between atoms: C_14  and  C_15
REMARK    9  A    between atoms: C_15  and  O_17
REMARK   10  A    between atoms: C_21  and  C_22
REMARK                            x       y       z     vdW  Elec       q    Type
REMARK                         _______ _______ _______ _____ _____    ______ ____
ROOT
ATOM      1  N   UNL     1       3.171   4.192  19.118  0.00  0.00    +0.000 N 
ENDROOT
BRANCH   1   2
ATOM      2  C   UNL     1       2.949   5.602  18.827  0.00  0.00    +0.000 A 
ATOM      3  C   UNL     1       3.397   6.197  17.642  0.00  0.00    +0.000 A 
ATOM      4  C   UNL     1       3.090   7.534  17.364  0.00  0.00    +0.000 A 
ATOM      5  C   UNL     1       2.355   8.294  18.280  0.00  0.00    +0.000 A 
ATOM      6  C   UNL     1       1.975   9.714  17.978  0.00  0.00    +0.000 C 
ATOM      7  C   UNL     1       1.967   7.711  19.493  0.00  0.00    +0.000 A 
ATOM      8  C   UNL     1       2.268   6.373  19.767  0.00  0.00    +0.000 A 
ENDBRANCH   1   2
BRANCH   1   9
ATOM      9  S   UNL     1       3.407   3.231  17.689  0.00  0.00    +0.000 S 
ATOM     10  O   UNL     1       2.310   3.507  16.778  0.00  0.00    +0.000 OA
ATOM     11  O   UNL     1       3.693   1.864  18.074  0.00  0.00    +0.000 OA
BRANCH   9  18
ATOM     12  C   UNL     1       6.016   4.276  17.604  0.00  0.00    +0.000 A 
ATOM     13  C   UNL     1       7.189   4.561  16.888  0.00  0.00    +0.000 A 
ATOM     14  C   UNL     1       7.222   4.499  15.490  0.00  0.00    +0.000 A 
ATOM     15  C   UNL     1       6.074   4.184  14.768  0.00  0.00    +0.000 A 
ATOM     16  C   UNL     1       6.093   4.177  13.267  0.00  0.00    +0.000 C 
ATOM     17  C   UNL     1       4.903   3.876  15.474  0.00  0.00    +0.000 A 
ATOM     18  C   UNL     1       4.876   3.892  16.886  0.00  0.00    +0.000 A 
BRANCH  12  20
ATOM     19  C   UNL     1       6.683   5.315  19.662  0.00  0.00    +0.000 C 
ATOM     20  O   UNL     1       5.942   4.313  18.965  0.00  0.00    +0.000 OA
ENDBRANCH  12  20
ENDBRANCH   9  18
ENDBRANCH   1   9
BRANCH   1  21
ATOM     21  C   UNL     1       2.155   3.610  20.092  0.00  0.00    +0.000 C 
BRANCH  21  22
ATOM     22  C   UNL     1       2.836   2.845  21.209  0.00  0.00    +0.000 C 
ATOM     23  O   UNL     1       3.973   2.396  21.135  0.00  0.00    +0.000 OA
BRANCH  22  24
ATOM     24  O   UNL     1       2.079   2.719  22.322  0.00  0.00    +0.000 OA
ATOM     25  H   UNL     1       1.456   1.975  22.185  0.00  0.00    +0.000 HD
ENDBRANCH  22  24
ENDBRANCH  21  22
ENDBRANCH   1  21
TORSDOF 7
ENDMDL
MODEL 6
REMARK VINA RESULT:      -7.2      2.046      5.488
REMARK  Name = 
REMARK  10 active torsions:
REMARK  status: ('A' for Active; 'I' for Inactive)
REMARK    1  A    between atoms: C_1  and  O_2
REMARK    2  A    between atoms: O_2  and  C_3
REMARK    3  A    between atoms: C_6  and  C_7
REMARK    4  A    between atoms: C_9  and  S_10
REMARK    5  A    between atoms: S_10  and  N_13
REMARK    6  A    between atoms: N_13  and  C_14
REMARK    7  A    between atoms: N_13  and  C_18
REMARK    8  A    between atoms: C_14  and  C_15
REMARK    9  A    between atoms: C_15  and  O_17
REMARK   10  A    between atoms: C_21  and  C_22
REMARK                            x       y       z     vdW  Elec       q    Type
REMARK                         _______ _______ _______ _____ _____    ______ ____
ROOT
ATOM      1  N   UNL     1       3.271   4.615  18.717  0.00  0.00    +0.000 N 
ENDROOT
BRANCH   1   2
ATOM      2  C   UNL     1       2.858   6.012  18.750  0.00  0.00    +0.000 A 
ATOM      3  C   UNL     1       3.056   6.873  17.664  0.00  0.00    +0.000 A 
ATOM      4  C   UNL     1       2.570   8.185  17.706  0.00  0.00    +0.000 A 
ATOM      5  C   UNL     1       1.905   8.655  18.843  0.00  0.00    +0.000 A 
ATOM      6  C   UNL     1       1.334  10.042  18.888  0.00  0.00    +0.000 C 
ATOM      7  C   UNL     1       1.769   7.809  19.951  0.00  0.00    +0.000 A 
ATOM      8  C   UNL     1       2.249   6.496  19.906  0.00  0.00    +0.000 A 
ENDBRANCH   1   2
BRANCH   1   9
ATOM      9  S   UNL     1       4.990   4.411  18.865  0.00  0.00    +0.000 S 
ATOM     10  O   UNL     1       5.258   2.995  19.055  0.00  0.00    +0.000 OA
ATOM     11  O   UNL     1       5.506   5.371  19.820  0.00  0.00    +0.000 OA
BRANCH   9  18
ATOM     12  C   UNL     1       6.782   5.667  17.100  0.00  0.00    +0.000 A 
ATOM     13  C   UNL     1       7.391   5.746  15.838  0.00  0.00    +0.000 A 
ATOM     14  C   UNL     1       6.897   5.026  14.744  0.00  0.00    +0.000 A 
ATOM     15  C   UNL     1       5.759   4.234  14.874  0.00  0.00    +0.000 A 
ATOM     16  C   UNL     1       5.193   3.509  13.688  0.00  0.00    +0.000 C 
ATOM     17  C   UNL     1       5.157   4.129  16.135  0.00  0.00    +0.000 A 
ATOM     18  C   UNL     1       5.678   4.818  17.253  0.00  0.00    +0.000 A 
BRANCH  12  20
ATOM     19  C   UNL     1       7.868   7.608  18.001  0.00  0.00    +0.000 C 
ATOM     20  O   UNL     1       7.237   6.342  18.194  0.00  0.00    +0.000 OA
ENDBRANCH  12  20
ENDBRANCH   9  18
ENDBRANCH   1   9
BRANCH   1  21
ATOM     21  C   UNL     1       2.653   3.830  17.569  0.00  0.00    +0.000 C 
BRANCH  21  22
ATOM     22  C   UNL     1       1.970   2.571  18.064  0.00  0.00    +0.000 C 
ATOM     23  O   UNL     1       0.775   2.499  18.320  0.00  0.00    +0.000 OA
BRANCH  22  24
ATOM     24  O   UNL     1       2.799   1.511  18.177  0.00  0.00    +0.000 OA
ATOM     25  H   UNL     1       3.662   1.831  18.516  0.00  0.00    +0.000 HD
ENDBRANCH  22  24
ENDBRANCH  21  22
ENDBRANCH   1  21
TORSDOF 7
ENDMDL
MODEL 7
REMARK VINA RESULT:      -7.2      2.304      5.533
REMARK  Name = 
REMARK  10 active torsions:
REMARK  status: ('A' for Active; 'I' for Inactive)
REMARK    1  A    between atoms: C_1  and  O_2
REMARK    2  A    between atoms: O_2  and  C_3
REMARK    3  A    between atoms: C_6  and  C_7
REMARK    4  A    between atoms: C_9  and  S_10
REMARK    5  A    between atoms: S_10  and  N_13
REMARK    6  A    between atoms: N_13  and  C_14
REMARK    7  A    between atoms: N_13  and  C_18
REMARK    8  A    between atoms: C_14  and  C_15
REMARK    9  A    between atoms: C_15  and  O_17
REMARK   10  A    between atoms: C_21  and  C_22
REMARK                            x       y       z     vdW  Elec       q    Type
REMARK                         _______ _______ _______ _____ _____    ______ ____
ROOT
ATOM      1  N   UNL     1       3.505   3.922  19.277  0.00  0.00    +0.000 N 
ENDROOT
BRANCH   1   2
ATOM      2  C   UNL     1       2.847   5.210  19.453  0.00  0.00    +0.000 A 
ATOM      3  C   UNL     1       1.959   5.455  20.507  0.00  0.00    +0.000 A 
ATOM      4  C   UNL     1       1.414   6.731  20.687  0.00  0.00    +0.000 A 
ATOM      5  C   UNL     1       1.730   7.766  19.801  0.00  0.00    +0.000 A 
ATOM      6  C   UNL     1       1.193   9.152  20.006  0.00  0.00    +0.000 C 
ATOM      7  C   UNL     1       2.567   7.496  18.711  0.00  0.00    +0.000 A 
ATOM      8  C   UNL     1       3.118   6.222  18.535  0.00  0.00    +0.000 A 
ENDBRANCH   1   2
BRANCH   1   9
ATOM      9  S   UNL     1       3.364   3.302  17.659  0.00  0.00    +0.000 S 
ATOM     10  O   UNL     1       2.213   3.933  17.037  0.00  0.00    +0.000 OA
ATOM     11  O   UNL     1       3.458   1.857  17.691  0.00  0.00    +0.000 OA
BRANCH   9  18
ATOM     12  C   UNL     1       5.964   4.344  17.414  0.00  0.00    +0.000 A 
ATOM     13  C   UNL     1       7.104   4.595  16.636  0.00  0.00    +0.000 A 
ATOM     14  C   UNL     1       7.078   4.466  15.242  0.00  0.00    +0.000 A 
ATOM     15  C   UNL     1       5.901   4.117  14.585  0.00  0.00    +0.000 A 
ATOM     16  C   UNL     1       5.856   4.038  13.087  0.00  0.00    +0.000 C 
ATOM     17  C   UNL     1       4.763   3.841  15.354  0.00  0.00    +0.000 A 
ATOM     18  C   UNL     1       4.795   3.925  16.764  0.00  0.00    +0.000 A 
BRANCH  12  20
ATOM     19  C   UNL     1       6.754   5.448  19.392  0.00  0.00    +0.000 C 
ATOM     20  O   UNL     1       5.947   4.446  18.773  0.00  0.00    +0.000 OA
ENDBRANCH  12  20
ENDBRANCH   9  18
ENDBRANCH   1   9
BRANCH   1  21
ATOM     21  C   UNL     1       3.151   2.911  20.359  0.00  0.00    +0.000 C 
BRANCH  21  22
ATOM     22  C   UNL     1       4.351   2.067  20.741  0.00  0.00    +0.000 C 
ATOM     23  O   UNL     1       4.456   1.473  21.806  0.00  0.00    +0.000 OA
BRANCH  22  24
ATOM     24  O   UNL     1       5.300   2.005  19.781  0.00  0.00    +0.000 OA
ATOM     25  H   UNL     1       5.537   1.063  19.645  0.00  0.00    +0.000 HD
ENDBRANCH  22  24
ENDBRANCH  21  22
ENDBRANCH   1  21
TORSDOF 7
ENDMDL
MODEL 8
REMARK VINA RESULT:      -7.1      1.745      5.849
REMARK  Name = 
REMARK  10 active torsions:
REMARK  status: ('A' for Active; 'I' for Inactive)
REMARK    1  A    between atoms: C_1  and  O_2
REMARK    2  A    between atoms: O_2  and  C_3
REMARK    3  A    between atoms: C_6  and  C_7
REMARK    4  A    between atoms: C_9  and  S_10
REMARK    5  A    between atoms: S_10  and  N_13
REMARK    6  A    between atoms: N_13  and  C_14
REMARK    7  A    between atoms: N_13  and  C_18
REMARK    8  A    between atoms: C_14  and  C_15
REMARK    9  A    between atoms: C_15  and  O_17
REMARK   10  A    between atoms: C_21  and  C_22
REMARK                            x       y       z     vdW  Elec       q    Type
REMARK                         _______ _______ _______ _____ _____    ______ ____
ROOT
ATOM      1  N   UNL     1       2.956   4.175  19.379  0.00  0.00    +0.000 N 
ENDROOT
BRANCH   1   2
ATOM      2  C   UNL     1       2.615   5.586  19.260  0.00  0.00    +0.000 A 
ATOM      3  C   UNL     1       2.785   6.296  18.067  0.00  0.00    +0.000 A 
ATOM      4  C   UNL     1       2.366   7.629  17.973  0.00  0.00    +0.000 A 
ATOM      5  C   UNL     1       1.799   8.270  19.079  0.00  0.00    +0.000 A 
ATOM      6  C   UNL     1       1.300   9.682  18.984  0.00  0.00    +0.000 C 
ATOM      7  C   UNL     1       1.693   7.573  20.289  0.00  0.00    +0.000 A 
ATOM      8  C   UNL     1       2.105   6.240  20.381  0.00  0.00    +0.000 A 
ENDBRANCH   1   2
BRANCH   1   9
ATOM      9  S   UNL     1       3.549   3.492  17.894  0.00  0.00    +0.000 S 
ATOM     10  O   UNL     1       2.708   3.976  16.812  0.00  0.00    +0.000 OA
ATOM     11  O   UNL     1       3.744   2.067  18.067  0.00  0.00    +0.000 OA
BRANCH   9  18
ATOM     12  C   UNL     1       5.629   4.564  16.336  0.00  0.00    +0.000 A 
ATOM     13  C   UNL     1       6.791   5.344  16.230  0.00  0.00    +0.000 A 
ATOM     14  C   UNL     1       7.493   5.764  17.366  0.00  0.00    +0.000 A 
ATOM     15  C   UNL     1       7.072   5.385  18.638  0.00  0.00    +0.000 A 
ATOM     16  C   UNL     1       7.858   5.783  19.854  0.00  0.00    +0.000 C 
ATOM     17  C   UNL     1       5.901   4.624  18.757  0.00  0.00    +0.000 A 
ATOM     18  C   UNL     1       5.163   4.237  17.616  0.00  0.00    +0.000 A 
BRANCH  12  20
ATOM     19  C   UNL     1       5.566   4.046  13.994  0.00  0.00    +0.000 C 
ATOM     20  O   UNL     1       4.909   4.143  15.258  0.00  0.00    +0.000 OA
ENDBRANCH  12  20
ENDBRANCH   9  18
ENDBRANCH   1   9
BRANCH   1  21
ATOM     21  C   UNL     1       1.870   3.345  20.049  0.00  0.00    +0.000 C 
BRANCH  21  22
ATOM     22  C   UNL     1       2.383   2.677  21.309  0.00  0.00    +0.000 C 
ATOM     23  O   UNL     1       3.529   2.271  21.448  0.00  0.00    +0.000 OA
BRANCH  22  24
ATOM     24  O   UNL     1       1.460   2.588  22.292  0.00  0.00    +0.000 OA
ATOM     25  H   UNL     1       1.921   2.666  23.153  0.00  0.00    +0.000 HD
ENDBRANCH  22  24
ENDBRANCH  21  22
ENDBRANCH   1  21
TORSDOF 7
ENDMDL
MODEL 9
REMARK VINA RESULT:      -6.9      1.842      3.514
REMARK  Name = 
REMARK  10 active torsions:
REMARK  status: ('A' for Active; 'I' for Inactive)
REMARK    1  A    between atoms: C_1  and  O_2
REMARK    2  A    between atoms: O_2  and  C_3
REMARK    3  A    between atoms: C_6  and  C_7
REMARK    4  A    between atoms: C_9  and  S_10
REMARK    5  A    between atoms: S_10  and  N_13
REMARK    6  A    between atoms: N_13  and  C_14
REMARK    7  A    between atoms: N_13  and  C_18
REMARK    8  A    between atoms: C_14  and  C_15
REMARK    9  A    between atoms: C_15  and  O_17
REMARK   10  A    between atoms: C_21  and  C_22
REMARK                            x       y       z     vdW  Elec       q    Type
REMARK                         _______ _______ _______ _____ _____    ______ ____
ROOT
ATOM      1  N   UNL     1       5.974   4.418  18.146  0.00  0.00    +0.000 N 
ENDROOT
BRANCH   1   2
ATOM      2  C   UNL     1       6.107   4.402  16.695  0.00  0.00    +0.000 A 
ATOM      3  C   UNL     1       7.314   4.707  16.055  0.00  0.00    +0.000 A 
ATOM      4  C   UNL     1       7.421   4.599  14.663  0.00  0.00    +0.000 A 
ATOM      5  C   UNL     1       6.317   4.210  13.898  0.00  0.00    +0.000 A 
ATOM      6  C   UNL     1       6.425   4.042  12.411  0.00  0.00    +0.000 C 
ATOM      7  C   UNL     1       5.094   3.971  14.540  0.00  0.00    +0.000 A 
ATOM      8  C   UNL     1       4.989   4.072  15.931  0.00  0.00    +0.000 A 
ENDBRANCH   1   2
BRANCH   1   9
ATOM      9  S   UNL     1       4.579   3.547  18.710  0.00  0.00    +0.000 S 
ATOM     10  O   UNL     1       4.940   2.879  19.948  0.00  0.00    +0.000 OA
ATOM     11  O   UNL     1       4.022   2.777  17.616  0.00  0.00    +0.000 OA
BRANCH   9  18
ATOM     12  C   UNL     1       2.609   4.706  20.346  0.00  0.00    +0.000 A 
ATOM     13  C   UNL     1       1.863   5.826  20.743  0.00  0.00    +0.000 A 
ATOM     14  C   UNL     1       1.845   6.998  19.978  0.00  0.00    +0.000 A 
ATOM     15  C   UNL     1       2.544   7.069  18.776  0.00  0.00    +0.000 A 
ATOM     16  C   UNL     1       2.477   8.303  17.924  0.00  0.00    +0.000 C 
ATOM     17  C   UNL     1       3.311   5.964  18.381  0.00  0.00    +0.000 A 
ATOM     18  C   UNL     1       3.369   4.796  19.173  0.00  0.00    +0.000 A 
BRANCH  12  20
ATOM     19  C   UNL     1       1.452   2.829  21.294  0.00  0.00    +0.000 C 
ATOM     20  O   UNL     1       2.664   3.549  21.066  0.00  0.00    +0.000 OA
ENDBRANCH  12  20
ENDBRANCH   9  18
ENDBRANCH   1   9
BRANCH   1  21
ATOM     21  C   UNL     1       6.119   5.808  18.750  0.00  0.00    +0.000 C 
BRANCH  21  22
ATOM     22  C   UNL     1       7.526   6.044  19.261  0.00  0.00    +0.000 C 
ATOM     23  O   UNL     1       8.314   6.831  18.753  0.00  0.00    +0.000 OA
BRANCH  22  24
ATOM     24  O   UNL     1       7.835   5.319  20.359  0.00  0.00    +0.000 OA
ATOM     25  H   UNL     1       7.992   4.393  20.080  0.00  0.00    +0.000 HD
ENDBRANCH  22  24
ENDBRANCH  21  22
ENDBRANCH   1  21
TORSDOF 7
ENDMDL
