MODEL 1
REMARK VINA RESULT:      -6.9      0.000      0.000
REMARK  Name = 
REMARK  3 active torsions:
REMARK  status: ('A' for Active; 'I' for Inactive)
REMARK    1  A    between atoms: C_1  and  N_2
REMARK    2  A    between atoms: N_11  and  C_12
REMARK    3  A    between atoms: C_16  and  C_17
REMARK                            x       y       z     vdW  Elec       q    Type
REMARK                         _______ _______ _______ _____ _____    ______ ____
ROOT
ATOM      1  C   UNL     1      -0.346   9.270  22.696  0.00  0.00    +0.000 C 
ATOM      2  N   UNL     1       0.519   9.514  21.573  0.00  0.00    +0.000 N 
ATOM      3  C   UNL     1       0.327  10.718  20.767  0.00  0.00    +0.000 C 
ATOM      4  C   UNL     1       0.939  10.261  19.445  0.00  0.00    +0.000 C 
ATOM      5  O   UNL     1       0.951  10.920  18.415  0.00  0.00    +0.000 OA
ATOM      6  N   UNL     1       1.452   8.983  19.586  0.00  0.00    +0.000 NA
ATOM      7  C   UNL     1       1.153   8.587  20.792  0.00  0.00    +0.000 C 
ATOM      8  N   UNL     1       1.463   7.327  21.240  0.00  0.00    +0.000 N 
ATOM      9  C   UNL     1       2.049   6.270  20.569  0.00  0.00    +0.000 C 
ATOM     10  O   UNL     1       2.109   5.174  21.120  0.00  0.00    +0.000 OA
ATOM     11  N   UNL     1       2.546   6.565  19.326  0.00  0.00    +0.000 N 
ATOM     12  H   UNL     1       1.191   7.086  22.179  0.00  0.00    +0.000 HD
ATOM     13  H   UNL     1       2.727   7.553  19.167  0.00  0.00    +0.000 HD
ENDROOT
BRANCH  11  14
ATOM     14  C   UNL     1       3.129   5.637  18.453  0.00  0.00    +0.000 A 
ATOM     15  C   UNL     1       2.317   4.647  17.896  0.00  0.00    +0.000 A 
ATOM     16  C   UNL     1       2.862   3.704  17.022  0.00  0.00    +0.000 A 
ATOM     17  C   UNL     1       4.232   3.706  16.761  0.00  0.00    +0.000 A 
ATOM     18  C   UNL     1       5.057   4.668  17.356  0.00  0.00    +0.000 A 
ATOM     19  C   UNL     1       4.500   5.650  18.183  0.00  0.00    +0.000 A 
BRANCH  18  20
ATOM     20  C   UNL     1       6.476   4.627  17.142  0.00  0.00    +0.000 C 
ATOM     21  N   UNL     1       7.622   4.569  16.980  0.00  0.00    +0.000 NA
ENDBRANCH  18  20
ENDBRANCH  11  14
TORSDOF 2
ENDMDL
MODEL 2
REMARK VINA RESULT:      -6.5      2.142      7.132
REMARK  Name = 
REMARK  3 active torsions:
REMARK  status: ('A' for Active; 'I' for Inactive)
REMARK    1  A    between atoms: C_1  and  N_2
REMARK    2  A    between atoms: N_11  and  C_12
REMARK    3  A    between atoms: C_16  and  C_17
REMARK                            x       y       z     vdW  Elec       q    Type
REMARK                         _______ _______ _______ _____ _____    ______ ____
ROOT
ATOM      1  C   UNL     1       4.068   3.308  18.067  0.00  0.00    +0.000 C 
ATOM      2  N   UNL     1       3.667   3.707  19.389  0.00  0.00    +0.000 N 
ATOM      3  C   UNL     1       3.320   2.685  20.374  0.00  0.00    +0.000 C 
ATOM      4  C   UNL     1       2.404   3.490  21.292  0.00  0.00    +0.000 C 
ATOM      5  O   UNL     1       1.796   3.032  22.250  0.00  0.00    +0.000 OA
ATOM      6  N   UNL     1       2.346   4.803  20.858  0.00  0.00    +0.000 NA
ATOM      7  C   UNL     1       3.041   4.868  19.757  0.00  0.00    +0.000 C 
ATOM      8  N   UNL     1       3.138   6.025  19.026  0.00  0.00    +0.000 N 
ATOM      9  C   UNL     1       2.534   7.252  19.231  0.00  0.00    +0.000 C 
ATOM     10  O   UNL     1       2.646   8.122  18.371  0.00  0.00    +0.000 OA
ATOM     11  N   UNL     1       1.873   7.391  20.424  0.00  0.00    +0.000 N 
ATOM     12  H   UNL     1       3.682   5.998  18.179  0.00  0.00    +0.000 HD
ATOM     13  H   UNL     1       2.160   6.735  21.145  0.00  0.00    +0.000 HD
ENDROOT
BRANCH  11  14
ATOM     14  C   UNL     1       1.149   8.525  20.814  0.00  0.00    +0.000 A 
ATOM     15  C   UNL     1       0.962   8.757  22.178  0.00  0.00    +0.000 A 
ATOM     16  C   UNL     1       0.245   9.876  22.607  0.00  0.00    +0.000 A 
ATOM     17  C   UNL     1      -0.347  10.724  21.671  0.00  0.00    +0.000 A 
ATOM     18  C   UNL     1      -0.202  10.467  20.302  0.00  0.00    +0.000 A 
ATOM     19  C   UNL     1       0.568   9.380  19.874  0.00  0.00    +0.000 A 
BRANCH  18  20
ATOM     20  C   UNL     1      -0.868  11.300  19.342  0.00  0.00    +0.000 C 
ATOM     21  N   UNL     1      -1.386  11.967  18.547  0.00  0.00    +0.000 NA
ENDBRANCH  18  20
ENDBRANCH  11  14
TORSDOF 2
ENDMDL
MODEL 3
REMARK VINA RESULT:      -6.5      4.241      7.764
REMARK  Name = 
REMARK  3 active torsions:
REMARK  status: ('A' for Active; 'I' for Inactive)
REMARK    1  A    between atoms: C_1  and  N_2
REMARK    2  A    between atoms: N_11  and  C_12
REMARK    3  A    between atoms: C_16  and  C_17
REMARK                            x       y       z     vdW  Elec       q    Type
REMARK                         _______ _______ _______ _____ _____    ______ ____
ROOT
ATOM      1  C   UNL     1       8.704   5.811  12.865  0.00  0.00    +0.000 C 
ATOM      2  N   UNL     1       7.671   4.868  13.201  0.00  0.00    +0.000 N 
ATOM      3  C   UNL     1       7.004   4.123  12.135  0.00  0.00    +0.000 C 
ATOM      4  C   UNL     1       5.676   3.803  12.816  0.00  0.00    +0.000 C 
ATOM      5  O   UNL     1       4.734   3.236  12.280  0.00  0.00    +0.000 OA
ATOM      6  N   UNL     1       5.694   4.275  14.117  0.00  0.00    +0.000 NA
ATOM      7  C   UNL     1       6.824   4.906  14.275  0.00  0.00    +0.000 C 
ATOM      8  N   UNL     1       7.136   5.556  15.443  0.00  0.00    +0.000 N 
ATOM      9  C   UNL     1       6.380   5.729  16.587  0.00  0.00    +0.000 C 
ATOM     10  O   UNL     1       6.799   6.471  17.472  0.00  0.00    +0.000 OA
ATOM     11  N   UNL     1       5.212   5.012  16.635  0.00  0.00    +0.000 N 
ATOM     12  H   UNL     1       8.022   6.032  15.489  0.00  0.00    +0.000 HD
ATOM     13  H   UNL     1       5.183   4.210  16.010  0.00  0.00    +0.000 HD
ENDROOT
BRANCH  11  14
ATOM     14  C   UNL     1       4.271   5.077  17.670  0.00  0.00    +0.000 A 
ATOM     15  C   UNL     1       3.489   6.229  17.786  0.00  0.00    +0.000 A 
ATOM     16  C   UNL     1       2.541   6.332  18.805  0.00  0.00    +0.000 A 
ATOM     17  C   UNL     1       2.424   5.315  19.753  0.00  0.00    +0.000 A 
ATOM     18  C   UNL     1       3.240   4.181  19.668  0.00  0.00    +0.000 A 
ATOM     19  C   UNL     1       4.147   4.051  18.610  0.00  0.00    +0.000 A 
BRANCH  18  20
ATOM     20  C   UNL     1       3.167   3.167  20.681  0.00  0.00    +0.000 C 
ATOM     21  N   UNL     1       3.095   2.366  21.517  0.00  0.00    +0.000 NA
ENDBRANCH  18  20
ENDBRANCH  11  14
TORSDOF 2
ENDMDL
MODEL 4
REMARK VINA RESULT:      -6.4      4.343      7.930
REMARK  Name = 
REMARK  3 active torsions:
REMARK  status: ('A' for Active; 'I' for Inactive)
REMARK    1  A    between atoms: C_1  and  N_2
REMARK    2  A    between atoms: N_11  and  C_12
REMARK    3  A    between atoms: C_16  and  C_17
REMARK                            x       y       z     vdW  Elec       q    Type
REMARK                         _______ _______ _______ _____ _____    ______ ____
ROOT
ATOM      1  C   UNL     1       8.718   5.822  12.848  0.00  0.00    +0.000 C 
ATOM      2  N   UNL     1       7.696   4.847  13.119  0.00  0.00    +0.000 N 
ATOM      3  C   UNL     1       7.119   4.083  12.015  0.00  0.00    +0.000 C 
ATOM      4  C   UNL     1       5.762   3.721  12.613  0.00  0.00    +0.000 C 
ATOM      5  O   UNL     1       4.873   3.126  12.020  0.00  0.00    +0.000 OA
ATOM      6  N   UNL     1       5.685   4.191  13.913  0.00  0.00    +0.000 NA
ATOM      7  C   UNL     1       6.783   4.857  14.140  0.00  0.00    +0.000 C 
ATOM      8  N   UNL     1       7.003   5.514  15.324  0.00  0.00    +0.000 N 
ATOM      9  C   UNL     1       6.172   5.661  16.419  0.00  0.00    +0.000 C 
ATOM     10  O   UNL     1       6.514   6.414  17.329  0.00  0.00    +0.000 OA
ATOM     11  N   UNL     1       5.027   4.908  16.396  0.00  0.00    +0.000 N 
ATOM     12  H   UNL     1       7.869   6.017  15.425  0.00  0.00    +0.000 HD
ATOM     13  H   UNL     1       5.061   4.107  15.771  0.00  0.00    +0.000 HD
ENDROOT
BRANCH  11  14
ATOM     14  C   UNL     1       4.022   4.942  17.372  0.00  0.00    +0.000 A 
ATOM     15  C   UNL     1       4.064   5.954  18.333  0.00  0.00    +0.000 A 
ATOM     16  C   UNL     1       3.081   6.021  19.322  0.00  0.00    +0.000 A 
ATOM     17  C   UNL     1       2.098   5.035  19.395  0.00  0.00    +0.000 A 
ATOM     18  C   UNL     1       2.082   3.991  18.462  0.00  0.00    +0.000 A 
ATOM     19  C   UNL     1       3.031   3.960  17.434  0.00  0.00    +0.000 A 
BRANCH  18  20
ATOM     20  C   UNL     1       1.112   2.940  18.578  0.00  0.00    +0.000 C 
ATOM     21  N   UNL     1       0.344   2.075  18.655  0.00  0.00    +0.000 NA
ENDBRANCH  18  20
ENDBRANCH  11  14
TORSDOF 2
ENDMDL
MODEL 5
REMARK VINA RESULT:      -6.3      2.061      2.802
REMARK  Name = 
REMARK  3 active torsions:
REMARK  status: ('A' for Active; 'I' for Inactive)
REMARK    1  A    between atoms: C_1  and  N_2
REMARK    2  A    between atoms: N_11  and  C_12
REMARK    3  A    between atoms: C_16  and  C_17
REMARK                            x       y       z     vdW  Elec       q    Type
REMARK                         _______ _______ _______ _____ _____    ______ ____
ROOT
ATOM      1  C   UNL     1       0.322  12.362  19.804  0.00  0.00    +0.000 C 
ATOM      2  N   UNL     1       0.108  11.176  20.589  0.00  0.00    +0.000 N 
ATOM      3  C   UNL     1      -0.263  11.304  21.997  0.00  0.00    +0.000 C 
ATOM      4  C   UNL     1       0.235   9.964  22.533  0.00  0.00    +0.000 C 
ATOM      5  O   UNL     1       0.209   9.627  23.709  0.00  0.00    +0.000 OA
ATOM      6  N   UNL     1       0.743   9.206  21.492  0.00  0.00    +0.000 NA
ATOM      7  C   UNL     1       0.689   9.948  20.422  0.00  0.00    +0.000 C 
ATOM      8  N   UNL     1       1.177   9.518  19.214  0.00  0.00    +0.000 N 
ATOM      9  C   UNL     1       1.830   8.342  18.893  0.00  0.00    +0.000 C 
ATOM     10  O   UNL     1       2.313   8.216  17.771  0.00  0.00    +0.000 OA
ATOM     11  N   UNL     1       1.851   7.392  19.881  0.00  0.00    +0.000 N 
ATOM     12  H   UNL     1       1.112  10.150  18.432  0.00  0.00    +0.000 HD
ATOM     13  H   UNL     1       1.133   7.506  20.593  0.00  0.00    +0.000 HD
ENDROOT
BRANCH  11  14
ATOM     14  C   UNL     1       2.500   6.154  19.792  0.00  0.00    +0.000 A 
ATOM     15  C   UNL     1       1.843   5.022  20.279  0.00  0.00    +0.000 A 
ATOM     16  C   UNL     1       2.457   3.770  20.209  0.00  0.00    +0.000 A 
ATOM     17  C   UNL     1       3.758   3.660  19.718  0.00  0.00    +0.000 A 
ATOM     18  C   UNL     1       4.439   4.800  19.274  0.00  0.00    +0.000 A 
ATOM     19  C   UNL     1       3.798   6.045  19.287  0.00  0.00    +0.000 A 
BRANCH  18  20
ATOM     20  C   UNL     1       5.800   4.697  18.833  0.00  0.00    +0.000 C 
ATOM     21  N   UNL     1       6.898   4.585  18.476  0.00  0.00    +0.000 NA
ENDBRANCH  18  20
ENDBRANCH  11  14
TORSDOF 2
ENDMDL
MODEL 6
REMARK VINA RESULT:      -6.3      3.774      7.912
REMARK  Name = 
REMARK  3 active torsions:
REMARK  status: ('A' for Active; 'I' for Inactive)
REMARK    1  A    between atoms: C_1  and  N_2
REMARK    2  A    between atoms: N_11  and  C_12
REMARK    3  A    between atoms: C_16  and  C_17
REMARK                            x       y       z     vdW  Elec       q    Type
REMARK                         _______ _______ _______ _____ _____    ______ ____
ROOT
ATOM      1  C   UNL     1       8.596   5.865  12.677  0.00  0.00    +0.000 C 
ATOM      2  N   UNL     1       7.651   4.822  12.972  0.00  0.00    +0.000 N 
ATOM      3  C   UNL     1       7.106   4.015  11.882  0.00  0.00    +0.000 C 
ATOM      4  C   UNL     1       5.791   3.561  12.511  0.00  0.00    +0.000 C 
ATOM      5  O   UNL     1       4.933   2.902  11.939  0.00  0.00    +0.000 OA
ATOM      6  N   UNL     1       5.709   4.030  13.811  0.00  0.00    +0.000 NA
ATOM      7  C   UNL     1       6.762   4.771  14.012  0.00  0.00    +0.000 C 
ATOM      8  N   UNL     1       6.961   5.447  15.190  0.00  0.00    +0.000 N 
ATOM      9  C   UNL     1       6.146   5.540  16.303  0.00  0.00    +0.000 C 
ATOM     10  O   UNL     1       6.453   6.318  17.203  0.00  0.00    +0.000 OA
ATOM     11  N   UNL     1       5.056   4.708  16.306  0.00  0.00    +0.000 N 
ATOM     12  H   UNL     1       7.792   6.010  15.271  0.00  0.00    +0.000 HD
ATOM     13  H   UNL     1       5.133   3.908  15.682  0.00  0.00    +0.000 HD
ENDROOT
BRANCH  11  14
ATOM     14  C   UNL     1       4.073   4.675  17.304  0.00  0.00    +0.000 A 
ATOM     15  C   UNL     1       3.421   3.465  17.554  0.00  0.00    +0.000 A 
ATOM     16  C   UNL     1       2.435   3.392  18.540  0.00  0.00    +0.000 A 
ATOM     17  C   UNL     1       2.049   4.544  19.225  0.00  0.00    +0.000 A 
ATOM     18  C   UNL     1       2.667   5.768  18.942  0.00  0.00    +0.000 A 
ATOM     19  C   UNL     1       3.698   5.828  17.998  0.00  0.00    +0.000 A 
BRANCH  18  20
ATOM     20  C   UNL     1       2.222   6.964  19.598  0.00  0.00    +0.000 C 
ATOM     21  N   UNL     1       1.886   7.931  20.143  0.00  0.00    +0.000 NA
ENDBRANCH  18  20
ENDBRANCH  11  14
TORSDOF 2
ENDMDL
MODEL 7
REMARK VINA RESULT:      -6.3      1.785      2.562
REMARK  Name = 
REMARK  3 active torsions:
REMARK  status: ('A' for Active; 'I' for Inactive)
REMARK    1  A    between atoms: C_1  and  N_2
REMARK    2  A    between atoms: N_11  and  C_12
REMARK    3  A    between atoms: C_16  and  C_17
REMARK                            x       y       z     vdW  Elec       q    Type
REMARK                         _______ _______ _______ _____ _____    ______ ____
ROOT
ATOM      1  C   UNL     1       0.102   7.884  21.195  0.00  0.00    +0.000 C 
ATOM      2  N   UNL     1       1.109   8.426  20.324  0.00  0.00    +0.000 N 
ATOM      3  C   UNL     1       0.824   9.643  19.565  0.00  0.00    +0.000 C 
ATOM      4  C   UNL     1       1.797   9.473  18.401  0.00  0.00    +0.000 C 
ATOM      5  O   UNL     1       1.879  10.228  17.443  0.00  0.00    +0.000 OA
ATOM      6  N   UNL     1       2.548   8.325  18.586  0.00  0.00    +0.000 NA
ATOM      7  C   UNL     1       2.095   7.745  19.662  0.00  0.00    +0.000 C 
ATOM      8  N   UNL     1       2.582   6.538  20.097  0.00  0.00    +0.000 N 
ATOM      9  C   UNL     1       3.527   5.709  19.523  0.00  0.00    +0.000 C 
ATOM     10  O   UNL     1       3.717   4.596  20.009  0.00  0.00    +0.000 OA
ATOM     11  N   UNL     1       4.200   6.236  18.452  0.00  0.00    +0.000 N 
ATOM     12  H   UNL     1       2.176   6.144  20.930  0.00  0.00    +0.000 HD
ATOM     13  H   UNL     1       4.179   7.251  18.397  0.00  0.00    +0.000 HD
ENDROOT
BRANCH  11  14
ATOM     14  C   UNL     1       5.158   5.553  17.689  0.00  0.00    +0.000 A 
ATOM     15  C   UNL     1       6.428   5.359  18.237  0.00  0.00    +0.000 A 
ATOM     16  C   UNL     1       7.409   4.685  17.508  0.00  0.00    +0.000 A 
ATOM     17  C   UNL     1       7.144   4.268  16.204  0.00  0.00    +0.000 A 
ATOM     18  C   UNL     1       5.887   4.504  15.634  0.00  0.00    +0.000 A 
ATOM     19  C   UNL     1       4.885   5.125  16.388  0.00  0.00    +0.000 A 
BRANCH  18  20
ATOM     20  C   UNL     1       5.637   4.136  14.270  0.00  0.00    +0.000 C 
ATOM     21  N   UNL     1       5.414   3.857  13.167  0.00  0.00    +0.000 NA
ENDBRANCH  18  20
ENDBRANCH  11  14
TORSDOF 2
ENDMDL
MODEL 8
REMARK VINA RESULT:      -6.2      2.061      3.086
REMARK  Name = 
REMARK  3 active torsions:
REMARK  status: ('A' for Active; 'I' for Inactive)
REMARK    1  A    between atoms: C_1  and  N_2
REMARK    2  A    between atoms: N_11  and  C_12
REMARK    3  A    between atoms: C_16  and  C_17
REMARK                            x       y       z     vdW  Elec       q    Type
REMARK                         _______ _______ _______ _____ _____    ______ ____
ROOT
ATOM      1  C   UNL     1      -0.564  12.771  20.356  0.00  0.00    +0.000 C 
ATOM      2  N   UNL     1      -0.454  11.466  20.949  0.00  0.00    +0.000 N 
ATOM      3  C   UNL     1      -0.620  11.316  22.393  0.00  0.00    +0.000 C 
ATOM      4  C   UNL     1       0.172  10.031  22.626  0.00  0.00    +0.000 C 
ATOM      5  O   UNL     1       0.383   9.529  23.721  0.00  0.00    +0.000 OA
ATOM      6  N   UNL     1       0.632   9.541  21.416  0.00  0.00    +0.000 NA
ATOM      7  C   UNL     1       0.290  10.407  20.503  0.00  0.00    +0.000 C 
ATOM      8  N   UNL     1       0.651  10.257  19.188  0.00  0.00    +0.000 N 
ATOM      9  C   UNL     1       1.433   9.285  18.592  0.00  0.00    +0.000 C 
ATOM     10  O   UNL     1       1.751   9.416  17.413  0.00  0.00    +0.000 OA
ATOM     11  N   UNL     1       1.764   8.223  19.393  0.00  0.00    +0.000 N 
ATOM     12  H   UNL     1       0.362  10.971  18.540  0.00  0.00    +0.000 HD
ATOM     13  H   UNL     1       1.156   8.095  20.199  0.00  0.00    +0.000 HD
ENDROOT
BRANCH  11  14
ATOM     14  C   UNL     1       2.590   7.156  19.014  0.00  0.00    +0.000 A 
ATOM     15  C   UNL     1       2.687   6.055  19.868  0.00  0.00    +0.000 A 
ATOM     16  C   UNL     1       3.500   4.973  19.525  0.00  0.00    +0.000 A 
ATOM     17  C   UNL     1       4.271   5.021  18.364  0.00  0.00    +0.000 A 
ATOM     18  C   UNL     1       4.213   6.145  17.531  0.00  0.00    +0.000 A 
ATOM     19  C   UNL     1       3.351   7.202  17.844  0.00  0.00    +0.000 A 
BRANCH  18  20
ATOM     20  C   UNL     1       5.058   6.224  16.373  0.00  0.00    +0.000 C 
ATOM     21  N   UNL     1       5.741   6.315  15.441  0.00  0.00    +0.000 NA
ENDBRANCH  18  20
ENDBRANCH  11  14
TORSDOF 2
ENDMDL
MODEL 9
REMARK VINA RESULT:      -6.2      2.152      7.381
REMARK  Name = 
REMARK  3 active torsions:
REMARK  status: ('A' for Active; 'I' for Inactive)
REMARK    1  A    between atoms: C_1  and  N_2
REMARK    2  A    between atoms: N_11  and  C_12
REMARK    3  A    between atoms: C_16  and  C_17
REMARK                            x       y       z     vdW  Elec       q    Type
REMARK                         _______ _______ _______ _____ _____    ______ ____
ROOT
ATOM      1  C   UNL     1       4.328   5.067  17.192  0.00  0.00    +0.000 C 
ATOM      2  N   UNL     1       3.793   5.428  18.477  0.00  0.00    +0.000 N 
ATOM      3  C   UNL     1       3.533   4.385  19.466  0.00  0.00    +0.000 C 
ATOM      4  C   UNL     1       2.457   5.068  20.307  0.00  0.00    +0.000 C 
ATOM      5  O   UNL     1       1.861   4.546  21.239  0.00  0.00    +0.000 OA
ATOM      6  N   UNL     1       2.244   6.352  19.837  0.00  0.00    +0.000 NA
ATOM      7  C   UNL     1       2.990   6.495  18.777  0.00  0.00    +0.000 C 
ATOM      8  N   UNL     1       2.969   7.642  18.023  0.00  0.00    +0.000 N 
ATOM      9  C   UNL     1       2.189   8.775  18.160  0.00  0.00    +0.000 C 
ATOM     10  O   UNL     1       2.232   9.637  17.286  0.00  0.00    +0.000 OA
ATOM     11  N   UNL     1       1.442   8.840  19.308  0.00  0.00    +0.000 N 
ATOM     12  H   UNL     1       3.564   7.678  17.211  0.00  0.00    +0.000 HD
ATOM     13  H   UNL     1       1.773   8.243  20.062  0.00  0.00    +0.000 HD
ENDROOT
BRANCH  11  14
ATOM     14  C   UNL     1       0.544   9.868  19.625  0.00  0.00    +0.000 A 
ATOM     15  C   UNL     1       0.752  10.593  20.800  0.00  0.00    +0.000 A 
ATOM     16  C   UNL     1      -0.122  11.623  21.151  0.00  0.00    +0.000 A 
ATOM     17  C   UNL     1      -1.245  11.882  20.365  0.00  0.00    +0.000 A 
ATOM     18  C   UNL     1      -1.483  11.125  19.212  0.00  0.00    +0.000 A 
ATOM     19  C   UNL     1      -0.573  10.133  18.828  0.00  0.00    +0.000 A 
BRANCH  18  20
ATOM     20  C   UNL     1      -2.673  11.346  18.442  0.00  0.00    +0.000 C 
ATOM     21  N   UNL     1      -3.637  11.550  17.830  0.00  0.00    +0.000 NA
ENDBRANCH  18  20
ENDBRANCH  11  14
TORSDOF 2
ENDMDL
