MODEL 1
REMARK VINA RESULT:      -7.4      0.000      0.000
REMARK  Name = 
REMARK  6 active torsions:
REMARK  status: ('A' for Active; 'I' for Inactive)
REMARK    1  A    between atoms: C_1  and  O_2
REMARK    2  A    between atoms: O_2  and  C_3
REMARK    3  A    between atoms: C_6  and  C_7
REMARK    4  A    between atoms: C_8  and  C_9
REMARK    5  A    between atoms: N_11  and  C_12
REMARK    6  A    between atoms: C_18  and  C_19
REMARK                            x       y       z     vdW  Elec       q    Type
REMARK                         _______ _______ _______ _____ _____    ______ ____
ROOT
ATOM      1  C   UNL     1       0.246  11.105  20.000  0.00  0.00    +0.000 C 
ATOM      2  C   UNL     1       0.099  10.142  21.181  0.00  0.00    +0.000 C 
ATOM      3  C   UNL     1      -0.172  10.615  22.417  0.00  0.00    +0.000 C 
ATOM      4  C   UNL     1      -0.296   9.813  23.689  0.00  0.00    +0.000 C 
ATOM      5  N   UNL     1      -0.324  11.965  22.666  0.00  0.00    +0.000 NA
ATOM      6  C   UNL     1      -0.061  12.800  21.724  0.00  0.00    +0.000 C 
ATOM      7  S   UNL     1      -0.064  14.512  22.003  0.00  0.00    +0.000 S 
ATOM      8  C   UNL     1       0.453  14.867  20.313  0.00  0.00    +0.000 C 
ATOM      9  C   UNL     1       0.677  13.529  19.654  0.00  0.00    +0.000 C 
ATOM     10  O   UNL     1       1.171  13.427  18.537  0.00  0.00    +0.000 OA
ATOM     11  N   UNL     1       0.277  12.486  20.453  0.00  0.00    +0.000 N 
ENDROOT
BRANCH   1  15
ATOM     12  C   UNL     1      -2.959  10.599  17.099  0.00  0.00    +0.000 A 
ATOM     13  C   UNL     1      -1.746   9.930  16.919  0.00  0.00    +0.000 A 
ATOM     14  C   UNL     1      -0.720  10.061  17.854  0.00  0.00    +0.000 A 
ATOM     15  C   UNL     1      -0.863  10.916  18.958  0.00  0.00    +0.000 A 
ATOM     16  C   UNL     1      -2.078  11.605  19.110  0.00  0.00    +0.000 A 
ATOM     17  C   UNL     1      -3.123  11.440  18.197  0.00  0.00    +0.000 A 
BRANCH  12  19
ATOM     18  C   UNL     1      -3.393  10.388  14.791  0.00  0.00    +0.000 C 
ATOM     19  O   UNL     1      -3.893  10.385  16.122  0.00  0.00    +0.000 OA
ENDBRANCH  12  19
ENDBRANCH   1  15
BRANCH   2  20
ATOM     20  C   UNL     1       0.367   8.726  20.754  0.00  0.00    +0.000 C 
ATOM     21  O   UNL     1      -0.475   7.887  21.063  0.00  0.00    +0.000 OA
ATOM     22  N   UNL     1       1.578   8.453  20.149  0.00  0.00    +0.000 N 
ATOM     23  H   UNL     1       2.248   9.203  20.050  0.00  0.00    +0.000 HD
BRANCH  22  24
ATOM     24  C   UNL     1       2.033   7.163  19.745  0.00  0.00    +0.000 A 
ATOM     25  C   UNL     1       1.968   6.033  20.565  0.00  0.00    +0.000 A 
ATOM     26  C   UNL     1       2.485   4.803  20.146  0.00  0.00    +0.000 A 
ATOM     27  C   UNL     1       3.054   4.680  18.885  0.00  0.00    +0.000 A 
ATOM     28  C   UNL     1       3.091   5.782  18.037  0.00  0.00    +0.000 A 
ATOM     29  C   UNL     1       2.577   7.020  18.463  0.00  0.00    +0.000 A 
ENDBRANCH  22  24
ENDBRANCH   2  20
TORSDOF 4
ENDMDL
MODEL 2
REMARK VINA RESULT:      -7.2      0.122      1.291
REMARK  Name = 
REMARK  6 active torsions:
REMARK  status: ('A' for Active; 'I' for Inactive)
REMARK    1  A    between atoms: C_1  and  O_2
REMARK    2  A    between atoms: O_2  and  C_3
REMARK    3  A    between atoms: C_6  and  C_7
REMARK    4  A    between atoms: C_8  and  C_9
REMARK    5  A    between atoms: N_11  and  C_12
REMARK    6  A    between atoms: C_18  and  C_19
REMARK                            x       y       z     vdW  Elec       q    Type
REMARK                         _______ _______ _______ _____ _____    ______ ____
ROOT
ATOM      1  C   UNL     1       0.221  11.147  20.043  0.00  0.00    +0.000 C 
ATOM      2  C   UNL     1       0.084  10.157  21.203  0.00  0.00    +0.000 C 
ATOM      3  C   UNL     1      -0.181  10.601  22.451  0.00  0.00    +0.000 C 
ATOM      4  C   UNL     1      -0.295   9.771  23.706  0.00  0.00    +0.000 C 
ATOM      5  N   UNL     1      -0.336  11.946  22.731  0.00  0.00    +0.000 NA
ATOM      6  C   UNL     1      -0.081  12.802  21.807  0.00  0.00    +0.000 C 
ATOM      7  S   UNL     1      -0.088  14.507  22.124  0.00  0.00    +0.000 S 
ATOM      8  C   UNL     1       0.418  14.901  20.439  0.00  0.00    +0.000 C 
ATOM      9  C   UNL     1       0.642  13.579  19.749  0.00  0.00    +0.000 C 
ATOM     10  O   UNL     1       1.130  13.504  18.627  0.00  0.00    +0.000 OA
ATOM     11  N   UNL     1       0.250  12.517  20.527  0.00  0.00    +0.000 N 
ENDROOT
BRANCH   1  15
ATOM     12  C   UNL     1      -2.885  10.641  17.036  0.00  0.00    +0.000 A 
ATOM     13  C   UNL     1      -3.134  11.420  18.168  0.00  0.00    +0.000 A 
ATOM     14  C   UNL     1      -2.139  11.614  19.127  0.00  0.00    +0.000 A 
ATOM     15  C   UNL     1      -0.894  10.978  19.004  0.00  0.00    +0.000 A 
ATOM     16  C   UNL     1      -0.669  10.174  17.874  0.00  0.00    +0.000 A 
ATOM     17  C   UNL     1      -1.649  10.015  16.891  0.00  0.00    +0.000 A 
BRANCH  12  19
ATOM     18  C   UNL     1      -3.583  10.157  14.836  0.00  0.00    +0.000 C 
ATOM     19  O   UNL     1      -3.932  10.533  16.163  0.00  0.00    +0.000 OA
ENDBRANCH  12  19
ENDBRANCH   1  15
BRANCH   2  20
ATOM     20  C   UNL     1       0.354   8.752  20.744  0.00  0.00    +0.000 C 
ATOM     21  O   UNL     1      -0.493   7.906  21.025  0.00  0.00    +0.000 OA
ATOM     22  N   UNL     1       1.569   8.492  20.142  0.00  0.00    +0.000 N 
ATOM     23  H   UNL     1       2.241   9.244  20.068  0.00  0.00    +0.000 HD
BRANCH  22  24
ATOM     24  C   UNL     1       2.026   7.212  19.710  0.00  0.00    +0.000 A 
ATOM     25  C   UNL     1       2.585   6.981  18.448  0.00  0.00    +0.000 A 
ATOM     26  C   UNL     1       2.961   5.696  18.048  0.00  0.00    +0.000 A 
ATOM     27  C   UNL     1       2.807   4.622  18.916  0.00  0.00    +0.000 A 
ATOM     28  C   UNL     1       2.292   4.837  20.191  0.00  0.00    +0.000 A 
ATOM     29  C   UNL     1       1.908   6.130  20.589  0.00  0.00    +0.000 A 
ENDBRANCH  22  24
ENDBRANCH   2  20
TORSDOF 4
ENDMDL
MODEL 3
REMARK VINA RESULT:      -6.9      1.979      2.516
REMARK  Name = 
REMARK  6 active torsions:
REMARK  status: ('A' for Active; 'I' for Inactive)
REMARK    1  A    between atoms: C_1  and  O_2
REMARK    2  A    between atoms: O_2  and  C_3
REMARK    3  A    between atoms: C_6  and  C_7
REMARK    4  A    between atoms: C_8  and  C_9
REMARK    5  A    between atoms: N_11  and  C_12
REMARK    6  A    between atoms: C_18  and  C_19
REMARK                            x       y       z     vdW  Elec       q    Type
REMARK                         _______ _______ _______ _____ _____    ______ ____
ROOT
ATOM      1  C   UNL     1      -1.142  12.603  20.703  0.00  0.00    +0.000 C 
ATOM      2  C   UNL     1      -0.578  11.387  21.441  0.00  0.00    +0.000 C 
ATOM      3  C   UNL     1      -1.054  11.048  22.659  0.00  0.00    +0.000 C 
ATOM      4  C   UNL     1      -0.577   9.918  23.539  0.00  0.00    +0.000 C 
ATOM      5  N   UNL     1      -2.052  11.772  23.282  0.00  0.00    +0.000 NA
ATOM      6  C   UNL     1      -2.436  12.877  22.750  0.00  0.00    +0.000 C 
ATOM      7  S   UNL     1      -3.560  13.927  23.551  0.00  0.00    +0.000 S 
ATOM      8  C   UNL     1      -3.461  15.162  22.241  0.00  0.00    +0.000 C 
ATOM      9  C   UNL     1      -2.430  14.654  21.263  0.00  0.00    +0.000 C 
ATOM     10  O   UNL     1      -2.028  15.335  20.327  0.00  0.00    +0.000 OA
ATOM     11  N   UNL     1      -2.016  13.380  21.566  0.00  0.00    +0.000 N 
ENDROOT
BRANCH   1  15
ATOM     12  C   UNL     1      -3.307  11.448  17.108  0.00  0.00    +0.000 A 
ATOM     13  C   UNL     1      -1.949  11.765  17.030  0.00  0.00    +0.000 A 
ATOM     14  C   UNL     1      -1.236  12.111  18.178  0.00  0.00    +0.000 A 
ATOM     15  C   UNL     1      -1.883  12.208  19.419  0.00  0.00    +0.000 A 
ATOM     16  C   UNL     1      -3.255  11.915  19.477  0.00  0.00    +0.000 A 
ATOM     17  C   UNL     1      -3.962  11.526  18.335  0.00  0.00    +0.000 A 
BRANCH  12  19
ATOM     18  C   UNL     1      -3.145  10.235  15.092  0.00  0.00    +0.000 C 
ATOM     19  O   UNL     1      -3.896  11.115  15.919  0.00  0.00    +0.000 OA
ENDBRANCH  12  19
ENDBRANCH   1  15
BRANCH   2  20
ATOM     20  C   UNL     1       0.545  10.760  20.663  0.00  0.00    +0.000 C 
ATOM     21  O   UNL     1       1.438  11.511  20.279  0.00  0.00    +0.000 OA
ATOM     22  N   UNL     1       0.440   9.420  20.346  0.00  0.00    +0.000 N 
ATOM     23  H   UNL     1      -0.400   8.925  20.615  0.00  0.00    +0.000 HD
BRANCH  22  24
ATOM     24  C   UNL     1       1.367   8.677  19.558  0.00  0.00    +0.000 A 
ATOM     25  C   UNL     1       1.747   9.048  18.264  0.00  0.00    +0.000 A 
ATOM     26  C   UNL     1       2.613   8.253  17.508  0.00  0.00    +0.000 A 
ATOM     27  C   UNL     1       3.133   7.082  18.045  0.00  0.00    +0.000 A 
ATOM     28  C   UNL     1       2.800   6.716  19.346  0.00  0.00    +0.000 A 
ATOM     29  C   UNL     1       1.924   7.514  20.103  0.00  0.00    +0.000 A 
ENDBRANCH  22  24
ENDBRANCH   2  20
TORSDOF 4
ENDMDL
MODEL 4
REMARK VINA RESULT:      -6.7      2.340      4.713
REMARK  Name = 
REMARK  6 active torsions:
REMARK  status: ('A' for Active; 'I' for Inactive)
REMARK    1  A    between atoms: C_1  and  O_2
REMARK    2  A    between atoms: O_2  and  C_3
REMARK    3  A    between atoms: C_6  and  C_7
REMARK    4  A    between atoms: C_8  and  C_9
REMARK    5  A    between atoms: N_11  and  C_12
REMARK    6  A    between atoms: C_18  and  C_19
REMARK                            x       y       z     vdW  Elec       q    Type
REMARK                         _______ _______ _______ _____ _____    ______ ____
ROOT
ATOM      1  C   UNL     1       0.115  11.737  20.248  0.00  0.00    +0.000 C 
ATOM      2  C   UNL     1      -0.129  10.860  19.018  0.00  0.00    +0.000 C 
ATOM      3  C   UNL     1      -1.346  10.829  18.433  0.00  0.00    +0.000 C 
ATOM      4  C   UNL     1      -1.767   9.986  17.254  0.00  0.00    +0.000 C 
ATOM      5  N   UNL     1      -2.407  11.575  18.911  0.00  0.00    +0.000 NA
ATOM      6  C   UNL     1      -2.267  12.202  20.025  0.00  0.00    +0.000 C 
ATOM      7  S   UNL     1      -3.598  13.020  20.778  0.00  0.00    +0.000 S 
ATOM      8  C   UNL     1      -2.602  13.495  22.203  0.00  0.00    +0.000 C 
ATOM      9  C   UNL     1      -1.247  12.865  21.996  0.00  0.00    +0.000 C 
ATOM     10  O   UNL     1      -0.380  12.883  22.862  0.00  0.00    +0.000 OA
ATOM     11  N   UNL     1      -1.132  12.282  20.757  0.00  0.00    +0.000 N 
ENDROOT
BRANCH   1  15
ATOM     12  C   UNL     1       2.967  14.943  19.516  0.00  0.00    +0.000 A 
ATOM     13  C   UNL     1       1.834  14.823  18.709  0.00  0.00    +0.000 A 
ATOM     14  C   UNL     1       0.897  13.817  18.949  0.00  0.00    +0.000 A 
ATOM     15  C   UNL     1       1.109  12.871  19.962  0.00  0.00    +0.000 A 
ATOM     16  C   UNL     1       2.268  12.986  20.747  0.00  0.00    +0.000 A 
ATOM     17  C   UNL     1       3.185  14.020  20.537  0.00  0.00    +0.000 A 
BRANCH  12  19
ATOM     18  C   UNL     1       3.590  16.556  17.912  0.00  0.00    +0.000 C 
ATOM     19  O   UNL     1       3.807  15.973  19.191  0.00  0.00    +0.000 OA
ENDBRANCH  12  19
ENDBRANCH   1  15
BRANCH   2  20
ATOM     20  C   UNL     1       1.098  10.063  18.675  0.00  0.00    +0.000 C 
ATOM     21  O   UNL     1       1.910  10.595  17.921  0.00  0.00    +0.000 OA
ATOM     22  N   UNL     1       1.174   8.764  19.138  0.00  0.00    +0.000 N 
ATOM     23  H   UNL     1       0.389   8.389  19.653  0.00  0.00    +0.000 HD
BRANCH  22  24
ATOM     24  C   UNL     1       2.222   7.840  18.854  0.00  0.00    +0.000 A 
ATOM     25  C   UNL     1       3.054   7.941  17.734  0.00  0.00    +0.000 A 
ATOM     26  C   UNL     1       4.028   6.974  17.466  0.00  0.00    +0.000 A 
ATOM     27  C   UNL     1       4.202   5.902  18.332  0.00  0.00    +0.000 A 
ATOM     28  C   UNL     1       3.413   5.805  19.474  0.00  0.00    +0.000 A 
ATOM     29  C   UNL     1       2.429   6.775  19.737  0.00  0.00    +0.000 A 
ENDBRANCH  22  24
ENDBRANCH   2  20
TORSDOF 4
ENDMDL
MODEL 5
REMARK VINA RESULT:      -6.7      1.982      2.495
REMARK  Name = 
REMARK  6 active torsions:
REMARK  status: ('A' for Active; 'I' for Inactive)
REMARK    1  A    between atoms: C_1  and  O_2
REMARK    2  A    between atoms: O_2  and  C_3
REMARK    3  A    between atoms: C_6  and  C_7
REMARK    4  A    between atoms: C_8  and  C_9
REMARK    5  A    between atoms: N_11  and  C_12
REMARK    6  A    between atoms: C_18  and  C_19
REMARK                            x       y       z     vdW  Elec       q    Type
REMARK                         _______ _______ _______ _____ _____    ______ ____
ROOT
ATOM      1  C   UNL     1      -1.175  12.541  20.676  0.00  0.00    +0.000 C 
ATOM      2  C   UNL     1      -0.589  11.340  21.422  0.00  0.00    +0.000 C 
ATOM      3  C   UNL     1      -1.045  11.012  22.651  0.00  0.00    +0.000 C 
ATOM      4  C   UNL     1      -0.546   9.899  23.538  0.00  0.00    +0.000 C 
ATOM      5  N   UNL     1      -2.043  11.734  23.277  0.00  0.00    +0.000 NA
ATOM      6  C   UNL     1      -2.446  12.828  22.736  0.00  0.00    +0.000 C 
ATOM      7  S   UNL     1      -3.569  13.877  23.538  0.00  0.00    +0.000 S 
ATOM      8  C   UNL     1      -3.500  15.096  22.211  0.00  0.00    +0.000 C 
ATOM      9  C   UNL     1      -2.477  14.585  21.227  0.00  0.00    +0.000 C 
ATOM     10  O   UNL     1      -2.094  15.258  20.277  0.00  0.00    +0.000 OA
ATOM     11  N   UNL     1      -2.046  13.319  21.540  0.00  0.00    +0.000 N 
ENDROOT
BRANCH   1  15
ATOM     12  C   UNL     1      -3.248  11.382  17.028  0.00  0.00    +0.000 A 
ATOM     13  C   UNL     1      -3.959  11.499  18.225  0.00  0.00    +0.000 A 
ATOM     14  C   UNL     1      -3.313  11.896  19.396  0.00  0.00    +0.000 A 
ATOM     15  C   UNL     1      -1.929  12.122  19.407  0.00  0.00    +0.000 A 
ATOM     16  C   UNL     1      -1.222  11.972  18.202  0.00  0.00    +0.000 A 
ATOM     17  C   UNL     1      -1.875  11.617  17.019  0.00  0.00    +0.000 A 
BRANCH  12  19
ATOM     18  C   UNL     1      -3.305  10.194  14.991  0.00  0.00    +0.000 C 
ATOM     19  O   UNL     1      -3.990  10.996  15.946  0.00  0.00    +0.000 OA
ENDBRANCH  12  19
ENDBRANCH   1  15
BRANCH   2  20
ATOM     20  C   UNL     1       0.530  10.714  20.638  0.00  0.00    +0.000 C 
ATOM     21  O   UNL     1       1.422  11.466  20.252  0.00  0.00    +0.000 OA
ATOM     22  N   UNL     1       0.422   9.375  20.317  0.00  0.00    +0.000 N 
ATOM     23  H   UNL     1      -0.416   8.880  20.588  0.00  0.00    +0.000 HD
BRANCH  22  24
ATOM     24  C   UNL     1       1.346   8.634  19.523  0.00  0.00    +0.000 A 
ATOM     25  C   UNL     1       1.987   7.474  19.970  0.00  0.00    +0.000 A 
ATOM     26  C   UNL     1       2.932   6.817  19.176  0.00  0.00    +0.000 A 
ATOM     27  C   UNL     1       3.232   7.299  17.908  0.00  0.00    +0.000 A 
ATOM     28  C   UNL     1       2.575   8.427  17.428  0.00  0.00    +0.000 A 
ATOM     29  C   UNL     1       1.630   9.090  18.231  0.00  0.00    +0.000 A 
ENDBRANCH  22  24
ENDBRANCH   2  20
TORSDOF 4
ENDMDL
MODEL 6
REMARK VINA RESULT:      -6.7      1.201      1.341
REMARK  Name = 
REMARK  6 active torsions:
REMARK  status: ('A' for Active; 'I' for Inactive)
REMARK    1  A    between atoms: C_1  and  O_2
REMARK    2  A    between atoms: O_2  and  C_3
REMARK    3  A    between atoms: C_6  and  C_7
REMARK    4  A    between atoms: C_8  and  C_9
REMARK    5  A    between atoms: N_11  and  C_12
REMARK    6  A    between atoms: C_18  and  C_19
REMARK                            x       y       z     vdW  Elec       q    Type
REMARK                         _______ _______ _______ _____ _____    ______ ____
ROOT
ATOM      1  C   UNL     1      -0.598  12.037  19.863  0.00  0.00    +0.000 C 
ATOM      2  C   UNL     1      -0.585  10.990  20.980  0.00  0.00    +0.000 C 
ATOM      3  C   UNL     1      -0.972  11.322  22.231  0.00  0.00    +0.000 C 
ATOM      4  C   UNL     1      -0.971  10.432  23.449  0.00  0.00    +0.000 C 
ATOM      5  N   UNL     1      -1.389  12.600  22.552  0.00  0.00    +0.000 NA
ATOM      6  C   UNL     1      -1.269  13.528  21.670  0.00  0.00    +0.000 C 
ATOM      7  S   UNL     1      -1.609  15.186  22.047  0.00  0.00    +0.000 S 
ATOM      8  C   UNL     1      -1.129  15.741  20.400  0.00  0.00    +0.000 C 
ATOM      9  C   UNL     1      -0.635  14.515  19.673  0.00  0.00    +0.000 C 
ATOM     10  O   UNL     1      -0.103  14.581  18.571  0.00  0.00    +0.000 OA
ATOM     11  N   UNL     1      -0.845  13.366  20.396  0.00  0.00    +0.000 N 
ENDROOT
BRANCH   1  15
ATOM     12  C   UNL     1      -3.570  11.092  16.828  0.00  0.00    +0.000 A 
ATOM     13  C   UNL     1      -2.212  10.950  16.538  0.00  0.00    +0.000 A 
ATOM     14  C   UNL     1      -1.248  11.223  17.509  0.00  0.00    +0.000 A 
ATOM     15  C   UNL     1      -1.624  11.706  18.772  0.00  0.00    +0.000 A 
ATOM     16  C   UNL     1      -2.993  11.871  19.039  0.00  0.00    +0.000 A 
ATOM     17  C   UNL     1      -3.961  11.556  18.082  0.00  0.00    +0.000 A 
BRANCH  12  19
ATOM     18  C   UNL     1      -3.810  10.187  14.663  0.00  0.00    +0.000 C 
ATOM     19  O   UNL     1      -4.420  10.786  15.800  0.00  0.00    +0.000 OA
ENDBRANCH  12  19
ENDBRANCH   1  15
BRANCH   2  20
ATOM     20  C   UNL     1      -0.038   9.681  20.483  0.00  0.00    +0.000 C 
ATOM     21  O   UNL     1      -0.630   8.664  20.837  0.00  0.00    +0.000 OA
ATOM     22  N   UNL     1       1.140   9.707  19.762  0.00  0.00    +0.000 N 
ATOM     23  H   UNL     1       1.605  10.594  19.630  0.00  0.00    +0.000 HD
BRANCH  22  24
ATOM     24  C   UNL     1       1.841   8.564  19.274  0.00  0.00    +0.000 A 
ATOM     25  C   UNL     1       2.049   7.408  20.033  0.00  0.00    +0.000 A 
ATOM     26  C   UNL     1       2.797   6.338  19.532  0.00  0.00    +0.000 A 
ATOM     27  C   UNL     1       3.329   6.400  18.250  0.00  0.00    +0.000 A 
ATOM     28  C   UNL     1       3.098   7.525  17.463  0.00  0.00    +0.000 A 
ATOM     29  C   UNL     1       2.351   8.602  17.972  0.00  0.00    +0.000 A 
ENDBRANCH  22  24
ENDBRANCH   2  20
TORSDOF 4
ENDMDL
MODEL 7
REMARK VINA RESULT:      -6.6      1.215      1.690
REMARK  Name = 
REMARK  6 active torsions:
REMARK  status: ('A' for Active; 'I' for Inactive)
REMARK    1  A    between atoms: C_1  and  O_2
REMARK    2  A    between atoms: O_2  and  C_3
REMARK    3  A    between atoms: C_6  and  C_7
REMARK    4  A    between atoms: C_8  and  C_9
REMARK    5  A    between atoms: N_11  and  C_12
REMARK    6  A    between atoms: C_18  and  C_19
REMARK                            x       y       z     vdW  Elec       q    Type
REMARK                         _______ _______ _______ _____ _____    ______ ____
ROOT
ATOM      1  C   UNL     1      -0.390  11.949  20.251  0.00  0.00    +0.000 C 
ATOM      2  C   UNL     1      -0.268  10.747  21.191  0.00  0.00    +0.000 C 
ATOM      3  C   UNL     1      -0.440  10.902  22.522  0.00  0.00    +0.000 C 
ATOM      4  C   UNL     1      -0.304   9.841  23.585  0.00  0.00    +0.000 C 
ATOM      5  N   UNL     1      -0.727  12.131  23.084  0.00  0.00    +0.000 NA
ATOM      6  C   UNL     1      -0.689  13.176  22.335  0.00  0.00    +0.000 C 
ATOM      7  S   UNL     1      -0.871  14.770  22.993  0.00  0.00    +0.000 S 
ATOM      8  C   UNL     1      -0.616  15.547  21.386  0.00  0.00    +0.000 C 
ATOM      9  C   UNL     1      -0.311  14.427  20.423  0.00  0.00    +0.000 C 
ATOM     10  O   UNL     1       0.050  14.638  19.271  0.00  0.00    +0.000 OA
ATOM     11  N   UNL     1      -0.475  13.191  20.999  0.00  0.00    +0.000 N 
ENDROOT
BRANCH   1  15
ATOM     12  C   UNL     1      -3.735  11.591  17.490  0.00  0.00    +0.000 A 
ATOM     13  C   UNL     1      -3.966  11.961  18.817  0.00  0.00    +0.000 A 
ATOM     14  C   UNL     1      -2.900  12.106  19.706  0.00  0.00    +0.000 A 
ATOM     15  C   UNL     1      -1.588  11.821  19.301  0.00  0.00    +0.000 A 
ATOM     16  C   UNL     1      -1.375  11.421  17.971  0.00  0.00    +0.000 A 
ATOM     17  C   UNL     1      -2.436  11.318  17.068  0.00  0.00    +0.000 A 
BRANCH  12  19
ATOM     18  C   UNL     1      -5.970  12.263  17.143  0.00  0.00    +0.000 C 
ATOM     19  O   UNL     1      -4.856  11.491  16.711  0.00  0.00    +0.000 OA
ENDBRANCH  12  19
ENDBRANCH   1  15
BRANCH   2  20
ATOM     20  C   UNL     1       0.120   9.509  20.432  0.00  0.00    +0.000 C 
ATOM     21  O   UNL     1      -0.747   8.647  20.300  0.00  0.00    +0.000 OA
ATOM     22  N   UNL     1       1.436   9.381  20.036  0.00  0.00    +0.000 N 
ATOM     23  H   UNL     1       2.093  10.102  20.303  0.00  0.00    +0.000 HD
BRANCH  22  24
ATOM     24  C   UNL     1       1.999   8.250  19.373  0.00  0.00    +0.000 A 
ATOM     25  C   UNL     1       2.129   6.993  19.973  0.00  0.00    +0.000 A 
ATOM     26  C   UNL     1       2.745   5.932  19.303  0.00  0.00    +0.000 A 
ATOM     27  C   UNL     1       3.219   6.106  18.010  0.00  0.00    +0.000 A 
ATOM     28  C   UNL     1       3.063   7.336  17.379  0.00  0.00    +0.000 A 
ATOM     29  C   UNL     1       2.449   8.405  18.058  0.00  0.00    +0.000 A 
ENDBRANCH  22  24
ENDBRANCH   2  20
TORSDOF 4
ENDMDL
MODEL 8
REMARK VINA RESULT:      -6.6      2.713      6.280
REMARK  Name = 
REMARK  6 active torsions:
REMARK  status: ('A' for Active; 'I' for Inactive)
REMARK    1  A    between atoms: C_1  and  O_2
REMARK    2  A    between atoms: O_2  and  C_3
REMARK    3  A    between atoms: C_6  and  C_7
REMARK    4  A    between atoms: C_8  and  C_9
REMARK    5  A    between atoms: N_11  and  C_12
REMARK    6  A    between atoms: C_18  and  C_19
REMARK                            x       y       z     vdW  Elec       q    Type
REMARK                         _______ _______ _______ _____ _____    ______ ____
ROOT
ATOM      1  C   UNL     1      -0.634  12.285  19.205  0.00  0.00    +0.000 C 
ATOM      2  C   UNL     1      -0.331  13.346  20.267  0.00  0.00    +0.000 C 
ATOM      3  C   UNL     1      -1.325  13.847  21.033  0.00  0.00    +0.000 C 
ATOM      4  C   UNL     1      -1.207  14.925  22.081  0.00  0.00    +0.000 C 
ATOM      5  N   UNL     1      -2.635  13.432  20.894  0.00  0.00    +0.000 NA
ATOM      6  C   UNL     1      -2.936  12.655  19.915  0.00  0.00    +0.000 C 
ATOM      7  S   UNL     1      -4.581  12.226  19.571  0.00  0.00    +0.000 S 
ATOM      8  C   UNL     1      -4.109  11.272  18.116  0.00  0.00    +0.000 C 
ATOM      9  C   UNL     1      -2.619  11.447  17.965  0.00  0.00    +0.000 C 
ATOM     10  O   UNL     1      -2.010  11.036  16.984  0.00  0.00    +0.000 OA
ATOM     11  N   UNL     1      -2.067  12.116  19.031  0.00  0.00    +0.000 N 
ENDROOT
BRANCH   1  15
ATOM     12  C   UNL     1       1.206   8.472  20.212  0.00  0.00    +0.000 A 
ATOM     13  C   UNL     1       1.500   9.084  18.992  0.00  0.00    +0.000 A 
ATOM     14  C   UNL     1       0.939  10.320  18.668  0.00  0.00    +0.000 A 
ATOM     15  C   UNL     1       0.021  10.937  19.531  0.00  0.00    +0.000 A 
ATOM     16  C   UNL     1      -0.287  10.294  20.742  0.00  0.00    +0.000 A 
ATOM     17  C   UNL     1       0.308   9.078  21.088  0.00  0.00    +0.000 A 
BRANCH  12  19
ATOM     18  C   UNL     1       2.565   6.763  19.320  0.00  0.00    +0.000 C 
ATOM     19  O   UNL     1       1.823   7.269  20.423  0.00  0.00    +0.000 OA
ENDBRANCH  12  19
ENDBRANCH   1  15
BRANCH   2  20
ATOM     20  C   UNL     1       1.120  13.736  20.236  0.00  0.00    +0.000 C 
ATOM     21  O   UNL     1       1.806  13.389  21.195  0.00  0.00    +0.000 OA
ATOM     22  N   UNL     1       1.549  14.541  19.200  0.00  0.00    +0.000 N 
ATOM     23  H   UNL     1       0.868  14.865  18.527  0.00  0.00    +0.000 HD
BRANCH  22  24
ATOM     24  C   UNL     1       2.866  15.067  19.046  0.00  0.00    +0.000 A 
ATOM     25  C   UNL     1       3.300  16.244  19.663  0.00  0.00    +0.000 A 
ATOM     26  C   UNL     1       4.582  16.753  19.432  0.00  0.00    +0.000 A 
ATOM     27  C   UNL     1       5.460  16.075  18.596  0.00  0.00    +0.000 A 
ATOM     28  C   UNL     1       5.062  14.879  18.005  0.00  0.00    +0.000 A 
ATOM     29  C   UNL     1       3.770  14.373  18.234  0.00  0.00    +0.000 A 
ENDBRANCH  22  24
ENDBRANCH   2  20
TORSDOF 4
ENDMDL
MODEL 9
REMARK VINA RESULT:      -6.6      3.193      6.503
REMARK  Name = 
REMARK  6 active torsions:
REMARK  status: ('A' for Active; 'I' for Inactive)
REMARK    1  A    between atoms: C_1  and  O_2
REMARK    2  A    between atoms: O_2  and  C_3
REMARK    3  A    between atoms: C_6  and  C_7
REMARK    4  A    between atoms: C_8  and  C_9
REMARK    5  A    between atoms: N_11  and  C_12
REMARK    6  A    between atoms: C_18  and  C_19
REMARK                            x       y       z     vdW  Elec       q    Type
REMARK                         _______ _______ _______ _____ _____    ______ ____
ROOT
ATOM      1  C   UNL     1      -1.730  13.429  21.530  0.00  0.00    +0.000 C 
ATOM      2  C   UNL     1      -0.817  14.404  22.276  0.00  0.00    +0.000 C 
ATOM      3  C   UNL     1      -1.247  15.018  23.400  0.00  0.00    +0.000 C 
ATOM      4  C   UNL     1      -0.498  16.038  24.222  0.00  0.00    +0.000 C 
ATOM      5  N   UNL     1      -2.509  14.796  23.917  0.00  0.00    +0.000 NA
ATOM      6  C   UNL     1      -3.343  14.098  23.231  0.00  0.00    +0.000 C 
ATOM      7  S   UNL     1      -4.995  13.915  23.726  0.00  0.00    +0.000 S 
ATOM      8  C   UNL     1      -5.408  12.947  22.262  0.00  0.00    +0.000 C 
ATOM      9  C   UNL     1      -4.160  12.915  21.415  0.00  0.00    +0.000 C 
ATOM     10  O   UNL     1      -4.153  12.451  20.281  0.00  0.00    +0.000 OA
ATOM     11  N   UNL     1      -3.082  13.468  22.063  0.00  0.00    +0.000 N 
ENDROOT
BRANCH   1  15
ATOM     12  C   UNL     1      -0.184   9.364  21.704  0.00  0.00    +0.000 A 
ATOM     13  C   UNL     1      -0.322  10.003  20.470  0.00  0.00    +0.000 A 
ATOM     14  C   UNL     1      -0.791  11.315  20.400  0.00  0.00    +0.000 A 
ATOM     15  C   UNL     1      -1.192  11.993  21.562  0.00  0.00    +0.000 A 
ATOM     16  C   UNL     1      -1.075  11.326  22.793  0.00  0.00    +0.000 A 
ATOM     17  C   UNL     1      -0.564  10.027  22.868  0.00  0.00    +0.000 A 
BRANCH  12  19
ATOM     18  C   UNL     1       1.447   7.899  20.834  0.00  0.00    +0.000 C 
ATOM     19  O   UNL     1       0.294   8.083  21.646  0.00  0.00    +0.000 OA
ENDBRANCH  12  19
ENDBRANCH   1  15
BRANCH   2  20
ATOM     20  C   UNL     1       0.484  14.588  21.545  0.00  0.00    +0.000 C 
ATOM     21  O   UNL     1       1.509  14.547  22.222  0.00  0.00    +0.000 OA
ATOM     22  N   UNL     1       0.429  14.892  20.200  0.00  0.00    +0.000 N 
ATOM     23  H   UNL     1      -0.477  15.017  19.769  0.00  0.00    +0.000 HD
BRANCH  22  24
ATOM     24  C   UNL     1       1.552  15.170  19.364  0.00  0.00    +0.000 A 
ATOM     25  C   UNL     1       1.870  16.452  18.905  0.00  0.00    +0.000 A 
ATOM     26  C   UNL     1       2.945  16.663  18.036  0.00  0.00    +0.000 A 
ATOM     27  C   UNL     1       3.735  15.595  17.632  0.00  0.00    +0.000 A 
ATOM     28  C   UNL     1       3.461  14.317  18.111  0.00  0.00    +0.000 A 
ATOM     29  C   UNL     1       2.375  14.106  18.979  0.00  0.00    +0.000 A 
ENDBRANCH  22  24
ENDBRANCH   2  20
TORSDOF 4
ENDMDL
