MODEL 1
REMARK VINA RESULT:      -6.2      0.000      0.000
REMARK  Name = 
REMARK  9 active torsions:
REMARK  status: ('A' for Active; 'I' for Inactive)
REMARK    1  A    between atoms: C_1  and  O_2
REMARK    2  A    between atoms: O_2  and  C_3
REMARK    3  A    between atoms: C_4  and  C_5
REMARK    4  A    between atoms: C_5  and  N_6
REMARK    5  A    between atoms: N_6  and  C_7
REMARK    6  A    between atoms: N_6  and  C_8
REMARK    7  A    between atoms: C_12  and  O_13
REMARK    8  A    between atoms: C_14  and  C_15
REMARK    9  A    between atoms: N_17  and  C_18
REMARK                            x       y       z     vdW  Elec       q    Type
REMARK                         _______ _______ _______ _____ _____    ______ ____
ROOT
ATOM      1  C   UNL     1       4.650   5.664  19.540  0.00  0.00    +0.000 C 
ENDROOT
BRANCH   1   3
ATOM      2  C   UNL     1       3.108   3.604  19.170  0.00  0.00    +0.000 A 
ATOM      3  C   UNL     1       3.359   4.905  19.618  0.00  0.00    +0.000 A 
ATOM      4  C   UNL     1       2.069   5.367  20.054  0.00  0.00    +0.000 A 
ATOM      5  C   UNL     1       1.643   6.663  20.648  0.00  0.00    +0.000 C 
ATOM      6  N   UNL     1       1.114   4.451  19.862  0.00  0.00    +0.000 NA
ATOM      7  N   UNL     1       1.755   3.433  19.275  0.00  0.00    +0.000 N 
ATOM      8  C   UNL     1       0.989   2.295  18.820  0.00  0.00    +0.000 C 
BRANCH   2  10
ATOM      9  C   UNL     1       4.528   1.759  19.550  0.00  0.00    +0.000 C 
ATOM     10  O   UNL     1       3.839   2.613  18.648  0.00  0.00    +0.000 OA
ENDBRANCH   2  10
ENDBRANCH   1   3
BRANCH   1  11
ATOM     11  N   UNL     1       5.147   5.830  18.182  0.00  0.00    +0.000 NA
ATOM     12  C   UNL     1       4.274   6.508  17.253  0.00  0.00    +0.000 C 
BRANCH  11  13
ATOM     13  C   UNL     1       6.580   5.610  17.958  0.00  0.00    +0.000 C 
ATOM     14  C   UNL     1       7.291   6.648  17.063  0.00  0.00    +0.000 C 
ATOM     15  O   UNL     1       7.423   6.104  15.739  0.00  0.00    +0.000 OA
ATOM     16  C   UNL     1       7.016   4.728  15.788  0.00  0.00    +0.000 C 
ATOM     17  C   UNL     1       7.025   4.324  17.258  0.00  0.00    +0.000 C 
BRANCH  17  18
ATOM     18  O   UNL     1       8.347   3.995  17.716  0.00  0.00    +0.000 OA
ATOM     19  H   UNL     1       8.588   3.119  17.370  0.00  0.00    +0.000 HD
ENDBRANCH  17  18
ENDBRANCH  11  13
ENDBRANCH   1  11
TORSDOF 5
ENDMDL
MODEL 2
REMARK VINA RESULT:      -6.2      1.984      5.392
REMARK  Name = 
REMARK  9 active torsions:
REMARK  status: ('A' for Active; 'I' for Inactive)
REMARK    1  A    between atoms: C_1  and  O_2
REMARK    2  A    between atoms: O_2  and  C_3
REMARK    3  A    between atoms: C_4  and  C_5
REMARK    4  A    between atoms: C_5  and  N_6
REMARK    5  A    between atoms: N_6  and  C_7
REMARK    6  A    between atoms: N_6  and  C_8
REMARK    7  A    between atoms: C_12  and  O_13
REMARK    8  A    between atoms: C_14  and  C_15
REMARK    9  A    between atoms: N_17  and  C_18
REMARK                            x       y       z     vdW  Elec       q    Type
REMARK                         _______ _______ _______ _____ _____    ______ ____
ROOT
ATOM      1  C   UNL     1       2.901   4.010  17.330  0.00  0.00    +0.000 C 
ENDROOT
BRANCH   1   3
ATOM      2  C   UNL     1       5.276   4.996  16.954  0.00  0.00    +0.000 A 
ATOM      3  C   UNL     1       3.923   5.107  17.286  0.00  0.00    +0.000 A 
ATOM      4  C   UNL     1       3.783   6.482  17.681  0.00  0.00    +0.000 A 
ATOM      5  C   UNL     1       2.596   7.254  18.137  0.00  0.00    +0.000 C 
ATOM      6  N   UNL     1       4.945   7.143  17.627  0.00  0.00    +0.000 NA
ATOM      7  N   UNL     1       5.829   6.212  17.250  0.00  0.00    +0.000 N 
ATOM      8  C   UNL     1       7.231   6.561  17.198  0.00  0.00    +0.000 C 
BRANCH   2  10
ATOM      9  C   UNL     1       6.072   3.745  15.119  0.00  0.00    +0.000 C 
ATOM     10  O   UNL     1       6.078   4.020  16.513  0.00  0.00    +0.000 OA
ENDBRANCH   2  10
ENDBRANCH   1   3
BRANCH   1  11
ATOM     11  N   UNL     1       3.090   3.083  18.435  0.00  0.00    +0.000 NA
ATOM     12  C   UNL     1       3.510   1.745  18.091  0.00  0.00    +0.000 C 
BRANCH  11  13
ATOM     13  C   UNL     1       3.171   3.652  19.785  0.00  0.00    +0.000 C 
ATOM     14  C   UNL     1       3.434   2.646  20.928  0.00  0.00    +0.000 C 
ATOM     15  O   UNL     1       2.186   2.348  21.577  0.00  0.00    +0.000 OA
ATOM     16  C   UNL     1       1.192   3.236  21.046  0.00  0.00    +0.000 C 
ATOM     17  C   UNL     1       1.945   4.368  20.356  0.00  0.00    +0.000 C 
BRANCH  17  18
ATOM     18  O   UNL     1       2.396   5.361  21.291  0.00  0.00    +0.000 OA
ATOM     19  H   UNL     1       3.295   5.130  21.582  0.00  0.00    +0.000 HD
ENDBRANCH  17  18
ENDBRANCH  11  13
ENDBRANCH   1  11
TORSDOF 5
ENDMDL
MODEL 3
REMARK VINA RESULT:      -6.2      1.258      1.383
REMARK  Name = 
REMARK  9 active torsions:
REMARK  status: ('A' for Active; 'I' for Inactive)
REMARK    1  A    between atoms: C_1  and  O_2
REMARK    2  A    between atoms: O_2  and  C_3
REMARK    3  A    between atoms: C_4  and  C_5
REMARK    4  A    between atoms: C_5  and  N_6
REMARK    5  A    between atoms: N_6  and  C_7
REMARK    6  A    between atoms: N_6  and  C_8
REMARK    7  A    between atoms: C_12  and  O_13
REMARK    8  A    between atoms: C_14  and  C_15
REMARK    9  A    between atoms: N_17  and  C_18
REMARK                            x       y       z     vdW  Elec       q    Type
REMARK                         _______ _______ _______ _____ _____    ______ ____
ROOT
ATOM      1  C   UNL     1       3.340   5.279  17.582  0.00  0.00    +0.000 C 
ENDROOT
BRANCH   1   3
ATOM      2  C   UNL     1       3.266   3.594  19.560  0.00  0.00    +0.000 A 
ATOM      3  C   UNL     1       3.048   4.852  18.990  0.00  0.00    +0.000 A 
ATOM      4  C   UNL     1       2.380   5.585  20.031  0.00  0.00    +0.000 A 
ATOM      5  C   UNL     1       1.882   6.986  20.078  0.00  0.00    +0.000 C 
ATOM      6  N   UNL     1       2.179   4.839  21.123  0.00  0.00    +0.000 NA
ATOM      7  N   UNL     1       2.663   3.637  20.787  0.00  0.00    +0.000 N 
ATOM      8  C   UNL     1       2.505   2.538  21.712  0.00  0.00    +0.000 C 
BRANCH   2  10
ATOM      9  C   UNL     1       3.217   1.750  18.089  0.00  0.00    +0.000 C 
ATOM     10  O   UNL     1       3.830   2.447  19.165  0.00  0.00    +0.000 OA
ENDBRANCH   2  10
ENDBRANCH   1   3
BRANCH   1  11
ATOM     11  N   UNL     1       4.373   6.298  17.485  0.00  0.00    +0.000 NA
ATOM     12  C   UNL     1       3.924   7.663  17.339  0.00  0.00    +0.000 C 
BRANCH  11  13
ATOM     13  C   UNL     1       5.735   5.915  17.874  0.00  0.00    +0.000 C 
ATOM     14  C   UNL     1       6.862   6.865  17.412  0.00  0.00    +0.000 C 
ATOM     15  O   UNL     1       7.485   6.310  16.242  0.00  0.00    +0.000 OA
ATOM     16  C   UNL     1       6.955   4.990  16.048  0.00  0.00    +0.000 C 
ATOM     17  C   UNL     1       6.299   4.588  17.364  0.00  0.00    +0.000 C 
BRANCH  17  18
ATOM     18  O   UNL     1       7.260   4.109  18.319  0.00  0.00    +0.000 OA
ATOM     19  H   UNL     1       8.038   3.776  17.838  0.00  0.00    +0.000 HD
ENDBRANCH  17  18
ENDBRANCH  11  13
ENDBRANCH   1  11
TORSDOF 5
ENDMDL
MODEL 4
REMARK VINA RESULT:      -6.1      1.533      1.755
REMARK  Name = 
REMARK  9 active torsions:
REMARK  status: ('A' for Active; 'I' for Inactive)
REMARK    1  A    between atoms: C_1  and  O_2
REMARK    2  A    between atoms: O_2  and  C_3
REMARK    3  A    between atoms: C_4  and  C_5
REMARK    4  A    between atoms: C_5  and  N_6
REMARK    5  A    between atoms: N_6  and  C_7
REMARK    6  A    between atoms: N_6  and  C_8
REMARK    7  A    between atoms: C_12  and  O_13
REMARK    8  A    between atoms: C_14  and  C_15
REMARK    9  A    between atoms: N_17  and  C_18
REMARK                            x       y       z     vdW  Elec       q    Type
REMARK                         _______ _______ _______ _____ _____    ______ ____
ROOT
ATOM      1  C   UNL     1       3.130   5.492  17.645  0.00  0.00    +0.000 C 
ENDROOT
BRANCH   1   3
ATOM      2  C   UNL     1       2.709   3.741  19.520  0.00  0.00    +0.000 A 
ATOM      3  C   UNL     1       2.730   5.047  19.021  0.00  0.00    +0.000 A 
ATOM      4  C   UNL     1       2.174   5.828  20.092  0.00  0.00    +0.000 A 
ATOM      5  C   UNL     1       1.929   7.291  20.213  0.00  0.00    +0.000 C 
ATOM      6  N   UNL     1       1.816   5.071  21.135  0.00  0.00    +0.000 NA
ATOM      7  N   UNL     1       2.090   3.823  20.738  0.00  0.00    +0.000 N 
ATOM      8  C   UNL     1       1.717   2.720  21.594  0.00  0.00    +0.000 C 
BRANCH   2  10
ATOM      9  C   UNL     1       2.390   2.028  17.930  0.00  0.00    +0.000 C 
ATOM     10  O   UNL     1       3.073   2.536  19.068  0.00  0.00    +0.000 OA
ENDBRANCH   2  10
ENDBRANCH   1   3
BRANCH   1  11
ATOM     11  N   UNL     1       4.493   5.129  17.290  0.00  0.00    +0.000 NA
ATOM     12  C   UNL     1       4.679   4.487  16.010  0.00  0.00    +0.000 C 
BRANCH  11  13
ATOM     13  C   UNL     1       5.576   5.731  18.076  0.00  0.00    +0.000 C 
ATOM     14  C   UNL     1       6.545   6.650  17.299  0.00  0.00    +0.000 C 
ATOM     15  O   UNL     1       7.738   5.911  16.992  0.00  0.00    +0.000 OA
ATOM     16  C   UNL     1       7.665   4.655  17.682  0.00  0.00    +0.000 C 
ATOM     17  C   UNL     1       6.592   4.809  18.753  0.00  0.00    +0.000 C 
BRANCH  17  18
ATOM     18  O   UNL     1       7.094   5.474  19.925  0.00  0.00    +0.000 OA
ATOM     19  H   UNL     1       6.822   6.408  19.894  0.00  0.00    +0.000 HD
ENDBRANCH  17  18
ENDBRANCH  11  13
ENDBRANCH   1  11
TORSDOF 5
ENDMDL
MODEL 5
REMARK VINA RESULT:      -5.9      1.489      1.816
REMARK  Name = 
REMARK  9 active torsions:
REMARK  status: ('A' for Active; 'I' for Inactive)
REMARK    1  A    between atoms: C_1  and  O_2
REMARK    2  A    between atoms: O_2  and  C_3
REMARK    3  A    between atoms: C_4  and  C_5
REMARK    4  A    between atoms: C_5  and  N_6
REMARK    5  A    between atoms: N_6  and  C_7
REMARK    6  A    between atoms: N_6  and  C_8
REMARK    7  A    between atoms: C_12  and  O_13
REMARK    8  A    between atoms: C_14  and  C_15
REMARK    9  A    between atoms: N_17  and  C_18
REMARK                            x       y       z     vdW  Elec       q    Type
REMARK                         _______ _______ _______ _____ _____    ______ ____
ROOT
ATOM      1  C   UNL     1       3.772   4.883  17.797  0.00  0.00    +0.000 C 
ENDROOT
BRANCH   1   3
ATOM      2  C   UNL     1       2.831   3.467  19.764  0.00  0.00    +0.000 A 
ATOM      3  C   UNL     1       3.058   4.677  19.100  0.00  0.00    +0.000 A 
ATOM      4  C   UNL     1       2.350   5.639  19.900  0.00  0.00    +0.000 A 
ATOM      5  C   UNL     1       2.198   7.112  19.753  0.00  0.00    +0.000 C 
ATOM      6  N   UNL     1       1.722   5.070  20.935  0.00  0.00    +0.000 NA
ATOM      7  N   UNL     1       1.978   3.764  20.790  0.00  0.00    +0.000 N 
ATOM      8  C   UNL     1       1.349   2.826  21.692  0.00  0.00    +0.000 C 
BRANCH   2  10
ATOM      9  C   UNL     1       4.526   1.831  19.899  0.00  0.00    +0.000 C 
ATOM     10  O   UNL     1       3.189   2.191  19.580  0.00  0.00    +0.000 OA
ENDBRANCH   2  10
ENDBRANCH   1   3
BRANCH   1  11
ATOM     11  N   UNL     1       5.221   4.930  17.929  0.00  0.00    +0.000 NA
ATOM     12  C   UNL     1       5.740   5.356  19.207  0.00  0.00    +0.000 C 
BRANCH  11  13
ATOM     13  C   UNL     1       6.012   4.240  16.905  0.00  0.00    +0.000 C 
ATOM     14  C   UNL     1       7.484   4.689  16.772  0.00  0.00    +0.000 C 
ATOM     15  O   UNL     1       7.594   5.590  15.658  0.00  0.00    +0.000 OA
ATOM     16  C   UNL     1       6.335   5.591  14.969  0.00  0.00    +0.000 C 
ATOM     17  C   UNL     1       5.581   4.354  15.442  0.00  0.00    +0.000 C 
BRANCH  17  18
ATOM     18  O   UNL     1       6.008   3.168  14.751  0.00  0.00    +0.000 OA
ATOM     19  H   UNL     1       5.856   3.290  13.798  0.00  0.00    +0.000 HD
ENDBRANCH  17  18
ENDBRANCH  11  13
ENDBRANCH   1  11
TORSDOF 5
ENDMDL
MODEL 6
REMARK VINA RESULT:      -5.9      2.205      3.520
REMARK  Name = 
REMARK  9 active torsions:
REMARK  status: ('A' for Active; 'I' for Inactive)
REMARK    1  A    between atoms: C_1  and  O_2
REMARK    2  A    between atoms: O_2  and  C_3
REMARK    3  A    between atoms: C_4  and  C_5
REMARK    4  A    between atoms: C_5  and  N_6
REMARK    5  A    between atoms: N_6  and  C_7
REMARK    6  A    between atoms: N_6  and  C_8
REMARK    7  A    between atoms: C_12  and  O_13
REMARK    8  A    between atoms: C_14  and  C_15
REMARK    9  A    between atoms: N_17  and  C_18
REMARK                            x       y       z     vdW  Elec       q    Type
REMARK                         _______ _______ _______ _____ _____    ______ ____
ROOT
ATOM      1  C   UNL     1       3.383   5.234  17.870  0.00  0.00    +0.000 C 
ENDROOT
BRANCH   1   3
ATOM      2  C   UNL     1       2.336   7.198  19.214  0.00  0.00    +0.000 A 
ATOM      3  C   UNL     1       2.565   5.840  18.972  0.00  0.00    +0.000 A 
ATOM      4  C   UNL     1       1.935   5.186  20.087  0.00  0.00    +0.000 A 
ATOM      5  C   UNL     1       1.803   3.745  20.430  0.00  0.00    +0.000 C 
ATOM      6  N   UNL     1       1.398   6.060  20.946  0.00  0.00    +0.000 NA
ATOM      7  N   UNL     1       1.709   7.255  20.428  0.00  0.00    +0.000 N 
ATOM      8  C   UNL     1       1.373   8.447  21.174  0.00  0.00    +0.000 C 
BRANCH   2  10
ATOM      9  C   UNL     1       1.653   8.897  17.727  0.00  0.00    +0.000 C 
ATOM     10  O   UNL     1       2.633   8.345  18.594  0.00  0.00    +0.000 OA
ENDBRANCH   2  10
ENDBRANCH   1   3
BRANCH   1  11
ATOM     11  N   UNL     1       4.816   5.270  18.122  0.00  0.00    +0.000 NA
ATOM     12  C   UNL     1       5.370   4.162  18.862  0.00  0.00    +0.000 C 
BRANCH  11  13
ATOM     13  C   UNL     1       5.613   6.220  17.338  0.00  0.00    +0.000 C 
ATOM     14  C   UNL     1       5.047   6.593  15.950  0.00  0.00    +0.000 C 
ATOM     15  O   UNL     1       5.736   5.826  14.949  0.00  0.00    +0.000 OA
ATOM     16  C   UNL     1       6.820   5.140  15.591  0.00  0.00    +0.000 C 
ATOM     17  C   UNL     1       7.035   5.828  16.934  0.00  0.00    +0.000 C 
BRANCH  17  18
ATOM     18  O   UNL     1       7.815   7.028  16.803  0.00  0.00    +0.000 OA
ATOM     19  H   UNL     1       8.749   6.782  16.683  0.00  0.00    +0.000 HD
ENDBRANCH  17  18
ENDBRANCH  11  13
ENDBRANCH   1  11
TORSDOF 5
ENDMDL
MODEL 7
REMARK VINA RESULT:      -5.9      1.547      1.777
REMARK  Name = 
REMARK  9 active torsions:
REMARK  status: ('A' for Active; 'I' for Inactive)
REMARK    1  A    between atoms: C_1  and  O_2
REMARK    2  A    between atoms: O_2  and  C_3
REMARK    3  A    between atoms: C_4  and  C_5
REMARK    4  A    between atoms: C_5  and  N_6
REMARK    5  A    between atoms: N_6  and  C_7
REMARK    6  A    between atoms: N_6  and  C_8
REMARK    7  A    between atoms: C_12  and  O_13
REMARK    8  A    between atoms: C_14  and  C_15
REMARK    9  A    between atoms: N_17  and  C_18
REMARK                            x       y       z     vdW  Elec       q    Type
REMARK                         _______ _______ _______ _____ _____    ______ ____
ROOT
ATOM      1  C   UNL     1       3.384   5.508  17.489  0.00  0.00    +0.000 C 
ENDROOT
BRANCH   1   3
ATOM      2  C   UNL     1       3.150   3.812  19.445  0.00  0.00    +0.000 A 
ATOM      3  C   UNL     1       3.047   5.091  18.890  0.00  0.00    +0.000 A 
ATOM      4  C   UNL     1       2.438   5.866  19.936  0.00  0.00    +0.000 A 
ATOM      5  C   UNL     1       2.065   7.305  19.998  0.00  0.00    +0.000 C 
ATOM      6  N   UNL     1       2.165   5.127  21.017  0.00  0.00    +0.000 NA
ATOM      7  N   UNL     1       2.545   3.892  20.669  0.00  0.00    +0.000 N 
ATOM      8  C   UNL     1       2.285   2.800  21.579  0.00  0.00    +0.000 C 
BRANCH   2  10
ATOM      9  C   UNL     1       2.965   2.009  17.935  0.00  0.00    +0.000 C 
ATOM     10  O   UNL     1       3.614   2.625  19.038  0.00  0.00    +0.000 OA
ENDBRANCH   2  10
ENDBRANCH   1   3
BRANCH   1  11
ATOM     11  N   UNL     1       4.804   5.751  17.281  0.00  0.00    +0.000 NA
ATOM     12  C   UNL     1       5.311   7.031  17.716  0.00  0.00    +0.000 C 
BRANCH  11  13
ATOM     13  C   UNL     1       5.647   4.591  16.971  0.00  0.00    +0.000 C 
ATOM     14  C   UNL     1       7.171   4.813  17.089  0.00  0.00    +0.000 C 
ATOM     15  O   UNL     1       7.709   5.033  15.774  0.00  0.00    +0.000 OA
ATOM     16  C   UNL     1       6.664   4.777  14.825  0.00  0.00    +0.000 C 
ATOM     17  C   UNL     1       5.587   3.993  15.564  0.00  0.00    +0.000 C 
BRANCH  17  18
ATOM     18  O   UNL     1       5.907   2.594  15.654  0.00  0.00    +0.000 OA
ATOM     19  H   UNL     1       6.539   2.373  14.948  0.00  0.00    +0.000 HD
ENDBRANCH  17  18
ENDBRANCH  11  13
ENDBRANCH   1  11
TORSDOF 5
ENDMDL
MODEL 8
REMARK VINA RESULT:      -5.9      1.424      1.810
REMARK  Name = 
REMARK  9 active torsions:
REMARK  status: ('A' for Active; 'I' for Inactive)
REMARK    1  A    between atoms: C_1  and  O_2
REMARK    2  A    between atoms: O_2  and  C_3
REMARK    3  A    between atoms: C_4  and  C_5
REMARK    4  A    between atoms: C_5  and  N_6
REMARK    5  A    between atoms: N_6  and  C_7
REMARK    6  A    between atoms: N_6  and  C_8
REMARK    7  A    between atoms: C_12  and  O_13
REMARK    8  A    between atoms: C_14  and  C_15
REMARK    9  A    between atoms: N_17  and  C_18
REMARK                            x       y       z     vdW  Elec       q    Type
REMARK                         _______ _______ _______ _____ _____    ______ ____
ROOT
ATOM      1  C   UNL     1       3.353   4.919  17.459  0.00  0.00    +0.000 C 
ENDROOT
BRANCH   1   3
ATOM      2  C   UNL     1       2.761   3.480  19.542  0.00  0.00    +0.000 A 
ATOM      3  C   UNL     1       2.890   4.699  18.869  0.00  0.00    +0.000 A 
ATOM      4  C   UNL     1       2.369   5.659  19.804  0.00  0.00    +0.000 A 
ATOM      5  C   UNL     1       2.230   7.137  19.714  0.00  0.00    +0.000 C 
ATOM      6  N   UNL     1       1.932   5.082  20.929  0.00  0.00    +0.000 NA
ATOM      7  N   UNL     1       2.122   3.774  20.716  0.00  0.00    +0.000 N 
ATOM      8  C   UNL     1       1.649   2.830  21.703  0.00  0.00    +0.000 C 
BRANCH   2  10
ATOM      9  C   UNL     1       4.376   1.761  19.501  0.00  0.00    +0.000 C 
ATOM     10  O   UNL     1       3.045   2.201  19.272  0.00  0.00    +0.000 OA
ENDBRANCH   2  10
ENDBRANCH   1   3
BRANCH   1  11
ATOM     11  N   UNL     1       4.628   5.613  17.367  0.00  0.00    +0.000 NA
ATOM     12  C   UNL     1       4.573   7.042  17.166  0.00  0.00    +0.000 C 
BRANCH  11  13
ATOM     13  C   UNL     1       5.823   4.887  17.812  0.00  0.00    +0.000 C 
ATOM     14  C   UNL     1       6.182   5.029  19.308  0.00  0.00    +0.000 C 
ATOM     15  O   UNL     1       7.229   6.003  19.442  0.00  0.00    +0.000 OA
ATOM     16  C   UNL     1       7.683   6.343  18.124  0.00  0.00    +0.000 C 
ATOM     17  C   UNL     1       7.175   5.248  17.193  0.00  0.00    +0.000 C 
BRANCH  17  18
ATOM     18  O   UNL     1       8.014   4.082  17.228  0.00  0.00    +0.000 OA
ATOM     19  H   UNL     1       8.864   4.296  16.807  0.00  0.00    +0.000 HD
ENDBRANCH  17  18
ENDBRANCH  11  13
ENDBRANCH   1  11
TORSDOF 5
ENDMDL
MODEL 9
REMARK VINA RESULT:      -5.9      1.926      5.639
REMARK  Name = 
REMARK  9 active torsions:
REMARK  status: ('A' for Active; 'I' for Inactive)
REMARK    1  A    between atoms: C_1  and  O_2
REMARK    2  A    between atoms: O_2  and  C_3
REMARK    3  A    between atoms: C_4  and  C_5
REMARK    4  A    between atoms: C_5  and  N_6
REMARK    5  A    between atoms: N_6  and  C_7
REMARK    6  A    between atoms: N_6  and  C_8
REMARK    7  A    between atoms: C_12  and  O_13
REMARK    8  A    between atoms: C_14  and  C_15
REMARK    9  A    between atoms: N_17  and  C_18
REMARK                            x       y       z     vdW  Elec       q    Type
REMARK                         _______ _______ _______ _____ _____    ______ ____
ROOT
ATOM      1  C   UNL     1       3.610   4.084  17.317  0.00  0.00    +0.000 C 
ENDROOT
BRANCH   1   3
ATOM      2  C   UNL     1       5.802   5.441  16.984  0.00  0.00    +0.000 A 
ATOM      3  C   UNL     1       4.437   5.335  17.268  0.00  0.00    +0.000 A 
ATOM      4  C   UNL     1       4.057   6.678  17.612  0.00  0.00    +0.000 A 
ATOM      5  C   UNL     1       2.742   7.253  18.004  0.00  0.00    +0.000 C 
ATOM      6  N   UNL     1       5.094   7.521  17.573  0.00  0.00    +0.000 NA
ATOM      7  N   UNL     1       6.134   6.740  17.256  0.00  0.00    +0.000 N 
ATOM      8  C   UNL     1       7.459   7.316  17.237  0.00  0.00    +0.000 C 
BRANCH   2  10
ATOM      9  C   UNL     1       6.777   4.180  15.245  0.00  0.00    +0.000 C 
ATOM     10  O   UNL     1       6.770   4.601  16.602  0.00  0.00    +0.000 OA
ENDBRANCH   2  10
ENDBRANCH   1   3
BRANCH   1  11
ATOM     11  N   UNL     1       3.423   3.562  18.662  0.00  0.00    +0.000 NA
ATOM     12  C   UNL     1       4.617   3.172  19.375  0.00  0.00    +0.000 C 
BRANCH  11  13
ATOM     13  C   UNL     1       2.119   3.785  19.296  0.00  0.00    +0.000 C 
ATOM     14  C   UNL     1       2.122   4.687  20.550  0.00  0.00    +0.000 C 
ATOM     15  O   UNL     1       2.085   3.854  21.720  0.00  0.00    +0.000 OA
ATOM     16  C   UNL     1       1.867   2.502  21.288  0.00  0.00    +0.000 C 
ATOM     17  C   UNL     1       1.358   2.581  19.854  0.00  0.00    +0.000 C 
BRANCH  17  18
ATOM     18  O   UNL     1      -0.049   2.871  19.799  0.00  0.00    +0.000 OA
ATOM     19  H   UNL     1      -0.480   2.218  19.221  0.00  0.00    +0.000 HD
ENDBRANCH  17  18
ENDBRANCH  11  13
ENDBRANCH   1  11
TORSDOF 5
ENDMDL
