MODEL 1
REMARK VINA RESULT:      -7.7      0.000      0.000
REMARK  Name = 
REMARK  9 active torsions:
REMARK  status: ('A' for Active; 'I' for Inactive)
REMARK    1  A    between atoms: C_1  and  C_2
REMARK    2  A    between atoms: C_4  and  C_5
REMARK    3  A    between atoms: C_5  and  C_6
REMARK    4  A    between atoms: C_5  and  O_7
REMARK    5  A    between atoms: C_5  and  C_8
REMARK    6  A    between atoms: C_9  and  C_10
REMARK    7  A    between atoms: C_23  and  C_24
REMARK    8  A    between atoms: C_27  and  C_28
REMARK    9  A    between atoms: C_28  and  N_29
REMARK                            x       y       z     vdW  Elec       q    Type
REMARK                         _______ _______ _______ _____ _____    ______ ____
ROOT
ATOM      1  C   UNL     1       3.300   6.381  19.361  0.00  0.00    +0.000 A 
ATOM      2  C   UNL     1       2.808   7.689  19.255  0.00  0.00    +0.000 A 
ATOM      3  C   UNL     1       1.633   8.094  19.940  0.00  0.00    +0.000 A 
ATOM      4  C   UNL     1       0.937   7.140  20.695  0.00  0.00    +0.000 A 
ATOM      5  C   UNL     1       1.443   5.834  20.792  0.00  0.00    +0.000 A 
ATOM      6  C   UNL     1       2.621   5.470  20.157  0.00  0.00    +0.000 A 
ATOM      7  F   UNL     1       3.088   4.224  20.331  0.00  0.00    +0.000 F 
ATOM      8  O   UNL     1      -0.220   7.264  21.402  0.00  0.00    +0.000 OA
ATOM      9  C   UNL     1      -0.805   8.519  21.722  0.00  0.00    +0.000 C 
ATOM     10  C   UNL     1       0.167   9.633  22.071  0.00  0.00    +0.000 C 
ATOM     11  N   UNL     1       0.698  10.244  20.867  0.00  0.00    +0.000 N 
ATOM     12  C   UNL     1       1.278   9.521  19.850  0.00  0.00    +0.000 A 
ATOM     13  N   UNL     1       1.557  10.327  18.844  0.00  0.00    +0.000 NA
ATOM     14  C   UNL     1       1.215  11.615  19.236  0.00  0.00    +0.000 A 
ATOM     15  C   UNL     1       0.740  11.590  20.550  0.00  0.00    +0.000 A 
ENDROOT
BRANCH  14  16
ATOM     16  C   UNL     1       1.369  12.757  18.331  0.00  0.00    +0.000 C 
ATOM     17  N   UNL     1       2.492  12.770  17.545  0.00  0.00    +0.000 N 
ATOM     18  O   UNL     1       0.551  13.667  18.223  0.00  0.00    +0.000 OA
ATOM     19  H   UNL     1       3.000  11.918  17.364  0.00  0.00    +0.000 HD
ATOM     20  H   UNL     1       2.535  13.508  16.855  0.00  0.00    +0.000 HD
ENDBRANCH  14  16
BRANCH   1  22
ATOM     21  C   UNL     1       5.486   5.675  18.075  0.00  0.00    +0.000 C 
ATOM     22  C   UNL     1       4.469   5.969  18.644  0.00  0.00    +0.000 C 
BRANCH  21  23
ATOM     23  C   UNL     1       6.770   5.294  17.449  0.00  0.00    +0.000 C 
ATOM     24  C   UNL     1       7.802   6.402  17.712  0.00  0.00    +0.000 C 
BRANCH  23  28
ATOM     25  C   UNL     1       5.406   3.554  12.816  0.00  0.00    +0.000 C 
ATOM     26  C   UNL     1       5.932   4.220  14.020  0.00  0.00    +0.000 A 
ATOM     27  C   UNL     1       5.646   4.148  15.357  0.00  0.00    +0.000 A 
ATOM     28  C   UNL     1       6.584   5.021  15.971  0.00  0.00    +0.000 A 
ATOM     29  N   UNL     1       7.377   5.591  15.044  0.00  0.00    +0.000 NA
ATOM     30  O   UNL     1       6.969   5.076  13.828  0.00  0.00    +0.000 OA
ENDBRANCH  23  28
BRANCH  23  31
ATOM     31  O   UNL     1       7.251   4.112  18.113  0.00  0.00    +0.000 OA
ATOM     32  H   UNL     1       6.498   3.497  18.154  0.00  0.00    +0.000 HD
ENDBRANCH  23  31
ENDBRANCH  21  23
ENDBRANCH   1  22
BRANCH  15  33
ATOM     33  C   UNL     1       0.268  12.695  21.448  0.00  0.00    +0.000 C 
BRANCH  33  34
ATOM     34  N   UNL     1      -1.048  13.250  21.099  0.00  0.00    +0.000 NA
ATOM     35  C   UNL     1      -1.421  14.351  22.007  0.00  0.00    +0.000 C 
ATOM     36  C   UNL     1      -2.426  13.778  22.989  0.00  0.00    +0.000 C 
ATOM     37  C   UNL     1      -3.147  12.712  22.196  0.00  0.00    +0.000 C 
ATOM     38  C   UNL     1      -2.180  12.314  21.090  0.00  0.00    +0.000 C 
ENDBRANCH  33  34
ENDBRANCH  15  33
TORSDOF 7
ENDMDL
MODEL 2
REMARK VINA RESULT:      -7.7      3.531     10.213
REMARK  Name = 
REMARK  9 active torsions:
REMARK  status: ('A' for Active; 'I' for Inactive)
REMARK    1  A    between atoms: C_1  and  C_2
REMARK    2  A    between atoms: C_4  and  C_5
REMARK    3  A    between atoms: C_5  and  C_6
REMARK    4  A    between atoms: C_5  and  O_7
REMARK    5  A    between atoms: C_5  and  C_8
REMARK    6  A    between atoms: C_9  and  C_10
REMARK    7  A    between atoms: C_23  and  C_24
REMARK    8  A    between atoms: C_27  and  C_28
REMARK    9  A    between atoms: C_28  and  N_29
REMARK                            x       y       z     vdW  Elec       q    Type
REMARK                         _______ _______ _______ _____ _____    ______ ____
ROOT
ATOM      1  C   UNL     1       0.880  10.208  19.943  0.00  0.00    +0.000 A 
ATOM      2  C   UNL     1       1.173   8.848  20.114  0.00  0.00    +0.000 A 
ATOM      3  C   UNL     1       1.925   8.127  19.150  0.00  0.00    +0.000 A 
ATOM      4  C   UNL     1       2.334   8.794  17.987  0.00  0.00    +0.000 A 
ATOM      5  C   UNL     1       2.034  10.156  17.831  0.00  0.00    +0.000 A 
ATOM      6  C   UNL     1       1.342  10.857  18.807  0.00  0.00    +0.000 A 
ATOM      7  F   UNL     1       1.132  12.171  18.630  0.00  0.00    +0.000 F 
ATOM      8  O   UNL     1       3.020   8.323  16.910  0.00  0.00    +0.000 OA
ATOM      9  C   UNL     1       3.700   7.075  16.905  0.00  0.00    +0.000 C 
ATOM     10  C   UNL     1       4.396   6.696  18.201  0.00  0.00    +0.000 C 
ATOM     11  N   UNL     1       3.452   6.121  19.139  0.00  0.00    +0.000 N 
ATOM     12  C   UNL     1       2.273   6.737  19.492  0.00  0.00    +0.000 A 
ATOM     13  N   UNL     1       1.571   5.930  20.265  0.00  0.00    +0.000 NA
ATOM     14  C   UNL     1       2.335   4.790  20.476  0.00  0.00    +0.000 A 
ATOM     15  C   UNL     1       3.566   4.928  19.831  0.00  0.00    +0.000 A 
ENDROOT
BRANCH  14  16
ATOM     16  C   UNL     1       1.829   3.668  21.272  0.00  0.00    +0.000 C 
ATOM     17  N   UNL     1       0.699   3.046  20.809  0.00  0.00    +0.000 N 
ATOM     18  O   UNL     1       2.368   3.249  22.294  0.00  0.00    +0.000 OA
ATOM     19  H   UNL     1       0.425   3.135  19.843  0.00  0.00    +0.000 HD
ATOM     20  H   UNL     1       0.421   2.213  21.311  0.00  0.00    +0.000 HD
ENDBRANCH  14  16
BRANCH   1  22
ATOM     21  C   UNL     1      -0.550  11.583  21.674  0.00  0.00    +0.000 C 
ATOM     22  C   UNL     1       0.096  10.923  20.904  0.00  0.00    +0.000 C 
BRANCH  21  23
ATOM     23  C   UNL     1      -1.397  12.411  22.559  0.00  0.00    +0.000 C 
ATOM     24  C   UNL     1      -2.795  12.539  21.933  0.00  0.00    +0.000 C 
BRANCH  23  28
ATOM     25  C   UNL     1       1.366  16.735  22.429  0.00  0.00    +0.000 C 
ATOM     26  C   UNL     1       0.466  15.594  22.667  0.00  0.00    +0.000 A 
ATOM     27  C   UNL     1       0.129  14.473  21.955  0.00  0.00    +0.000 A 
ATOM     28  C   UNL     1      -0.754  13.758  22.808  0.00  0.00    +0.000 A 
ATOM     29  N   UNL     1      -0.942  14.427  23.960  0.00  0.00    +0.000 NA
ATOM     30  O   UNL     1      -0.167  15.568  23.868  0.00  0.00    +0.000 OA
ENDBRANCH  23  28
BRANCH  23  31
ATOM     31  O   UNL     1      -1.560  11.703  23.800  0.00  0.00    +0.000 OA
ATOM     32  H   UNL     1      -1.575  12.379  24.500  0.00  0.00    +0.000 HD
ENDBRANCH  23  31
ENDBRANCH  21  23
ENDBRANCH   1  22
BRANCH  15  33
ATOM     33  C   UNL     1       4.751   4.011  19.764  0.00  0.00    +0.000 C 
BRANCH  33  34
ATOM     34  N   UNL     1       4.649   2.947  18.754  0.00  0.00    +0.000 NA
ATOM     35  C   UNL     1       4.370   3.503  17.418  0.00  0.00    +0.000 C 
ATOM     36  C   UNL     1       2.893   3.273  17.154  0.00  0.00    +0.000 C 
ATOM     37  C   UNL     1       2.582   1.997  17.903  0.00  0.00    +0.000 C 
ATOM     38  C   UNL     1       3.641   1.904  18.992  0.00  0.00    +0.000 C 
ENDBRANCH  33  34
ENDBRANCH  15  33
TORSDOF 7
ENDMDL
MODEL 3
REMARK VINA RESULT:      -7.7      2.578      9.578
REMARK  Name = 
REMARK  9 active torsions:
REMARK  status: ('A' for Active; 'I' for Inactive)
REMARK    1  A    between atoms: C_1  and  C_2
REMARK    2  A    between atoms: C_4  and  C_5
REMARK    3  A    between atoms: C_5  and  C_6
REMARK    4  A    between atoms: C_5  and  O_7
REMARK    5  A    between atoms: C_5  and  C_8
REMARK    6  A    between atoms: C_9  and  C_10
REMARK    7  A    between atoms: C_23  and  C_24
REMARK    8  A    between atoms: C_27  and  C_28
REMARK    9  A    between atoms: C_28  and  N_29
REMARK                            x       y       z     vdW  Elec       q    Type
REMARK                         _______ _______ _______ _____ _____    ______ ____
ROOT
ATOM      1  C   UNL     1       1.457   6.403  20.336  0.00  0.00    +0.000 A 
ATOM      2  C   UNL     1       2.739   6.318  19.775  0.00  0.00    +0.000 A 
ATOM      3  C   UNL     1       3.260   5.084  19.306  0.00  0.00    +0.000 A 
ATOM      4  C   UNL     1       2.481   3.929  19.458  0.00  0.00    +0.000 A 
ATOM      5  C   UNL     1       1.199   4.030  20.021  0.00  0.00    +0.000 A 
ATOM      6  C   UNL     1       0.686   5.253  20.427  0.00  0.00    +0.000 A 
ATOM      7  F   UNL     1      -0.567   5.299  20.905  0.00  0.00    +0.000 F 
ATOM      8  O   UNL     1       2.766   2.639  19.132  0.00  0.00    +0.000 OA
ATOM      9  C   UNL     1       3.855   2.268  18.298  0.00  0.00    +0.000 C 
ATOM     10  C   UNL     1       4.141   3.199  17.132  0.00  0.00    +0.000 C 
ATOM     11  N   UNL     1       4.927   4.338  17.568  0.00  0.00    +0.000 N 
ATOM     12  C   UNL     1       4.568   5.137  18.629  0.00  0.00    +0.000 A 
ATOM     13  N   UNL     1       5.526   6.013  18.862  0.00  0.00    +0.000 NA
ATOM     14  C   UNL     1       6.502   5.828  17.892  0.00  0.00    +0.000 A 
ATOM     15  C   UNL     1       6.100   4.818  17.014  0.00  0.00    +0.000 A 
ENDROOT
BRANCH  14  16
ATOM     16  C   UNL     1       7.732   6.625  17.883  0.00  0.00    +0.000 C 
ATOM     17  N   UNL     1       7.982   7.355  16.750  0.00  0.00    +0.000 N 
ATOM     18  O   UNL     1       8.518   6.692  18.825  0.00  0.00    +0.000 OA
ATOM     19  H   UNL     1       7.234   7.584  16.113  0.00  0.00    +0.000 HD
ATOM     20  H   UNL     1       8.778   7.977  16.796  0.00  0.00    +0.000 HD
ENDBRANCH  14  16
BRANCH   1  22
ATOM     21  C   UNL     1       0.572   8.720  21.221  0.00  0.00    +0.000 C 
ATOM     22  C   UNL     1       0.947   7.644  20.835  0.00  0.00    +0.000 C 
BRANCH  21  23
ATOM     23  C   UNL     1       0.096  10.063  21.615  0.00  0.00    +0.000 C 
ATOM     24  C   UNL     1      -0.629   9.958  22.966  0.00  0.00    +0.000 C 
BRANCH  23  28
ATOM     25  C   UNL     1      -2.283  11.371  17.258  0.00  0.00    +0.000 C 
ATOM     26  C   UNL     1      -1.762  11.149  18.618  0.00  0.00    +0.000 A 
ATOM     27  C   UNL     1      -0.876  10.264  19.173  0.00  0.00    +0.000 A 
ATOM     28  C   UNL     1      -0.784  10.656  20.536  0.00  0.00    +0.000 A 
ATOM     29  N   UNL     1      -1.585  11.710  20.779  0.00  0.00    +0.000 NA
ATOM     30  O   UNL     1      -2.183  12.019  19.572  0.00  0.00    +0.000 OA
ENDBRANCH  23  28
BRANCH  23  31
ATOM     31  O   UNL     1       1.250  10.895  21.825  0.00  0.00    +0.000 OA
ATOM     32  H   UNL     1       1.527  10.750  22.747  0.00  0.00    +0.000 HD
ENDBRANCH  23  31
ENDBRANCH  21  23
ENDBRANCH   1  22
BRANCH  15  33
ATOM     33  C   UNL     1       6.764   4.252  15.794  0.00  0.00    +0.000 C 
BRANCH  33  34
ATOM     34  N   UNL     1       6.386   4.904  14.531  0.00  0.00    +0.000 NA
ATOM     35  C   UNL     1       5.372   4.117  13.805  0.00  0.00    +0.000 C 
ATOM     36  C   UNL     1       6.104   3.395  12.689  0.00  0.00    +0.000 C 
ATOM     37  C   UNL     1       7.238   4.329  12.330  0.00  0.00    +0.000 C 
ATOM     38  C   UNL     1       7.469   5.173  13.575  0.00  0.00    +0.000 C 
ENDBRANCH  33  34
ENDBRANCH  15  33
TORSDOF 7
ENDMDL
MODEL 4
REMARK VINA RESULT:      -7.4      3.552     10.184
REMARK  Name = 
REMARK  9 active torsions:
REMARK  status: ('A' for Active; 'I' for Inactive)
REMARK    1  A    between atoms: C_1  and  C_2
REMARK    2  A    between atoms: C_4  and  C_5
REMARK    3  A    between atoms: C_5  and  C_6
REMARK    4  A    between atoms: C_5  and  O_7
REMARK    5  A    between atoms: C_5  and  C_8
REMARK    6  A    between atoms: C_9  and  C_10
REMARK    7  A    between atoms: C_23  and  C_24
REMARK    8  A    between atoms: C_27  and  C_28
REMARK    9  A    between atoms: C_28  and  N_29
REMARK                            x       y       z     vdW  Elec       q    Type
REMARK                         _______ _______ _______ _____ _____    ______ ____
ROOT
ATOM      1  C   UNL     1       0.829  10.207  19.807  0.00  0.00    +0.000 A 
ATOM      2  C   UNL     1       1.132   8.852  20.005  0.00  0.00    +0.000 A 
ATOM      3  C   UNL     1       1.924   8.129  19.075  0.00  0.00    +0.000 A 
ATOM      4  C   UNL     1       2.363   8.786  17.918  0.00  0.00    +0.000 A 
ATOM      5  C   UNL     1       2.052  10.143  17.734  0.00  0.00    +0.000 A 
ATOM      6  C   UNL     1       1.320  10.847  18.679  0.00  0.00    +0.000 A 
ATOM      7  F   UNL     1       1.101  12.156  18.478  0.00  0.00    +0.000 F 
ATOM      8  O   UNL     1       3.089   8.310  16.870  0.00  0.00    +0.000 OA
ATOM      9  C   UNL     1       3.784   7.070  16.903  0.00  0.00    +0.000 C 
ATOM     10  C   UNL     1       4.441   6.716  18.225  0.00  0.00    +0.000 C 
ATOM     11  N   UNL     1       3.473   6.141  19.140  0.00  0.00    +0.000 N 
ATOM     12  C   UNL     1       2.276   6.747  19.446  0.00  0.00    +0.000 A 
ATOM     13  N   UNL     1       1.559   5.942  20.206  0.00  0.00    +0.000 NA
ATOM     14  C   UNL     1       2.329   4.813  20.456  0.00  0.00    +0.000 A 
ATOM     15  C   UNL     1       3.579   4.958  19.850  0.00  0.00    +0.000 A 
ENDROOT
BRANCH  14  16
ATOM     16  C   UNL     1       1.810   3.695  21.250  0.00  0.00    +0.000 C 
ATOM     17  N   UNL     1       0.679   3.081  20.781  0.00  0.00    +0.000 N 
ATOM     18  O   UNL     1       2.340   3.273  22.275  0.00  0.00    +0.000 OA
ATOM     19  H   UNL     1       0.411   3.172  19.813  0.00  0.00    +0.000 HD
ATOM     20  H   UNL     1       0.391   2.251  21.281  0.00  0.00    +0.000 HD
ENDBRANCH  14  16
BRANCH   1  22
ATOM     21  C   UNL     1      -0.741  11.488  21.489  0.00  0.00    +0.000 C 
ATOM     22  C   UNL     1       0.006  10.924  20.733  0.00  0.00    +0.000 C 
BRANCH  21  23
ATOM     23  C   UNL     1      -1.668  12.108  22.459  0.00  0.00    +0.000 C 
ATOM     24  C   UNL     1      -1.796  11.189  23.684  0.00  0.00    +0.000 C 
BRANCH  23  28
ATOM     25  C   UNL     1      -5.558  13.346  19.346  0.00  0.00    +0.000 C 
ATOM     26  C   UNL     1      -4.619  12.930  20.402  0.00  0.00    +0.000 A 
ATOM     27  C   UNL     1      -3.268  12.711  20.452  0.00  0.00    +0.000 A 
ATOM     28  C   UNL     1      -3.007  12.390  21.812  0.00  0.00    +0.000 A 
ATOM     29  N   UNL     1      -4.147  12.405  22.527  0.00  0.00    +0.000 NA
ATOM     30  O   UNL     1      -5.148  12.754  21.641  0.00  0.00    +0.000 OA
ENDBRANCH  23  28
BRANCH  23  31
ATOM     31  O   UNL     1      -1.072  13.333  22.917  0.00  0.00    +0.000 OA
ATOM     32  H   UNL     1      -0.158  13.334  22.582  0.00  0.00    +0.000 HD
ENDBRANCH  23  31
ENDBRANCH  21  23
ENDBRANCH   1  22
BRANCH  15  33
ATOM     33  C   UNL     1       4.776   4.055  19.833  0.00  0.00    +0.000 C 
BRANCH  33  34
ATOM     34  N   UNL     1       4.714   2.971  18.842  0.00  0.00    +0.000 NA
ATOM     35  C   UNL     1       4.479   3.499  17.486  0.00  0.00    +0.000 C 
ATOM     36  C   UNL     1       3.013   3.255  17.176  0.00  0.00    +0.000 C 
ATOM     37  C   UNL     1       2.683   1.993  17.939  0.00  0.00    +0.000 C 
ATOM     38  C   UNL     1       3.704   1.927  19.066  0.00  0.00    +0.000 C 
ENDBRANCH  33  34
ENDBRANCH  15  33
TORSDOF 7
ENDMDL
MODEL 5
REMARK VINA RESULT:      -7.3      2.283      9.561
REMARK  Name = 
REMARK  9 active torsions:
REMARK  status: ('A' for Active; 'I' for Inactive)
REMARK    1  A    between atoms: C_1  and  C_2
REMARK    2  A    between atoms: C_4  and  C_5
REMARK    3  A    between atoms: C_5  and  C_6
REMARK    4  A    between atoms: C_5  and  O_7
REMARK    5  A    between atoms: C_5  and  C_8
REMARK    6  A    between atoms: C_9  and  C_10
REMARK    7  A    between atoms: C_23  and  C_24
REMARK    8  A    between atoms: C_27  and  C_28
REMARK    9  A    between atoms: C_28  and  N_29
REMARK                            x       y       z     vdW  Elec       q    Type
REMARK                         _______ _______ _______ _____ _____    ______ ____
ROOT
ATOM      1  C   UNL     1       1.716   7.358  20.082  0.00  0.00    +0.000 A 
ATOM      2  C   UNL     1       2.852   7.054  19.320  0.00  0.00    +0.000 A 
ATOM      3  C   UNL     1       3.260   5.713  19.103  0.00  0.00    +0.000 A 
ATOM      4  C   UNL     1       2.527   4.685  19.712  0.00  0.00    +0.000 A 
ATOM      5  C   UNL     1       1.390   5.005  20.472  0.00  0.00    +0.000 A 
ATOM      6  C   UNL     1       0.978   6.320  20.631  0.00  0.00    +0.000 A 
ATOM      7  F   UNL     1      -0.147   6.562  21.320  0.00  0.00    +0.000 F 
ATOM      8  O   UNL     1       2.733   3.340  19.693  0.00  0.00    +0.000 OA
ATOM      9  C   UNL     1       3.623   2.701  18.787  0.00  0.00    +0.000 C 
ATOM     10  C   UNL     1       3.662   3.277  17.382  0.00  0.00    +0.000 C 
ATOM     11  N   UNL     1       4.524   4.442  17.330  0.00  0.00    +0.000 N 
ATOM     12  C   UNL     1       4.397   5.510  18.189  0.00  0.00    +0.000 A 
ATOM     13  N   UNL     1       5.386   6.358  17.981  0.00  0.00    +0.000 NA
ATOM     14  C   UNL     1       6.137   5.869  16.921  0.00  0.00    +0.000 A 
ATOM     15  C   UNL     1       5.558   4.691  16.444  0.00  0.00    +0.000 A 
ENDROOT
BRANCH  14  16
ATOM     16  C   UNL     1       7.340   6.563  16.452  0.00  0.00    +0.000 C 
ATOM     17  N   UNL     1       7.693   7.703  17.124  0.00  0.00    +0.000 N 
ATOM     18  O   UNL     1       8.046   6.169  15.526  0.00  0.00    +0.000 OA
ATOM     19  H   UNL     1       7.351   7.874  18.057  0.00  0.00    +0.000 HD
ATOM     20  H   UNL     1       8.577   8.114  16.856  0.00  0.00    +0.000 HD
ENDBRANCH  14  16
BRANCH   1  22
ATOM     21  C   UNL     1       0.931   9.834  20.514  0.00  0.00    +0.000 C 
ATOM     22  C   UNL     1       1.326   8.715  20.323  0.00  0.00    +0.000 C 
BRANCH  21  23
ATOM     23  C   UNL     1       0.406  11.182  20.818  0.00  0.00    +0.000 C 
ATOM     24  C   UNL     1      -0.971  11.342  20.154  0.00  0.00    +0.000 C 
BRANCH  23  28
ATOM     25  C   UNL     1       3.542  14.343  18.263  0.00  0.00    +0.000 C 
ATOM     26  C   UNL     1       2.701  13.573  19.195  0.00  0.00    +0.000 A 
ATOM     27  C   UNL     1       1.745  12.603  19.046  0.00  0.00    +0.000 A 
ATOM     28  C   UNL     1       1.384  12.249  20.374  0.00  0.00    +0.000 A 
ATOM     29  N   UNL     1       2.080  12.982  21.264  0.00  0.00    +0.000 NA
ATOM     30  O   UNL     1       2.909  13.798  20.518  0.00  0.00    +0.000 OA
ENDBRANCH  23  28
BRANCH  23  31
ATOM     31  O   UNL     1       0.195  11.263  22.238  0.00  0.00    +0.000 OA
ATOM     32  H   UNL     1      -0.295  10.461  22.488  0.00  0.00    +0.000 HD
ENDBRANCH  23  31
ENDBRANCH  21  23
ENDBRANCH   1  22
BRANCH  15  33
ATOM     33  C   UNL     1       5.949   3.788  15.313  0.00  0.00    +0.000 C 
BRANCH  33  34
ATOM     34  N   UNL     1       5.842   4.394  13.977  0.00  0.00    +0.000 NA
ATOM     35  C   UNL     1       4.916   3.634  13.118  0.00  0.00    +0.000 C 
ATOM     36  C   UNL     1       5.777   2.810  12.178  0.00  0.00    +0.000 C 
ATOM     37  C   UNL     1       7.018   3.652  11.986  0.00  0.00    +0.000 C 
ATOM     38  C   UNL     1       7.090   4.545  13.216  0.00  0.00    +0.000 C 
ENDBRANCH  33  34
ENDBRANCH  15  33
TORSDOF 7
ENDMDL
MODEL 6
REMARK VINA RESULT:      -7.3      2.308      9.562
REMARK  Name = 
REMARK  9 active torsions:
REMARK  status: ('A' for Active; 'I' for Inactive)
REMARK    1  A    between atoms: C_1  and  C_2
REMARK    2  A    between atoms: C_4  and  C_5
REMARK    3  A    between atoms: C_5  and  C_6
REMARK    4  A    between atoms: C_5  and  O_7
REMARK    5  A    between atoms: C_5  and  C_8
REMARK    6  A    between atoms: C_9  and  C_10
REMARK    7  A    between atoms: C_23  and  C_24
REMARK    8  A    between atoms: C_27  and  C_28
REMARK    9  A    between atoms: C_28  and  N_29
REMARK                            x       y       z     vdW  Elec       q    Type
REMARK                         _______ _______ _______ _____ _____    ______ ____
ROOT
ATOM      1  C   UNL     1       1.680   6.140  20.302  0.00  0.00    +0.000 A 
ATOM      2  C   UNL     1       2.950   6.141  19.708  0.00  0.00    +0.000 A 
ATOM      3  C   UNL     1       3.533   4.948  19.207  0.00  0.00    +0.000 A 
ATOM      4  C   UNL     1       2.830   3.746  19.362  0.00  0.00    +0.000 A 
ATOM      5  C   UNL     1       1.559   3.760  19.959  0.00  0.00    +0.000 A 
ATOM      6  C   UNL     1       0.984   4.944  20.396  0.00  0.00    +0.000 A 
ATOM      7  F   UNL     1      -0.256   4.906  20.907  0.00  0.00    +0.000 F 
ATOM      8  O   UNL     1       3.185   2.479  19.010  0.00  0.00    +0.000 OA
ATOM      9  C   UNL     1       4.272   2.188  18.143  0.00  0.00    +0.000 C 
ATOM     10  C   UNL     1       4.470   3.149  16.984  0.00  0.00    +0.000 C 
ATOM     11  N   UNL     1       5.195   4.329  17.416  0.00  0.00    +0.000 N 
ATOM     12  C   UNL     1       4.816   5.090  18.498  0.00  0.00    +0.000 A 
ATOM     13  N   UNL     1       5.725   6.021  18.718  0.00  0.00    +0.000 NA
ATOM     14  C   UNL     1       6.684   5.908  17.721  0.00  0.00    +0.000 A 
ATOM     15  C   UNL     1       6.322   4.887  16.839  0.00  0.00    +0.000 A 
ENDROOT
BRANCH  14  16
ATOM     16  C   UNL     1       7.862   6.780  17.691  0.00  0.00    +0.000 C 
ATOM     17  N   UNL     1       8.522   6.962  18.879  0.00  0.00    +0.000 N 
ATOM     18  O   UNL     1       8.294   7.322  16.677  0.00  0.00    +0.000 OA
ATOM     19  H   UNL     1       8.408   6.304  19.634  0.00  0.00    +0.000 HD
ATOM     20  H   UNL     1       9.387   7.482  18.824  0.00  0.00    +0.000 HD
ENDBRANCH  14  16
BRANCH   1  22
ATOM     21  C   UNL     1       0.686   8.385  21.253  0.00  0.00    +0.000 C 
ATOM     22  C   UNL     1       1.109   7.341  20.832  0.00  0.00    +0.000 C 
BRANCH  21  23
ATOM     23  C   UNL     1       0.160   9.695  21.692  0.00  0.00    +0.000 C 
ATOM     24  C   UNL     1      -1.056   9.465  22.603  0.00  0.00    +0.000 C 
BRANCH  23  28
ATOM     25  C   UNL     1      -0.501  13.481  18.287  0.00  0.00    +0.000 C 
ATOM     26  C   UNL     1      -0.407  12.248  19.088  0.00  0.00    +0.000 A 
ATOM     27  C   UNL     1       0.190  11.919  20.276  0.00  0.00    +0.000 A 
ATOM     28  C   UNL     1      -0.174  10.563  20.497  0.00  0.00    +0.000 A 
ATOM     29  N   UNL     1      -0.937  10.108  19.486  0.00  0.00    +0.000 NA
ATOM     30  O   UNL     1      -1.087  11.171  18.615  0.00  0.00    +0.000 OA
ENDBRANCH  23  28
BRANCH  23  31
ATOM     31  O   UNL     1       1.170  10.328  22.496  0.00  0.00    +0.000 OA
ATOM     32  H   UNL     1       1.179   9.854  23.346  0.00  0.00    +0.000 HD
ENDBRANCH  23  31
ENDBRANCH  21  23
ENDBRANCH   1  22
BRANCH  15  33
ATOM     33  C   UNL     1       6.986   4.379  15.594  0.00  0.00    +0.000 C 
BRANCH  33  34
ATOM     34  N   UNL     1       6.522   5.009  14.349  0.00  0.00    +0.000 NA
ATOM     35  C   UNL     1       5.439   4.228  13.726  0.00  0.00    +0.000 C 
ATOM     36  C   UNL     1       6.066   3.465  12.573  0.00  0.00    +0.000 C 
ATOM     37  C   UNL     1       7.185   4.365  12.103  0.00  0.00    +0.000 C 
ATOM     38  C   UNL     1       7.531   5.233  13.304  0.00  0.00    +0.000 C 
ENDBRANCH  33  34
ENDBRANCH  15  33
TORSDOF 7
ENDMDL
MODEL 7
REMARK VINA RESULT:      -7.2      1.108      1.748
REMARK  Name = 
REMARK  9 active torsions:
REMARK  status: ('A' for Active; 'I' for Inactive)
REMARK    1  A    between atoms: C_1  and  C_2
REMARK    2  A    between atoms: C_4  and  C_5
REMARK    3  A    between atoms: C_5  and  C_6
REMARK    4  A    between atoms: C_5  and  O_7
REMARK    5  A    between atoms: C_5  and  C_8
REMARK    6  A    between atoms: C_9  and  C_10
REMARK    7  A    between atoms: C_23  and  C_24
REMARK    8  A    between atoms: C_27  and  C_28
REMARK    9  A    between atoms: C_28  and  N_29
REMARK                            x       y       z     vdW  Elec       q    Type
REMARK                         _______ _______ _______ _____ _____    ______ ____
ROOT
ATOM      1  C   UNL     1       3.350   6.376  19.445  0.00  0.00    +0.000 A 
ATOM      2  C   UNL     1       2.854   7.678  19.290  0.00  0.00    +0.000 A 
ATOM      3  C   UNL     1       1.673   8.102  19.953  0.00  0.00    +0.000 A 
ATOM      4  C   UNL     1       0.976   7.172  20.735  0.00  0.00    +0.000 A 
ATOM      5  C   UNL     1       1.485   5.872  20.881  0.00  0.00    +0.000 A 
ATOM      6  C   UNL     1       2.669   5.490  20.267  0.00  0.00    +0.000 A 
ATOM      7  F   UNL     1       3.139   4.253  20.487  0.00  0.00    +0.000 F 
ATOM      8  O   UNL     1      -0.187   7.316  21.429  0.00  0.00    +0.000 OA
ATOM      9  C   UNL     1      -0.779   8.579  21.701  0.00  0.00    +0.000 C 
ATOM     10  C   UNL     1       0.187   9.708  22.019  0.00  0.00    +0.000 C 
ATOM     11  N   UNL     1       0.724  10.280  20.799  0.00  0.00    +0.000 N 
ATOM     12  C   UNL     1       1.314   9.524  19.811  0.00  0.00    +0.000 A 
ATOM     13  N   UNL     1       1.598  10.296  18.780  0.00  0.00    +0.000 NA
ATOM     14  C   UNL     1       1.248  11.595  19.126  0.00  0.00    +0.000 A 
ATOM     15  C   UNL     1       0.763  11.614  20.436  0.00  0.00    +0.000 A 
ENDROOT
BRANCH  14  16
ATOM     16  C   UNL     1       1.405  12.706  18.182  0.00  0.00    +0.000 C 
ATOM     17  N   UNL     1       2.535  12.698  17.407  0.00  0.00    +0.000 N 
ATOM     18  O   UNL     1       0.583  13.607  18.035  0.00  0.00    +0.000 OA
ATOM     19  H   UNL     1       3.050  11.844  17.261  0.00  0.00    +0.000 HD
ATOM     20  H   UNL     1       2.581  13.412  16.692  0.00  0.00    +0.000 HD
ENDBRANCH  14  16
BRANCH   1  22
ATOM     21  C   UNL     1       5.532   5.649  18.161  0.00  0.00    +0.000 C 
ATOM     22  C   UNL     1       4.526   5.944  18.751  0.00  0.00    +0.000 C 
BRANCH  21  23
ATOM     23  C   UNL     1       6.812   5.319  17.500  0.00  0.00    +0.000 C 
ATOM     24  C   UNL     1       7.806   6.467  17.735  0.00  0.00    +0.000 C 
BRANCH  23  28
ATOM     25  C   UNL     1       5.277   3.629  12.902  0.00  0.00    +0.000 C 
ATOM     26  C   UNL     1       5.866   4.266  14.093  0.00  0.00    +0.000 A 
ATOM     27  C   UNL     1       5.580   4.244  15.432  0.00  0.00    +0.000 A 
ATOM     28  C   UNL     1       6.596   5.039  16.028  0.00  0.00    +0.000 A 
ATOM     29  N   UNL     1       7.433   5.518  15.089  0.00  0.00    +0.000 NA
ATOM     30  O   UNL     1       6.976   5.020  13.884  0.00  0.00    +0.000 OA
ENDBRANCH  23  28
BRANCH  23  31
ATOM     31  O   UNL     1       7.357   4.158  18.150  0.00  0.00    +0.000 OA
ATOM     32  H   UNL     1       7.419   3.466  17.468  0.00  0.00    +0.000 HD
ENDBRANCH  23  31
ENDBRANCH  21  23
ENDBRANCH   1  22
BRANCH  15  33
ATOM     33  C   UNL     1       0.282  12.747  21.292  0.00  0.00    +0.000 C 
BRANCH  33  34
ATOM     34  N   UNL     1       1.349  13.581  21.864  0.00  0.00    +0.000 NA
ATOM     35  C   UNL     1       0.939  14.995  21.939  0.00  0.00    +0.000 C 
ATOM     36  C   UNL     1       1.623  15.706  20.785  0.00  0.00    +0.000 C 
ATOM     37  C   UNL     1       2.914  14.942  20.599  0.00  0.00    +0.000 C 
ATOM     38  C   UNL     1       2.647  13.559  21.176  0.00  0.00    +0.000 C 
ENDBRANCH  33  34
ENDBRANCH  15  33
TORSDOF 7
ENDMDL
MODEL 8
REMARK VINA RESULT:      -7.2      2.489      3.024
REMARK  Name = 
REMARK  9 active torsions:
REMARK  status: ('A' for Active; 'I' for Inactive)
REMARK    1  A    between atoms: C_1  and  C_2
REMARK    2  A    between atoms: C_4  and  C_5
REMARK    3  A    between atoms: C_5  and  C_6
REMARK    4  A    between atoms: C_5  and  O_7
REMARK    5  A    between atoms: C_5  and  C_8
REMARK    6  A    between atoms: C_9  and  C_10
REMARK    7  A    between atoms: C_23  and  C_24
REMARK    8  A    between atoms: C_27  and  C_28
REMARK    9  A    between atoms: C_28  and  N_29
REMARK                            x       y       z     vdW  Elec       q    Type
REMARK                         _______ _______ _______ _____ _____    ______ ____
ROOT
ATOM      1  C   UNL     1       3.039   7.890  17.874  0.00  0.00    +0.000 A 
ATOM      2  C   UNL     1       3.082   9.289  17.957  0.00  0.00    +0.000 A 
ATOM      3  C   UNL     1       1.894  10.063  18.008  0.00  0.00    +0.000 A 
ATOM      4  C   UNL     1       0.661   9.401  17.925  0.00  0.00    +0.000 A 
ATOM      5  C   UNL     1       0.634   7.999  17.844  0.00  0.00    +0.000 A 
ATOM      6  C   UNL     1       1.806   7.256  17.846  0.00  0.00    +0.000 A 
ATOM      7  F   UNL     1       1.718   5.918  17.824  0.00  0.00    +0.000 F 
ATOM      8  O   UNL     1      -0.601   9.910  17.912  0.00  0.00    +0.000 OA
ATOM      9  C   UNL     1      -0.902  11.254  18.262  0.00  0.00    +0.000 C 
ATOM     10  C   UNL     1      -0.094  11.835  19.410  0.00  0.00    +0.000 C 
ATOM     11  N   UNL     1       1.198  12.299  18.943  0.00  0.00    +0.000 N 
ATOM     12  C   UNL     1       2.060  11.512  18.213  0.00  0.00    +0.000 A 
ATOM     13  N   UNL     1       3.096  12.235  17.832  0.00  0.00    +0.000 NA
ATOM     14  C   UNL     1       2.941  13.502  18.378  0.00  0.00    +0.000 A 
ATOM     15  C   UNL     1       1.779  13.537  19.152  0.00  0.00    +0.000 A 
ENDROOT
BRANCH  14  16
ATOM     16  C   UNL     1       3.911  14.570  18.118  0.00  0.00    +0.000 C 
ATOM     17  N   UNL     1       3.600  15.452  17.116  0.00  0.00    +0.000 N 
ATOM     18  O   UNL     1       4.950  14.728  18.754  0.00  0.00    +0.000 OA
ATOM     19  H   UNL     1       2.647  15.557  16.804  0.00  0.00    +0.000 HD
ATOM     20  H   UNL     1       4.226  16.239  17.015  0.00  0.00    +0.000 HD
ENDBRANCH  14  16
BRANCH   1  22
ATOM     21  C   UNL     1       5.209   6.408  17.714  0.00  0.00    +0.000 C 
ATOM     22  C   UNL     1       4.240   7.116  17.793  0.00  0.00    +0.000 C 
BRANCH  21  23
ATOM     23  C   UNL     1       6.380   5.523  17.536  0.00  0.00    +0.000 C 
ATOM     24  C   UNL     1       7.610   6.189  18.173  0.00  0.00    +0.000 C 
BRANCH  23  28
ATOM     25  C   UNL     1       6.297   3.635  12.763  0.00  0.00    +0.000 C 
ATOM     26  C   UNL     1       6.483   4.341  14.043  0.00  0.00    +0.000 A 
ATOM     27  C   UNL     1       5.853   4.306  15.258  0.00  0.00    +0.000 A 
ATOM     28  C   UNL     1       6.593   5.206  16.072  0.00  0.00    +0.000 A 
ATOM     29  N   UNL     1       7.602   5.756  15.370  0.00  0.00    +0.000 NA
ATOM     30  O   UNL     1       7.533   5.201  14.107  0.00  0.00    +0.000 OA
ENDBRANCH  23  28
BRANCH  23  31
ATOM     31  O   UNL     1       6.134   4.314  18.274  0.00  0.00    +0.000 OA
ATOM     32  H   UNL     1       5.645   3.723  17.675  0.00  0.00    +0.000 HD
ENDBRANCH  23  31
ENDBRANCH  21  23
ENDBRANCH   1  22
BRANCH  15  33
ATOM     33  C   UNL     1       1.171  14.639  19.968  0.00  0.00    +0.000 C 
BRANCH  33  34
ATOM     34  N   UNL     1       0.989  15.908  19.248  0.00  0.00    +0.000 NA
ATOM     35  C   UNL     1       1.225  17.063  20.133  0.00  0.00    +0.000 C 
ATOM     36  C   UNL     1      -0.142  17.604  20.511  0.00  0.00    +0.000 C 
ATOM     37  C   UNL     1      -1.003  17.296  19.307  0.00  0.00    +0.000 C 
ATOM     38  C   UNL     1      -0.318  16.127  18.614  0.00  0.00    +0.000 C 
ENDBRANCH  33  34
ENDBRANCH  15  33
TORSDOF 7
ENDMDL
MODEL 9
REMARK VINA RESULT:      -7.2      2.757      9.702
REMARK  Name = 
REMARK  9 active torsions:
REMARK  status: ('A' for Active; 'I' for Inactive)
REMARK    1  A    between atoms: C_1  and  C_2
REMARK    2  A    between atoms: C_4  and  C_5
REMARK    3  A    between atoms: C_5  and  C_6
REMARK    4  A    between atoms: C_5  and  O_7
REMARK    5  A    between atoms: C_5  and  C_8
REMARK    6  A    between atoms: C_9  and  C_10
REMARK    7  A    between atoms: C_23  and  C_24
REMARK    8  A    between atoms: C_27  and  C_28
REMARK    9  A    between atoms: C_28  and  N_29
REMARK                            x       y       z     vdW  Elec       q    Type
REMARK                         _______ _______ _______ _____ _____    ______ ____
ROOT
ATOM      1  C   UNL     1       0.831  10.061  19.972  0.00  0.00    +0.000 A 
ATOM      2  C   UNL     1       1.721   9.233  19.274  0.00  0.00    +0.000 A 
ATOM      3  C   UNL     1       1.915   7.878  19.644  0.00  0.00    +0.000 A 
ATOM      4  C   UNL     1       1.231   7.387  20.764  0.00  0.00    +0.000 A 
ATOM      5  C   UNL     1       0.342   8.228  21.454  0.00  0.00    +0.000 A 
ATOM      6  C   UNL     1       0.127   9.535  21.046  0.00  0.00    +0.000 A 
ATOM      7  F   UNL     1      -0.776  10.276  21.707  0.00  0.00    +0.000 F 
ATOM      8  O   UNL     1       1.276   6.154  21.340  0.00  0.00    +0.000 OA
ATOM      9  C   UNL     1       1.857   5.021  20.710  0.00  0.00    +0.000 C 
ATOM     10  C   UNL     1       1.637   4.912  19.211  0.00  0.00    +0.000 C 
ATOM     11  N   UNL     1       2.589   5.738  18.493  0.00  0.00    +0.000 N 
ATOM     12  C   UNL     1       2.783   7.073  18.766  0.00  0.00    +0.000 A 
ATOM     13  N   UNL     1       3.785   7.528  18.040  0.00  0.00    +0.000 NA
ATOM     14  C   UNL     1       4.214   6.487  17.227  0.00  0.00    +0.000 A 
ATOM     15  C   UNL     1       3.413   5.364  17.446  0.00  0.00    +0.000 A 
ENDROOT
BRANCH  14  16
ATOM     16  C   UNL     1       5.347   6.649  16.311  0.00  0.00    +0.000 C 
ATOM     17  N   UNL     1       6.556   6.960  16.878  0.00  0.00    +0.000 N 
ATOM     18  O   UNL     1       5.277   6.498  15.094  0.00  0.00    +0.000 OA
ATOM     19  H   UNL     1       6.726   6.773  17.854  0.00  0.00    +0.000 HD
ATOM     20  H   UNL     1       7.346   6.969  16.247  0.00  0.00    +0.000 HD
ENDBRANCH  14  16
BRANCH   1  22
ATOM     21  C   UNL     1       0.462  12.594  19.355  0.00  0.00    +0.000 C 
ATOM     22  C   UNL     1       0.660  11.436  19.612  0.00  0.00    +0.000 C 
BRANCH  21  23
ATOM     23  C   UNL     1       0.238  14.036  19.118  0.00  0.00    +0.000 C 
ATOM     24  C   UNL     1       1.544  14.667  18.611  0.00  0.00    +0.000 C 
BRANCH  23  28
ATOM     25  C   UNL     1      -1.122  15.356  23.889  0.00  0.00    +0.000 C 
ATOM     26  C   UNL     1      -0.815  15.202  22.456  0.00  0.00    +0.000 A 
ATOM     27  C   UNL     1      -0.117  14.283  21.718  0.00  0.00    +0.000 A 
ATOM     28  C   UNL     1      -0.276  14.710  20.372  0.00  0.00    +0.000 A 
ATOM     29  N   UNL     1      -1.018  15.831  20.316  0.00  0.00    +0.000 NA
ATOM     30  O   UNL     1      -1.360  16.126  21.622  0.00  0.00    +0.000 OA
ENDBRANCH  23  28
BRANCH  23  31
ATOM     31  O   UNL     1      -0.725  14.163  18.058  0.00  0.00    +0.000 OA
ATOM     32  H   UNL     1      -1.200  14.997  18.219  0.00  0.00    +0.000 HD
ENDBRANCH  23  31
ENDBRANCH  21  23
ENDBRANCH   1  22
BRANCH  15  33
ATOM     33  C   UNL     1       3.431   4.002  16.818  0.00  0.00    +0.000 C 
BRANCH  33  34
ATOM     34  N   UNL     1       4.314   3.031  17.481  0.00  0.00    +0.000 NA
ATOM     35  C   UNL     1       3.593   1.786  17.802  0.00  0.00    +0.000 C 
ATOM     36  C   UNL     1       3.284   1.837  19.288  0.00  0.00    +0.000 C 
ATOM     37  C   UNL     1       4.431   2.628  19.873  0.00  0.00    +0.000 C 
ATOM     38  C   UNL     1       4.965   3.470  18.724  0.00  0.00    +0.000 C 
ENDBRANCH  33  34
ENDBRANCH  15  33
TORSDOF 7
ENDMDL
