MODEL 1
REMARK VINA RESULT:      -8.0      0.000      0.000
REMARK  Name = 
REMARK  4 active torsions:
REMARK  status: ('A' for Active; 'I' for Inactive)
REMARK    1  A    between atoms: C_2  and  C_11
REMARK    2  A    between atoms: N_3  and  C_4
REMARK    3  A    between atoms: C_4  and  C_5
REMARK    4  A    between atoms: C_17  and  C_18
REMARK                            x       y       z     vdW  Elec       q    Type
REMARK                         _______ _______ _______ _____ _____    ______ ____
ROOT
ATOM      1  C   UNL     1       5.133   5.209  18.421  0.00  0.00    +0.000 A 
ATOM      2  C   UNL     1       5.875   5.435  19.590  0.00  0.00    +0.000 A 
ATOM      3  C   UNL     1       7.263   5.386  19.537  0.00  0.00    +0.000 A 
ATOM      4  N   UNL     1       7.995   5.116  18.432  0.00  0.00    +0.000 NA
ATOM      5  C   UNL     1       7.229   4.908  17.352  0.00  0.00    +0.000 A 
ATOM      6  N   UNL     1       7.679   4.609  16.100  0.00  0.00    +0.000 N 
ATOM      7  C   UNL     1       6.595   4.514  15.265  0.00  0.00    +0.000 A 
ATOM      8  N   UNL     1       5.463   4.697  15.934  0.00  0.00    +0.000 NA
ATOM      9  C   UNL     1       5.843   4.944  17.243  0.00  0.00    +0.000 A 
ATOM     10  H   UNL     1       8.647   4.508  15.834  0.00  0.00    +0.000 HD
ENDROOT
BRANCH   7  11
ATOM     11  C   UNL     1       6.693   4.254  13.860  0.00  0.00    +0.000 A 
ATOM     12  C   UNL     1       5.899   3.392  13.120  0.00  0.00    +0.000 A 
ATOM     13  C   UNL     1       6.231   3.392  11.735  0.00  0.00    +0.000 A 
ATOM     14  C   UNL     1       7.272   4.249  11.454  0.00  0.00    +0.000 A 
ATOM     15  S   UNL     1       7.844   5.040  12.857  0.00  0.00    +0.000 S 
ENDBRANCH   7  11
BRANCH   1  17
ATOM     16  O   UNL     1       3.138   6.257  19.020  0.00  0.00    +0.000 OA
ATOM     17  C   UNL     1       3.661   5.275  18.499  0.00  0.00    +0.000 C 
ATOM     18  N   UNL     1       2.945   4.237  17.943  0.00  0.00    +0.000 N 
ATOM     19  H   UNL     1       3.451   3.381  17.724  0.00  0.00    +0.000 HD
BRANCH  18  20
ATOM     20  C   UNL     1       1.492   4.210  18.013  0.00  0.00    +0.000 C 
BRANCH  20  21
ATOM     21  C   UNL     1       0.965   3.168  19.013  0.00  0.00    +0.000 C 
ATOM     22  C   UNL     1       0.712   3.744  20.420  0.00  0.00    +0.000 C 
ATOM     23  C   UNL     1       1.969   3.844  21.289  0.00  0.00    +0.000 C 
ATOM     24  C   UNL     1       2.849   2.601  21.203  0.00  0.00    +0.000 C 
ATOM     25  N   UNL     1       3.147   2.266  19.812  0.00  0.00    +0.000 NA
ATOM     26  C   UNL     1       1.912   1.958  19.090  0.00  0.00    +0.000 C 
ATOM     27  H   UNL     1       3.769   1.458  19.787  0.00  0.00    +0.000 HD
ENDBRANCH  20  21
ENDBRANCH  18  20
ENDBRANCH   1  17
TORSDOF 4
ENDMDL
MODEL 2
REMARK VINA RESULT:      -8.0      3.490      6.712
REMARK  Name = 
REMARK  4 active torsions:
REMARK  status: ('A' for Active; 'I' for Inactive)
REMARK    1  A    between atoms: C_2  and  C_11
REMARK    2  A    between atoms: N_3  and  C_4
REMARK    3  A    between atoms: C_4  and  C_5
REMARK    4  A    between atoms: C_17  and  C_18
REMARK                            x       y       z     vdW  Elec       q    Type
REMARK                         _______ _______ _______ _____ _____    ______ ____
ROOT
ATOM      1  C   UNL     1       3.286   3.379  19.249  0.00  0.00    +0.000 A 
ATOM      2  C   UNL     1       3.145   2.417  20.260  0.00  0.00    +0.000 A 
ATOM      3  C   UNL     1       2.555   2.775  21.466  0.00  0.00    +0.000 A 
ATOM      4  N   UNL     1       2.099   4.010  21.778  0.00  0.00    +0.000 NA
ATOM      5  C   UNL     1       2.264   4.882  20.773  0.00  0.00    +0.000 A 
ATOM      6  N   UNL     1       1.909   6.199  20.793  0.00  0.00    +0.000 N 
ATOM      7  C   UNL     1       2.200   6.740  19.566  0.00  0.00    +0.000 A 
ATOM      8  N   UNL     1       2.765   5.840  18.771  0.00  0.00    +0.000 NA
ATOM      9  C   UNL     1       2.813   4.670  19.513  0.00  0.00    +0.000 A 
ATOM     10  H   UNL     1       1.479   6.678  21.569  0.00  0.00    +0.000 HD
ENDROOT
BRANCH   7  11
ATOM     11  C   UNL     1       1.920   8.099  19.210  0.00  0.00    +0.000 A 
ATOM     12  C   UNL     1       2.257   8.729  18.023  0.00  0.00    +0.000 A 
ATOM     13  C   UNL     1       1.796  10.076  17.967  0.00  0.00    +0.000 A 
ATOM     14  C   UNL     1       1.125  10.441  19.114  0.00  0.00    +0.000 A 
ATOM     15  S   UNL     1       1.061   9.164  20.248  0.00  0.00    +0.000 S 
ENDBRANCH   7  11
BRANCH   1  17
ATOM     16  O   UNL     1       3.800   1.806  17.607  0.00  0.00    +0.000 OA
ATOM     17  C   UNL     1       3.908   2.973  17.974  0.00  0.00    +0.000 C 
ATOM     18  N   UNL     1       4.551   3.946  17.240  0.00  0.00    +0.000 N 
ATOM     19  H   UNL     1       4.771   4.822  17.710  0.00  0.00    +0.000 HD
BRANCH  18  20
ATOM     20  C   UNL     1       5.222   3.618  15.991  0.00  0.00    +0.000 C 
BRANCH  20  21
ATOM     21  C   UNL     1       6.054   4.787  15.439  0.00  0.00    +0.000 C 
ATOM     22  C   UNL     1       7.401   4.975  16.163  0.00  0.00    +0.000 C 
ATOM     23  C   UNL     1       7.301   5.755  17.476  0.00  0.00    +0.000 C 
ATOM     24  C   UNL     1       6.400   6.983  17.369  0.00  0.00    +0.000 C 
ATOM     25  N   UNL     1       5.093   6.627  16.819  0.00  0.00    +0.000 NA
ATOM     26  C   UNL     1       5.242   6.094  15.464  0.00  0.00    +0.000 C 
ATOM     27  H   UNL     1       4.501   7.456  16.797  0.00  0.00    +0.000 HD
ENDBRANCH  20  21
ENDBRANCH  18  20
ENDBRANCH   1  17
TORSDOF 4
ENDMDL
MODEL 3
REMARK VINA RESULT:      -7.9      4.090      5.232
REMARK  Name = 
REMARK  4 active torsions:
REMARK  status: ('A' for Active; 'I' for Inactive)
REMARK    1  A    between atoms: C_2  and  C_11
REMARK    2  A    between atoms: N_3  and  C_4
REMARK    3  A    between atoms: C_4  and  C_5
REMARK    4  A    between atoms: C_17  and  C_18
REMARK                            x       y       z     vdW  Elec       q    Type
REMARK                         _______ _______ _______ _____ _____    ______ ____
ROOT
ATOM      1  C   UNL     1       2.503   5.323  19.945  0.00  0.00    +0.000 A 
ATOM      2  C   UNL     1       1.992   4.469  20.934  0.00  0.00    +0.000 A 
ATOM      3  C   UNL     1       2.317   3.118  20.903  0.00  0.00    +0.000 A 
ATOM      4  N   UNL     1       3.094   2.521  19.971  0.00  0.00    +0.000 NA
ATOM      5  C   UNL     1       3.549   3.389  19.056  0.00  0.00    +0.000 A 
ATOM      6  N   UNL     1       4.347   3.083  17.993  0.00  0.00    +0.000 N 
ATOM      7  C   UNL     1       4.628   4.244  17.319  0.00  0.00    +0.000 A 
ATOM      8  N   UNL     1       4.011   5.278  17.876  0.00  0.00    +0.000 NA
ATOM      9  C   UNL     1       3.330   4.759  18.966  0.00  0.00    +0.000 A 
ATOM     10  H   UNL     1       4.693   2.163  17.766  0.00  0.00    +0.000 HD
ENDROOT
BRANCH   7  11
ATOM     11  C   UNL     1       5.479   4.309  16.169  0.00  0.00    +0.000 A 
ATOM     12  C   UNL     1       5.214   3.789  14.912  0.00  0.00    +0.000 A 
ATOM     13  C   UNL     1       6.252   4.060  13.975  0.00  0.00    +0.000 A 
ATOM     14  C   UNL     1       7.285   4.775  14.541  0.00  0.00    +0.000 A 
ATOM     15  S   UNL     1       7.000   5.107  16.193  0.00  0.00    +0.000 S 
ENDBRANCH   7  11
BRANCH   1  17
ATOM     16  O   UNL     1       2.195   7.418  18.969  0.00  0.00    +0.000 OA
ATOM     17  C   UNL     1       2.150   6.754  20.002  0.00  0.00    +0.000 C 
ATOM     18  N   UNL     1       1.748   7.265  21.217  0.00  0.00    +0.000 N 
ATOM     19  H   UNL     1       1.938   6.707  22.048  0.00  0.00    +0.000 HD
BRANCH  18  20
ATOM     20  C   UNL     1       1.420   8.675  21.364  0.00  0.00    +0.000 C 
BRANCH  20  21
ATOM     21  C   UNL     1      -0.096   8.935  21.360  0.00  0.00    +0.000 C 
ATOM     22  C   UNL     1      -0.529  10.012  20.346  0.00  0.00    +0.000 C 
ATOM     23  C   UNL     1      -0.350  11.448  20.845  0.00  0.00    +0.000 C 
ATOM     24  C   UNL     1      -0.813  11.636  22.287  0.00  0.00    +0.000 C 
ATOM     25  N   UNL     1      -0.193  10.648  23.168  0.00  0.00    +0.000 NA
ATOM     26  C   UNL     1      -0.590   9.297  22.772  0.00  0.00    +0.000 C 
ATOM     27  H   UNL     1      -0.488  10.824  24.129  0.00  0.00    +0.000 HD
ENDBRANCH  20  21
ENDBRANCH  18  20
ENDBRANCH   1  17
TORSDOF 4
ENDMDL
MODEL 4
REMARK VINA RESULT:      -7.8      3.506      7.235
REMARK  Name = 
REMARK  4 active torsions:
REMARK  status: ('A' for Active; 'I' for Inactive)
REMARK    1  A    between atoms: C_2  and  C_11
REMARK    2  A    between atoms: N_3  and  C_4
REMARK    3  A    between atoms: C_4  and  C_5
REMARK    4  A    between atoms: C_17  and  C_18
REMARK                            x       y       z     vdW  Elec       q    Type
REMARK                         _______ _______ _______ _____ _____    ______ ____
ROOT
ATOM      1  C   UNL     1       4.121   3.892  19.344  0.00  0.00    +0.000 A 
ATOM      2  C   UNL     1       3.941   2.723  20.098  0.00  0.00    +0.000 A 
ATOM      3  C   UNL     1       2.977   2.698  21.099  0.00  0.00    +0.000 A 
ATOM      4  N   UNL     1       2.176   3.732  21.441  0.00  0.00    +0.000 NA
ATOM      5  C   UNL     1       2.398   4.818  20.686  0.00  0.00    +0.000 A 
ATOM      6  N   UNL     1       1.751   6.014  20.799  0.00  0.00    +0.000 N 
ATOM      7  C   UNL     1       2.229   6.853  19.825  0.00  0.00    +0.000 A 
ATOM      8  N   UNL     1       3.184   6.265  19.117  0.00  0.00    +0.000 NA
ATOM      9  C   UNL     1       3.303   4.989  19.644  0.00  0.00    +0.000 A 
ATOM     10  H   UNL     1       1.025   6.226  21.467  0.00  0.00    +0.000 HD
ENDROOT
BRANCH   7  11
ATOM     11  C   UNL     1       1.744   8.185  19.615  0.00  0.00    +0.000 A 
ATOM     12  C   UNL     1       1.799   8.909  18.434  0.00  0.00    +0.000 A 
ATOM     13  C   UNL     1       1.191  10.192  18.549  0.00  0.00    +0.000 A 
ATOM     14  C   UNL     1       0.693  10.417  19.813  0.00  0.00    +0.000 A 
ATOM     15  S   UNL     1       0.966   9.087  20.852  0.00  0.00    +0.000 S 
ENDBRANCH   7  11
BRANCH   1  17
ATOM     16  O   UNL     1       6.276   4.287  18.550  0.00  0.00    +0.000 OA
ATOM     17  C   UNL     1       5.144   3.893  18.282  0.00  0.00    +0.000 C 
ATOM     18  N   UNL     1       4.779   3.411  17.044  0.00  0.00    +0.000 N 
ATOM     19  H   UNL     1       3.785   3.304  16.855  0.00  0.00    +0.000 HD
BRANCH  18  20
ATOM     20  C   UNL     1       5.721   3.414  15.934  0.00  0.00    +0.000 C 
BRANCH  20  21
ATOM     21  C   UNL     1       5.403   4.494  14.887  0.00  0.00    +0.000 C 
ATOM     22  C   UNL     1       5.362   3.955  13.444  0.00  0.00    +0.000 C 
ATOM     23  C   UNL     1       6.738   3.820  12.789  0.00  0.00    +0.000 C 
ATOM     24  C   UNL     1       7.638   5.025  13.047  0.00  0.00    +0.000 C 
ATOM     25  N   UNL     1       7.718   5.322  14.476  0.00  0.00    +0.000 NA
ATOM     26  C   UNL     1       6.394   5.667  14.995  0.00  0.00    +0.000 C 
ATOM     27  H   UNL     1       8.356   6.104  14.621  0.00  0.00    +0.000 HD
ENDBRANCH  20  21
ENDBRANCH  18  20
ENDBRANCH   1  17
TORSDOF 4
ENDMDL
MODEL 5
REMARK VINA RESULT:      -7.8      1.394      1.748
REMARK  Name = 
REMARK  4 active torsions:
REMARK  status: ('A' for Active; 'I' for Inactive)
REMARK    1  A    between atoms: C_2  and  C_11
REMARK    2  A    between atoms: N_3  and  C_4
REMARK    3  A    between atoms: C_4  and  C_5
REMARK    4  A    between atoms: C_17  and  C_18
REMARK                            x       y       z     vdW  Elec       q    Type
REMARK                         _______ _______ _______ _____ _____    ______ ____
ROOT
ATOM      1  C   UNL     1       5.907   4.412  18.467  0.00  0.00    +0.000 A 
ATOM      2  C   UNL     1       6.550   5.320  19.321  0.00  0.00    +0.000 A 
ATOM      3  C   UNL     1       7.428   6.255  18.786  0.00  0.00    +0.000 A 
ATOM      4  N   UNL     1       7.748   6.369  17.477  0.00  0.00    +0.000 NA
ATOM      5  C   UNL     1       7.103   5.474  16.715  0.00  0.00    +0.000 A 
ATOM      6  N   UNL     1       7.225   5.341  15.364  0.00  0.00    +0.000 N 
ATOM      7  C   UNL     1       6.375   4.346  14.952  0.00  0.00    +0.000 A 
ATOM      8  N   UNL     1       5.742   3.804  15.985  0.00  0.00    +0.000 NA
ATOM      9  C   UNL     1       6.188   4.499  17.098  0.00  0.00    +0.000 A 
ATOM     10  H   UNL     1       7.818   5.902  14.771  0.00  0.00    +0.000 HD
ENDROOT
BRANCH   7  11
ATOM     11  C   UNL     1       6.206   3.961  13.583  0.00  0.00    +0.000 A 
ATOM     12  C   UNL     1       5.091   3.354  13.026  0.00  0.00    +0.000 A 
ATOM     13  C   UNL     1       5.227   3.138  11.624  0.00  0.00    +0.000 A 
ATOM     14  C   UNL     1       6.441   3.580  11.149  0.00  0.00    +0.000 A 
ATOM     15  S   UNL     1       7.409   4.244  12.391  0.00  0.00    +0.000 S 
ENDBRANCH   7  11
BRANCH   1  17
ATOM     16  O   UNL     1       5.076   3.160  20.249  0.00  0.00    +0.000 OA
ATOM     17  C   UNL     1       4.973   3.434  19.056  0.00  0.00    +0.000 C 
ATOM     18  N   UNL     1       4.001   2.905  18.235  0.00  0.00    +0.000 N 
ATOM     19  H   UNL     1       4.117   3.024  17.231  0.00  0.00    +0.000 HD
BRANCH  18  20
ATOM     20  C   UNL     1       3.066   1.906  18.732  0.00  0.00    +0.000 C 
BRANCH  20  21
ATOM     21  C   UNL     1       1.662   2.481  18.985  0.00  0.00    +0.000 C 
ATOM     22  C   UNL     1       1.402   3.808  18.247  0.00  0.00    +0.000 C 
ATOM     23  C   UNL     1       1.962   5.041  18.962  0.00  0.00    +0.000 C 
ATOM     24  C   UNL     1       1.697   5.026  20.465  0.00  0.00    +0.000 C 
ATOM     25  N   UNL     1       2.145   3.770  21.063  0.00  0.00    +0.000 NA
ATOM     26  C   UNL     1       1.404   2.644  20.494  0.00  0.00    +0.000 C 
ATOM     27  H   UNL     1       1.993   3.805  22.071  0.00  0.00    +0.000 HD
ENDBRANCH  20  21
ENDBRANCH  18  20
ENDBRANCH   1  17
TORSDOF 4
ENDMDL
MODEL 6
REMARK VINA RESULT:      -7.6      1.495      1.629
REMARK  Name = 
REMARK  4 active torsions:
REMARK  status: ('A' for Active; 'I' for Inactive)
REMARK    1  A    between atoms: C_2  and  C_11
REMARK    2  A    between atoms: N_3  and  C_4
REMARK    3  A    between atoms: C_4  and  C_5
REMARK    4  A    between atoms: C_17  and  C_18
REMARK                            x       y       z     vdW  Elec       q    Type
REMARK                         _______ _______ _______ _____ _____    ______ ____
ROOT
ATOM      1  C   UNL     1       5.019   5.997  17.188  0.00  0.00    +0.000 A 
ATOM      2  C   UNL     1       5.807   6.849  17.977  0.00  0.00    +0.000 A 
ATOM      3  C   UNL     1       7.120   7.104  17.603  0.00  0.00    +0.000 A 
ATOM      4  N   UNL     1       7.743   6.580  16.523  0.00  0.00    +0.000 NA
ATOM      5  C   UNL     1       6.939   5.775  15.813  0.00  0.00    +0.000 A 
ATOM      6  N   UNL     1       7.285   5.100  14.679  0.00  0.00    +0.000 N 
ATOM      7  C   UNL     1       6.180   4.423  14.230  0.00  0.00    +0.000 A 
ATOM      8  N   UNL     1       5.149   4.598  15.048  0.00  0.00    +0.000 NA
ATOM      9  C   UNL     1       5.609   5.443  16.046  0.00  0.00    +0.000 A 
ATOM     10  H   UNL     1       8.190   5.125  14.236  0.00  0.00    +0.000 HD
ENDROOT
BRANCH   7  11
ATOM     11  C   UNL     1       6.162   3.638  13.032  0.00  0.00    +0.000 A 
ATOM     12  C   UNL     1       7.263   3.171  12.332  0.00  0.00    +0.000 A 
ATOM     13  C   UNL     1       6.901   2.384  11.201  0.00  0.00    +0.000 A 
ATOM     14  C   UNL     1       5.535   2.275  11.063  0.00  0.00    +0.000 A 
ATOM     15  S   UNL     1       4.701   3.124  12.290  0.00  0.00    +0.000 S 
ENDBRANCH   7  11
BRANCH   1  17
ATOM     16  O   UNL     1       2.978   6.669  18.093  0.00  0.00    +0.000 OA
ATOM     17  C   UNL     1       3.624   5.748  17.600  0.00  0.00    +0.000 C 
ATOM     18  N   UNL     1       3.106   4.491  17.371  0.00  0.00    +0.000 N 
ATOM     19  H   UNL     1       3.763   3.744  17.156  0.00  0.00    +0.000 HD
BRANCH  18  20
ATOM     20  C   UNL     1       1.752   4.156  17.783  0.00  0.00    +0.000 C 
BRANCH  20  21
ATOM     21  C   UNL     1       1.659   2.774  18.450  0.00  0.00    +0.000 C 
ATOM     22  C   UNL     1       0.699   2.740  19.655  0.00  0.00    +0.000 C 
ATOM     23  C   UNL     1       1.315   3.253  20.959  0.00  0.00    +0.000 C 
ATOM     24  C   UNL     1       2.730   2.732  21.192  0.00  0.00    +0.000 C 
ATOM     25  N   UNL     1       3.578   2.981  20.027  0.00  0.00    +0.000 NA
ATOM     26  C   UNL     1       3.055   2.271  18.859  0.00  0.00    +0.000 C 
ATOM     27  H   UNL     1       4.525   2.659  20.227  0.00  0.00    +0.000 HD
ENDBRANCH  20  21
ENDBRANCH  18  20
ENDBRANCH   1  17
TORSDOF 4
ENDMDL
MODEL 7
REMARK VINA RESULT:      -7.5      1.514      2.225
REMARK  Name = 
REMARK  4 active torsions:
REMARK  status: ('A' for Active; 'I' for Inactive)
REMARK    1  A    between atoms: C_2  and  C_11
REMARK    2  A    between atoms: N_3  and  C_4
REMARK    3  A    between atoms: C_4  and  C_5
REMARK    4  A    between atoms: C_17  and  C_18
REMARK                            x       y       z     vdW  Elec       q    Type
REMARK                         _______ _______ _______ _____ _____    ______ ____
ROOT
ATOM      1  C   UNL     1       6.065   5.198  18.205  0.00  0.00    +0.000 A 
ATOM      2  C   UNL     1       6.828   6.199  18.826  0.00  0.00    +0.000 A 
ATOM      3  C   UNL     1       7.703   6.962  18.063  0.00  0.00    +0.000 A 
ATOM      4  N   UNL     1       7.911   6.820  16.734  0.00  0.00    +0.000 NA
ATOM      5  C   UNL     1       7.155   5.849  16.202  0.00  0.00    +0.000 A 
ATOM      6  N   UNL     1       7.150   5.471  14.891  0.00  0.00    +0.000 N 
ATOM      7  C   UNL     1       6.215   4.479  14.736  0.00  0.00    +0.000 A 
ATOM      8  N   UNL     1       5.649   4.173  15.896  0.00  0.00    +0.000 NA
ATOM      9  C   UNL     1       6.227   5.022  16.826  0.00  0.00    +0.000 A 
ATOM     10  H   UNL     1       7.716   5.877  14.162  0.00  0.00    +0.000 HD
ENDROOT
BRANCH   7  11
ATOM     11  C   UNL     1       5.905   3.869  13.477  0.00  0.00    +0.000 A 
ATOM     12  C   UNL     1       4.642   3.564  12.994  0.00  0.00    +0.000 A 
ATOM     13  C   UNL     1       4.676   2.998  11.687  0.00  0.00    +0.000 A 
ATOM     14  C   UNL     1       5.962   2.881  11.209  0.00  0.00    +0.000 A 
ATOM     15  S   UNL     1       7.116   3.445  12.336  0.00  0.00    +0.000 S 
ENDBRANCH   7  11
BRANCH   1  17
ATOM     16  O   UNL     1       4.381   4.993  19.804  0.00  0.00    +0.000 OA
ATOM     17  C   UNL     1       5.137   4.406  19.034  0.00  0.00    +0.000 C 
ATOM     18  N   UNL     1       5.143   3.038  18.868  0.00  0.00    +0.000 N 
ATOM     19  H   UNL     1       5.931   2.627  18.372  0.00  0.00    +0.000 HD
BRANCH  18  20
ATOM     20  C   UNL     1       4.284   2.185  19.675  0.00  0.00    +0.000 C 
BRANCH  20  21
ATOM     21  C   UNL     1       3.011   1.749  18.930  0.00  0.00    +0.000 C 
ATOM     22  C   UNL     1       2.986   2.187  17.453  0.00  0.00    +0.000 C 
ATOM     23  C   UNL     1       2.536   3.634  17.238  0.00  0.00    +0.000 C 
ATOM     24  C   UNL     1       1.325   4.011  18.087  0.00  0.00    +0.000 C 
ATOM     25  N   UNL     1       1.554   3.691  19.495  0.00  0.00    +0.000 NA
ATOM     26  C   UNL     1       1.753   2.251  19.662  0.00  0.00    +0.000 C 
ATOM     27  H   UNL     1       0.747   3.991  20.042  0.00  0.00    +0.000 HD
ENDBRANCH  20  21
ENDBRANCH  18  20
ENDBRANCH   1  17
TORSDOF 4
ENDMDL
MODEL 8
REMARK VINA RESULT:      -7.4      3.401      6.929
REMARK  Name = 
REMARK  4 active torsions:
REMARK  status: ('A' for Active; 'I' for Inactive)
REMARK    1  A    between atoms: C_2  and  C_11
REMARK    2  A    between atoms: N_3  and  C_4
REMARK    3  A    between atoms: C_4  and  C_5
REMARK    4  A    between atoms: C_17  and  C_18
REMARK                            x       y       z     vdW  Elec       q    Type
REMARK                         _______ _______ _______ _____ _____    ______ ____
ROOT
ATOM      1  C   UNL     1       3.067   3.685  18.996  0.00  0.00    +0.000 A 
ATOM      2  C   UNL     1       3.078   2.597  19.882  0.00  0.00    +0.000 A 
ATOM      3  C   UNL     1       2.627   2.773  21.185  0.00  0.00    +0.000 A 
ATOM      4  N   UNL     1       2.177   3.937  21.707  0.00  0.00    +0.000 NA
ATOM      5  C   UNL     1       2.193   4.936  20.813  0.00  0.00    +0.000 A 
ATOM      6  N   UNL     1       1.806   6.222  21.046  0.00  0.00    +0.000 N 
ATOM      7  C   UNL     1       1.930   6.926  19.876  0.00  0.00    +0.000 A 
ATOM      8  N   UNL     1       2.421   6.161  18.910  0.00  0.00    +0.000 NA
ATOM      9  C   UNL     1       2.592   4.910  19.480  0.00  0.00    +0.000 A 
ATOM     10  H   UNL     1       1.458   6.579  21.924  0.00  0.00    +0.000 HD
ENDROOT
BRANCH   7  11
ATOM     11  C   UNL     1       1.570   8.306  19.737  0.00  0.00    +0.000 A 
ATOM     12  C   UNL     1       1.057   9.131  20.725  0.00  0.00    +0.000 A 
ATOM     13  C   UNL     1       0.841  10.464  20.270  0.00  0.00    +0.000 A 
ATOM     14  C   UNL     1       1.189  10.621  18.947  0.00  0.00    +0.000 A 
ATOM     15  S   UNL     1       1.765   9.164  18.262  0.00  0.00    +0.000 S 
ENDBRANCH   7  11
BRANCH   1  17
ATOM     16  O   UNL     1       2.716   3.302  16.724  0.00  0.00    +0.000 OA
ATOM     17  C   UNL     1       3.543   3.472  17.616  0.00  0.00    +0.000 C 
ATOM     18  N   UNL     1       4.902   3.516  17.396  0.00  0.00    +0.000 N 
ATOM     19  H   UNL     1       5.512   3.454  18.209  0.00  0.00    +0.000 HD
BRANCH  18  20
ATOM     20  C   UNL     1       5.452   3.278  16.070  0.00  0.00    +0.000 C 
BRANCH  20  21
ATOM     21  C   UNL     1       6.418   4.386  15.620  0.00  0.00    +0.000 C 
ATOM     22  C   UNL     1       7.440   4.784  16.704  0.00  0.00    +0.000 C 
ATOM     23  C   UNL     1       6.898   5.770  17.741  0.00  0.00    +0.000 C 
ATOM     24  C   UNL     1       6.084   6.900  17.117  0.00  0.00    +0.000 C 
ATOM     25  N   UNL     1       5.041   6.370  16.239  0.00  0.00    +0.000 NA
ATOM     26  C   UNL     1       5.642   5.623  15.134  0.00  0.00    +0.000 C 
ATOM     27  H   UNL     1       4.489   7.143  15.869  0.00  0.00    +0.000 HD
ENDBRANCH  20  21
ENDBRANCH  18  20
ENDBRANCH   1  17
TORSDOF 4
ENDMDL
MODEL 9
REMARK VINA RESULT:      -7.4      0.884      1.279
REMARK  Name = 
REMARK  4 active torsions:
REMARK  status: ('A' for Active; 'I' for Inactive)
REMARK    1  A    between atoms: C_2  and  C_11
REMARK    2  A    between atoms: N_3  and  C_4
REMARK    3  A    between atoms: C_4  and  C_5
REMARK    4  A    between atoms: C_17  and  C_18
REMARK                            x       y       z     vdW  Elec       q    Type
REMARK                         _______ _______ _______ _____ _____    ______ ____
ROOT
ATOM      1  C   UNL     1       5.333   5.313  18.545  0.00  0.00    +0.000 A 
ATOM      2  C   UNL     1       6.170   5.533  19.649  0.00  0.00    +0.000 A 
ATOM      3  C   UNL     1       7.546   5.412  19.497  0.00  0.00    +0.000 A 
ATOM      4  N   UNL     1       8.180   5.077  18.350  0.00  0.00    +0.000 NA
ATOM      5  C   UNL     1       7.327   4.879  17.336  0.00  0.00    +0.000 A 
ATOM      6  N   UNL     1       7.668   4.526  16.063  0.00  0.00    +0.000 N 
ATOM      7  C   UNL     1       6.521   4.463  15.314  0.00  0.00    +0.000 A 
ATOM      8  N   UNL     1       5.452   4.720  16.057  0.00  0.00    +0.000 NA
ATOM      9  C   UNL     1       5.940   4.982  17.328  0.00  0.00    +0.000 A 
ATOM     10  H   UNL     1       8.608   4.369  15.731  0.00  0.00    +0.000 HD
ENDROOT
BRANCH   7  11
ATOM     11  C   UNL     1       6.502   4.162  13.913  0.00  0.00    +0.000 A 
ATOM     12  C   UNL     1       5.547   3.416  13.240  0.00  0.00    +0.000 A 
ATOM     13  C   UNL     1       5.799   3.336  11.841  0.00  0.00    +0.000 A 
ATOM     14  C   UNL     1       6.941   4.017  11.482  0.00  0.00    +0.000 A 
ATOM     15  S   UNL     1       7.702   4.741  12.831  0.00  0.00    +0.000 S 
ENDBRANCH   7  11
BRANCH   1  17
ATOM     16  O   UNL     1       3.164   5.591  17.737  0.00  0.00    +0.000 OA
ATOM     17  C   UNL     1       3.876   5.454  18.729  0.00  0.00    +0.000 C 
ATOM     18  N   UNL     1       3.386   5.385  20.015  0.00  0.00    +0.000 N 
ATOM     19  H   UNL     1       4.052   5.479  20.778  0.00  0.00    +0.000 HD
BRANCH  18  20
ATOM     20  C   UNL     1       1.965   5.553  20.282  0.00  0.00    +0.000 C 
BRANCH  20  21
ATOM     21  C   UNL     1       1.274   4.235  20.672  0.00  0.00    +0.000 C 
ATOM     22  C   UNL     1       2.182   3.283  21.474  0.00  0.00    +0.000 C 
ATOM     23  C   UNL     1       3.133   2.450  20.610  0.00  0.00    +0.000 C 
ATOM     24  C   UNL     1       2.455   1.873  19.370  0.00  0.00    +0.000 C 
ATOM     25  N   UNL     1       1.770   2.919  18.613  0.00  0.00    +0.000 NA
ATOM     26  C   UNL     1       0.714   3.524  19.427  0.00  0.00    +0.000 C 
ATOM     27  H   UNL     1       1.362   2.512  17.772  0.00  0.00    +0.000 HD
ENDBRANCH  20  21
ENDBRANCH  18  20
ENDBRANCH   1  17
TORSDOF 4
ENDMDL
