MODEL 1
REMARK VINA RESULT:      -7.9      0.000      0.000
REMARK  Name = 
REMARK  3 active torsions:
REMARK  status: ('A' for Active; 'I' for Inactive)
REMARK    1  A    between atoms: C_1  and  C_2
REMARK    2  A    between atoms: C_5  and  C_6
REMARK    3  A    between atoms: C_14  and  N_15
REMARK                            x       y       z     vdW  Elec       q    Type
REMARK                         _______ _______ _______ _____ _____    ______ ____
ROOT
ATOM      1  C   UNL     1       2.912   5.606  18.219  0.00  0.00    +0.000 A 
ATOM      2  C   UNL     1       4.066   5.722  17.481  0.00  0.00    +0.000 A 
ATOM      3  N   UNL     1       4.460   6.923  17.035  0.00  0.00    +0.000 NA
ATOM      4  N   UNL     1       3.682   8.005  17.335  0.00  0.00    +0.000 NA
ATOM      5  C   UNL     1       2.557   7.866  18.077  0.00  0.00    +0.000 A 
ATOM      6  N   UNL     1       1.809   8.965  18.389  0.00  0.00    +0.000 N 
ATOM      7  C   UNL     1       2.055  10.270  17.827  0.00  0.00    +0.000 C 
ATOM      8  C   UNL     1       1.232  11.189  18.725  0.00  0.00    +0.000 C 
ATOM      9  C   UNL     1       0.058  10.325  19.209  0.00  0.00    +0.000 C 
ATOM     10  C   UNL     1       0.581   8.878  19.157  0.00  0.00    +0.000 C 
ATOM     11  N   UNL     1       2.149   6.676  18.539  0.00  0.00    +0.000 NA
ENDROOT
BRANCH   9  12
ATOM     12  N   UNL     1      -1.170  10.516  18.461  0.00  0.00    +0.000 N 
ATOM     13  C   UNL     1      -1.515   9.954  17.261  0.00  0.00    +0.000 A 
ATOM     14  N   UNL     1      -2.730  10.296  16.885  0.00  0.00    +0.000 NA
ATOM     15  C   UNL     1      -3.201  11.103  17.898  0.00  0.00    +0.000 A 
ATOM     16  C   UNL     1      -4.428  11.756  18.103  0.00  0.00    +0.000 A 
ATOM     17  N   UNL     1      -5.498  11.654  17.225  0.00  0.00    +0.000 N 
ATOM     18  N   UNL     1      -4.576  12.528  19.203  0.00  0.00    +0.000 NA
ATOM     19  C   UNL     1      -3.544  12.605  20.073  0.00  0.00    +0.000 A 
ATOM     20  N   UNL     1      -2.338  12.007  19.999  0.00  0.00    +0.000 NA
ATOM     21  C   UNL     1      -2.236  11.273  18.879  0.00  0.00    +0.000 A 
ATOM     22  H   UNL     1      -5.230  11.365  16.290  0.00  0.00    +0.000 HD
ATOM     23  H   UNL     1      -6.148  12.423  17.317  0.00  0.00    +0.000 HD
ENDBRANCH   9  12
BRANCH   1  28
ATOM     24  C   UNL     1       1.523   2.545  21.656  0.00  0.00    +0.000 C 
ATOM     25  C   UNL     1       1.769   2.920  20.251  0.00  0.00    +0.000 A 
ATOM     26  C   UNL     1       1.669   2.240  19.057  0.00  0.00    +0.000 A 
ATOM     27  C   UNL     1       2.063   3.150  18.048  0.00  0.00    +0.000 A 
ATOM     28  C   UNL     1       2.393   4.332  18.684  0.00  0.00    +0.000 A 
ATOM     29  O   UNL     1       2.201   4.195  20.031  0.00  0.00    +0.000 OA
ENDBRANCH   1  28
TORSDOF 2
ENDMDL
MODEL 2
REMARK VINA RESULT:      -7.6      5.606      8.316
REMARK  Name = 
REMARK  3 active torsions:
REMARK  status: ('A' for Active; 'I' for Inactive)
REMARK    1  A    between atoms: C_1  and  C_2
REMARK    2  A    between atoms: C_5  and  C_6
REMARK    3  A    between atoms: C_14  and  N_15
REMARK                            x       y       z     vdW  Elec       q    Type
REMARK                         _______ _______ _______ _____ _____    ______ ____
ROOT
ATOM      1  C   UNL     1       6.720   4.117  12.963  0.00  0.00    +0.000 A 
ATOM      2  C   UNL     1       7.689   4.960  12.476  0.00  0.00    +0.000 A 
ATOM      3  N   UNL     1       8.362   5.763  13.312  0.00  0.00    +0.000 NA
ATOM      4  N   UNL     1       8.048   5.712  14.641  0.00  0.00    +0.000 NA
ATOM      5  C   UNL     1       7.098   4.861  15.097  0.00  0.00    +0.000 A 
ATOM      6  N   UNL     1       6.820   4.806  16.433  0.00  0.00    +0.000 N 
ATOM      7  C   UNL     1       7.369   5.736  17.390  0.00  0.00    +0.000 C 
ATOM      8  C   UNL     1       7.071   5.063  18.727  0.00  0.00    +0.000 C 
ATOM      9  C   UNL     1       5.792   4.248  18.487  0.00  0.00    +0.000 C 
ATOM     10  C   UNL     1       5.797   3.935  16.979  0.00  0.00    +0.000 C 
ATOM     11  N   UNL     1       6.420   4.045  14.279  0.00  0.00    +0.000 NA
ENDROOT
BRANCH   9  12
ATOM     12  N   UNL     1       4.576   4.902  18.931  0.00  0.00    +0.000 N 
ATOM     13  C   UNL     1       4.141   6.162  18.615  0.00  0.00    +0.000 A 
ATOM     14  N   UNL     1       2.963   6.426  19.144  0.00  0.00    +0.000 NA
ATOM     15  C   UNL     1       2.613   5.278  19.821  0.00  0.00    +0.000 A 
ATOM     16  C   UNL     1       1.474   4.919  20.561  0.00  0.00    +0.000 A 
ATOM     17  N   UNL     1       0.379   5.756  20.722  0.00  0.00    +0.000 N 
ATOM     18  N   UNL     1       1.442   3.704  21.153  0.00  0.00    +0.000 NA
ATOM     19  C   UNL     1       2.496   2.878  20.973  0.00  0.00    +0.000 A 
ATOM     20  N   UNL     1       3.624   3.098  20.267  0.00  0.00    +0.000 NA
ATOM     21  C   UNL     1       3.614   4.325  19.720  0.00  0.00    +0.000 A 
ATOM     22  H   UNL     1       0.589   6.735  20.563  0.00  0.00    +0.000 HD
ATOM     23  H   UNL     1      -0.176   5.514  21.531  0.00  0.00    +0.000 HD
ENDBRANCH   9  12
BRANCH   1  28
ATOM     24  C   UNL     1       2.827   3.173  10.303  0.00  0.00    +0.000 C 
ATOM     25  C   UNL     1       4.127   2.818  10.903  0.00  0.00    +0.000 A 
ATOM     26  C   UNL     1       4.884   1.666  10.912  0.00  0.00    +0.000 A 
ATOM     27  C   UNL     1       6.035   1.955  11.682  0.00  0.00    +0.000 A 
ATOM     28  C   UNL     1       5.911   3.263  12.110  0.00  0.00    +0.000 A 
ATOM     29  O   UNL     1       4.750   3.795  11.622  0.00  0.00    +0.000 OA
ENDBRANCH   1  28
TORSDOF 2
ENDMDL
MODEL 3
REMARK VINA RESULT:      -7.5      0.844      1.180
REMARK  Name = 
REMARK  3 active torsions:
REMARK  status: ('A' for Active; 'I' for Inactive)
REMARK    1  A    between atoms: C_1  and  C_2
REMARK    2  A    between atoms: C_5  and  C_6
REMARK    3  A    between atoms: C_14  and  N_15
REMARK                            x       y       z     vdW  Elec       q    Type
REMARK                         _______ _______ _______ _____ _____    ______ ____
ROOT
ATOM      1  C   UNL     1       2.662   6.217  18.955  0.00  0.00    +0.000 A 
ATOM      2  C   UNL     1       3.795   6.237  18.178  0.00  0.00    +0.000 A 
ATOM      3  N   UNL     1       4.155   7.362  17.544  0.00  0.00    +0.000 NA
ATOM      4  N   UNL     1       3.362   8.464  17.697  0.00  0.00    +0.000 NA
ATOM      5  C   UNL     1       2.258   8.422  18.480  0.00  0.00    +0.000 A 
ATOM      6  N   UNL     1       1.495   9.544  18.640  0.00  0.00    +0.000 N 
ATOM      7  C   UNL     1       1.702  10.752  17.880  0.00  0.00    +0.000 C 
ATOM      8  C   UNL     1       0.881  11.784  18.649  0.00  0.00    +0.000 C 
ATOM      9  C   UNL     1      -0.263  10.984  19.289  0.00  0.00    +0.000 C 
ATOM     10  C   UNL     1       0.288   9.555  19.445  0.00  0.00    +0.000 C 
ATOM     11  N   UNL     1       1.885   7.310  19.128  0.00  0.00    +0.000 NA
ENDROOT
BRANCH   9  12
ATOM     12  N   UNL     1      -1.512  11.039  18.553  0.00  0.00    +0.000 N 
ATOM     13  C   UNL     1      -1.803  10.445  17.354  0.00  0.00    +0.000 A 
ATOM     14  N   UNL     1      -3.053  10.650  16.990  0.00  0.00    +0.000 NA
ATOM     15  C   UNL     1      -3.601  11.397  18.010  0.00  0.00    +0.000 A 
ATOM     16  C   UNL     1      -4.891  11.907  18.229  0.00  0.00    +0.000 A 
ATOM     17  N   UNL     1      -5.951  11.689  17.360  0.00  0.00    +0.000 N 
ATOM     18  N   UNL     1      -5.114  12.655  19.334  0.00  0.00    +0.000 NA
ATOM     19  C   UNL     1      -4.089  12.845  20.194  0.00  0.00    +0.000 A 
ATOM     20  N   UNL     1      -2.824  12.385  20.107  0.00  0.00    +0.000 NA
ATOM     21  C   UNL     1      -2.652  11.670  18.983  0.00  0.00    +0.000 A 
ATOM     22  H   UNL     1      -5.662  11.434  16.422  0.00  0.00    +0.000 HD
ATOM     23  H   UNL     1      -6.682  12.380  17.461  0.00  0.00    +0.000 HD
ENDBRANCH   9  12
BRANCH   1  28
ATOM     24  C   UNL     1       0.632   1.859  18.997  0.00  0.00    +0.000 C 
ATOM     25  C   UNL     1       1.239   3.033  19.652  0.00  0.00    +0.000 A 
ATOM     26  C   UNL     1       1.459   3.375  20.969  0.00  0.00    +0.000 A 
ATOM     27  C   UNL     1       2.071   4.650  20.950  0.00  0.00    +0.000 A 
ATOM     28  C   UNL     1       2.180   5.020  19.623  0.00  0.00    +0.000 A 
ATOM     29  O   UNL     1       1.683   4.024  18.829  0.00  0.00    +0.000 OA
ENDBRANCH   1  28
TORSDOF 2
ENDMDL
MODEL 4
REMARK VINA RESULT:      -7.3      1.089      2.132
REMARK  Name = 
REMARK  3 active torsions:
REMARK  status: ('A' for Active; 'I' for Inactive)
REMARK    1  A    between atoms: C_1  and  C_2
REMARK    2  A    between atoms: C_5  and  C_6
REMARK    3  A    between atoms: C_14  and  N_15
REMARK                            x       y       z     vdW  Elec       q    Type
REMARK                         _______ _______ _______ _____ _____    ______ ____
ROOT
ATOM      1  C   UNL     1       2.430   6.497  18.891  0.00  0.00    +0.000 A 
ATOM      2  C   UNL     1       3.394   6.521  17.912  0.00  0.00    +0.000 A 
ATOM      3  N   UNL     1       3.693   7.671  17.292  0.00  0.00    +0.000 NA
ATOM      4  N   UNL     1       3.011   8.795  17.663  0.00  0.00    +0.000 NA
ATOM      5  C   UNL     1       2.074   8.747  18.641  0.00  0.00    +0.000 A 
ATOM      6  N   UNL     1       1.424   9.888  19.015  0.00  0.00    +0.000 N 
ATOM      7  C   UNL     1       1.554  11.137  18.305  0.00  0.00    +0.000 C 
ATOM      8  C   UNL     1       0.956  12.147  19.281  0.00  0.00    +0.000 C 
ATOM      9  C   UNL     1      -0.091  11.358  20.079  0.00  0.00    +0.000 C 
ATOM     10  C   UNL     1       0.394   9.897  20.037  0.00  0.00    +0.000 C 
ATOM     11  N   UNL     1       1.766   7.610  19.278  0.00  0.00    +0.000 NA
ENDROOT
BRANCH   9  12
ATOM     12  N   UNL     1      -1.451  11.523  19.604  0.00  0.00    +0.000 N 
ATOM     13  C   UNL     1      -2.447  12.279  20.164  0.00  0.00    +0.000 A 
ATOM     14  N   UNL     1      -3.551  12.253  19.446  0.00  0.00    +0.000 NA
ATOM     15  C   UNL     1      -3.251  11.456  18.362  0.00  0.00    +0.000 A 
ATOM     16  C   UNL     1      -3.992  11.065  17.234  0.00  0.00    +0.000 A 
ATOM     17  N   UNL     1      -5.289  11.495  16.992  0.00  0.00    +0.000 N 
ATOM     18  N   UNL     1      -3.420  10.223  16.344  0.00  0.00    +0.000 NA
ATOM     19  C   UNL     1      -2.148   9.826  16.566  0.00  0.00    +0.000 A 
ATOM     20  N   UNL     1      -1.333  10.154  17.589  0.00  0.00    +0.000 NA
ATOM     21  C   UNL     1      -1.956  10.972  18.454  0.00  0.00    +0.000 A 
ATOM     22  H   UNL     1      -5.770  11.824  17.821  0.00  0.00    +0.000 HD
ATOM     23  H   UNL     1      -5.788  10.879  16.365  0.00  0.00    +0.000 HD
ENDBRANCH   9  12
BRANCH   1  28
ATOM     24  C   UNL     1       0.637   2.036  18.951  0.00  0.00    +0.000 C 
ATOM     25  C   UNL     1       1.181   3.243  19.601  0.00  0.00    +0.000 A 
ATOM     26  C   UNL     1       1.382   3.602  20.917  0.00  0.00    +0.000 A 
ATOM     27  C   UNL     1       1.925   4.908  20.892  0.00  0.00    +0.000 A 
ATOM     28  C   UNL     1       2.013   5.279  19.563  0.00  0.00    +0.000 A 
ATOM     29  O   UNL     1       1.570   4.254  18.774  0.00  0.00    +0.000 OA
ENDBRANCH   1  28
TORSDOF 2
ENDMDL
MODEL 5
REMARK VINA RESULT:      -7.3      0.742      1.006
REMARK  Name = 
REMARK  3 active torsions:
REMARK  status: ('A' for Active; 'I' for Inactive)
REMARK    1  A    between atoms: C_1  and  C_2
REMARK    2  A    between atoms: C_5  and  C_6
REMARK    3  A    between atoms: C_14  and  N_15
REMARK                            x       y       z     vdW  Elec       q    Type
REMARK                         _______ _______ _______ _____ _____    ______ ____
ROOT
ATOM      1  C   UNL     1       3.082   5.850  18.116  0.00  0.00    +0.000 A 
ATOM      2  C   UNL     1       4.226   6.046  17.381  0.00  0.00    +0.000 A 
ATOM      3  N   UNL     1       4.554   7.277  16.964  0.00  0.00    +0.000 NA
ATOM      4  N   UNL     1       3.719   8.307  17.290  0.00  0.00    +0.000 NA
ATOM      5  C   UNL     1       2.604   8.090  18.029  0.00  0.00    +0.000 A 
ATOM      6  N   UNL     1       1.798   9.139  18.368  0.00  0.00    +0.000 N 
ATOM      7  C   UNL     1       1.973  10.469  17.837  0.00  0.00    +0.000 C 
ATOM      8  C   UNL     1       1.102  11.320  18.757  0.00  0.00    +0.000 C 
ATOM      9  C   UNL     1      -0.022  10.382  19.220  0.00  0.00    +0.000 C 
ATOM     10  C   UNL     1       0.578   8.968  19.134  0.00  0.00    +0.000 C 
ATOM     11  N   UNL     1       2.262   6.869  18.462  0.00  0.00    +0.000 NA
ENDROOT
BRANCH   9  12
ATOM     12  N   UNL     1      -1.261  10.524  18.478  0.00  0.00    +0.000 N 
ATOM     13  C   UNL     1      -1.605   9.914  17.302  0.00  0.00    +0.000 A 
ATOM     14  N   UNL     1      -2.830  10.220  16.926  0.00  0.00    +0.000 NA
ATOM     15  C   UNL     1      -3.306  11.055  17.913  0.00  0.00    +0.000 A 
ATOM     16  C   UNL     1      -4.544  11.692  18.106  0.00  0.00    +0.000 A 
ATOM     17  N   UNL     1      -5.619  11.539  17.242  0.00  0.00    +0.000 N 
ATOM     18  N   UNL     1      -4.696  12.500  19.180  0.00  0.00    +0.000 NA
ATOM     19  C   UNL     1      -3.658  12.627  20.036  0.00  0.00    +0.000 A 
ATOM     20  N   UNL     1      -2.442  12.048  19.972  0.00  0.00    +0.000 NA
ATOM     21  C   UNL     1      -2.336  11.276  18.878  0.00  0.00    +0.000 A 
ATOM     22  H   UNL     1      -5.354  11.222  16.316  0.00  0.00    +0.000 HD
ATOM     23  H   UNL     1      -6.282  12.299  17.313  0.00  0.00    +0.000 HD
ENDBRANCH   9  12
BRANCH   1  28
ATOM     24  C   UNL     1       3.630   1.108  18.689  0.00  0.00    +0.000 C 
ATOM     25  C   UNL     1       2.870   2.367  18.804  0.00  0.00    +0.000 A 
ATOM     26  C   UNL     1       1.600   2.670  19.245  0.00  0.00    +0.000 A 
ATOM     27  C   UNL     1       1.450   4.068  19.090  0.00  0.00    +0.000 A 
ATOM     28  C   UNL     1       2.633   4.539  18.551  0.00  0.00    +0.000 A 
ATOM     29  O   UNL     1       3.506   3.499  18.390  0.00  0.00    +0.000 OA
ENDBRANCH   1  28
TORSDOF 2
ENDMDL
MODEL 6
REMARK VINA RESULT:      -7.2      5.667      8.348
REMARK  Name = 
REMARK  3 active torsions:
REMARK  status: ('A' for Active; 'I' for Inactive)
REMARK    1  A    between atoms: C_1  and  C_2
REMARK    2  A    between atoms: C_5  and  C_6
REMARK    3  A    between atoms: C_14  and  N_15
REMARK                            x       y       z     vdW  Elec       q    Type
REMARK                         _______ _______ _______ _____ _____    ______ ____
ROOT
ATOM      1  C   UNL     1       6.723   4.073  12.999  0.00  0.00    +0.000 A 
ATOM      2  C   UNL     1       7.626   4.951  12.450  0.00  0.00    +0.000 A 
ATOM      3  N   UNL     1       8.262   5.836  13.231  0.00  0.00    +0.000 NA
ATOM      4  N   UNL     1       7.979   5.830  14.567  0.00  0.00    +0.000 NA
ATOM      5  C   UNL     1       7.095   4.945  15.086  0.00  0.00    +0.000 A 
ATOM      6  N   UNL     1       6.847   4.938  16.429  0.00  0.00    +0.000 N 
ATOM      7  C   UNL     1       7.353   5.948  17.327  0.00  0.00    +0.000 C 
ATOM      8  C   UNL     1       7.126   5.325  18.702  0.00  0.00    +0.000 C 
ATOM      9  C   UNL     1       5.898   4.419  18.530  0.00  0.00    +0.000 C 
ATOM     10  C   UNL     1       5.893   4.032  17.040  0.00  0.00    +0.000 C 
ATOM     11  N   UNL     1       6.454   4.048  14.324  0.00  0.00    +0.000 NA
ENDROOT
BRANCH   9  12
ATOM     12  N   UNL     1       4.651   5.016  18.970  0.00  0.00    +0.000 N 
ATOM     13  C   UNL     1       4.180   6.272  18.690  0.00  0.00    +0.000 A 
ATOM     14  N   UNL     1       2.984   6.477  19.202  0.00  0.00    +0.000 NA
ATOM     15  C   UNL     1       2.657   5.293  19.827  0.00  0.00    +0.000 A 
ATOM     16  C   UNL     1       1.515   4.870  20.527  0.00  0.00    +0.000 A 
ATOM     17  N   UNL     1       0.389   5.664  20.693  0.00  0.00    +0.000 N 
ATOM     18  N   UNL     1       1.511   3.633  21.073  0.00  0.00    +0.000 NA
ATOM     19  C   UNL     1       2.596   2.849  20.888  0.00  0.00    +0.000 A 
ATOM     20  N   UNL     1       3.731   3.133  20.216  0.00  0.00    +0.000 NA
ATOM     21  C   UNL     1       3.692   4.378  19.715  0.00  0.00    +0.000 A 
ATOM     22  H   UNL     1       0.570   6.655  20.576  0.00  0.00    +0.000 HD
ATOM     23  H   UNL     1      -0.175   5.374  21.481  0.00  0.00    +0.000 HD
ENDBRANCH   9  12
BRANCH   1  28
ATOM     24  C   UNL     1       6.001  -0.226  10.971  0.00  0.00    +0.000 C 
ATOM     25  C   UNL     1       5.623   1.169  11.265  0.00  0.00    +0.000 A 
ATOM     26  C   UNL     1       4.572   1.969  10.871  0.00  0.00    +0.000 A 
ATOM     27  C   UNL     1       4.781   3.227  11.483  0.00  0.00    +0.000 A 
ATOM     28  C   UNL     1       5.954   3.128  12.207  0.00  0.00    +0.000 A 
ATOM     29  O   UNL     1       6.461   1.865  12.084  0.00  0.00    +0.000 OA
ENDBRANCH   1  28
TORSDOF 2
ENDMDL
MODEL 7
REMARK VINA RESULT:      -7.1      3.462      5.775
REMARK  Name = 
REMARK  3 active torsions:
REMARK  status: ('A' for Active; 'I' for Inactive)
REMARK    1  A    between atoms: C_1  and  C_2
REMARK    2  A    between atoms: C_5  and  C_6
REMARK    3  A    between atoms: C_14  and  N_15
REMARK                            x       y       z     vdW  Elec       q    Type
REMARK                         _______ _______ _______ _____ _____    ______ ____
ROOT
ATOM      1  C   UNL     1       6.790   4.597  16.088  0.00  0.00    +0.000 A 
ATOM      2  C   UNL     1       7.860   4.246  16.876  0.00  0.00    +0.000 A 
ATOM      3  N   UNL     1       7.771   4.341  18.210  0.00  0.00    +0.000 NA
ATOM      4  N   UNL     1       6.598   4.795  18.743  0.00  0.00    +0.000 NA
ATOM      5  C   UNL     1       5.553   5.121  17.945  0.00  0.00    +0.000 A 
ATOM      6  N   UNL     1       4.381   5.547  18.501  0.00  0.00    +0.000 N 
ATOM      7  C   UNL     1       4.235   5.836  19.907  0.00  0.00    +0.000 C 
ATOM      8  C   UNL     1       2.721   5.912  20.084  0.00  0.00    +0.000 C 
ATOM      9  C   UNL     1       2.185   6.393  18.728  0.00  0.00    +0.000 C 
ATOM     10  C   UNL     1       3.235   5.934  17.699  0.00  0.00    +0.000 C 
ATOM     11  N   UNL     1       5.619   5.027  16.611  0.00  0.00    +0.000 NA
ENDROOT
BRANCH   9  12
ATOM     12  N   UNL     1       1.909   7.816  18.667  0.00  0.00    +0.000 N 
ATOM     13  C   UNL     1       2.068   8.653  17.595  0.00  0.00    +0.000 A 
ATOM     14  N   UNL     1       1.669   9.880  17.862  0.00  0.00    +0.000 NA
ATOM     15  C   UNL     1       1.216   9.831  19.163  0.00  0.00    +0.000 A 
ATOM     16  C   UNL     1       0.645  10.796  20.010  0.00  0.00    +0.000 A 
ATOM     17  N   UNL     1       0.393  12.101  19.612  0.00  0.00    +0.000 N 
ATOM     18  N   UNL     1       0.333  10.442  21.277  0.00  0.00    +0.000 NA
ATOM     19  C   UNL     1       0.553   9.164  21.657  0.00  0.00    +0.000 A 
ATOM     20  N   UNL     1       1.064   8.149  20.930  0.00  0.00    +0.000 NA
ATOM     21  C   UNL     1       1.378   8.559  19.690  0.00  0.00    +0.000 A 
ATOM     22  H   UNL     1       0.940  12.394  18.810  0.00  0.00    +0.000 HD
ATOM     23  H   UNL     1       0.319  12.736  20.395  0.00  0.00    +0.000 HD
ENDBRANCH   9  12
BRANCH   1  28
ATOM     24  C   UNL     1       5.463   2.908  11.787  0.00  0.00    +0.000 C 
ATOM     25  C   UNL     1       6.243   3.800  12.666  0.00  0.00    +0.000 A 
ATOM     26  C   UNL     1       7.214   4.750  12.431  0.00  0.00    +0.000 A 
ATOM     27  C   UNL     1       7.588   5.255  13.698  0.00  0.00    +0.000 A 
ATOM     28  C   UNL     1       6.834   4.576  14.636  0.00  0.00    +0.000 A 
ATOM     29  O   UNL     1       6.001   3.696  14.003  0.00  0.00    +0.000 OA
ENDBRANCH   1  28
TORSDOF 2
ENDMDL
MODEL 8
REMARK VINA RESULT:      -7.1      4.430      7.740
REMARK  Name = 
REMARK  3 active torsions:
REMARK  status: ('A' for Active; 'I' for Inactive)
REMARK    1  A    between atoms: C_1  and  C_2
REMARK    2  A    between atoms: C_5  and  C_6
REMARK    3  A    between atoms: C_14  and  N_15
REMARK                            x       y       z     vdW  Elec       q    Type
REMARK                         _______ _______ _______ _____ _____    ______ ____
ROOT
ATOM      1  C   UNL     1       6.401   4.211  13.083  0.00  0.00    +0.000 A 
ATOM      2  C   UNL     1       7.503   4.934  12.692  0.00  0.00    +0.000 A 
ATOM      3  N   UNL     1       8.237   5.586  13.604  0.00  0.00    +0.000 NA
ATOM      4  N   UNL     1       7.850   5.507  14.912  0.00  0.00    +0.000 NA
ATOM      5  C   UNL     1       6.768   4.777  15.273  0.00  0.00    +0.000 A 
ATOM      6  N   UNL     1       6.415   4.690  16.590  0.00  0.00    +0.000 N 
ATOM      7  C   UNL     1       7.037   5.478  17.625  0.00  0.00    +0.000 C 
ATOM      8  C   UNL     1       6.578   4.783  18.904  0.00  0.00    +0.000 C 
ATOM      9  C   UNL     1       5.213   4.173  18.558  0.00  0.00    +0.000 C 
ATOM     10  C   UNL     1       5.253   3.945  17.036  0.00  0.00    +0.000 C 
ATOM     11  N   UNL     1       6.025   4.111  14.378  0.00  0.00    +0.000 NA
ENDROOT
BRANCH   9  12
ATOM     12  N   UNL     1       4.078   4.969  18.987  0.00  0.00    +0.000 N 
ATOM     13  C   UNL     1       3.198   4.692  19.999  0.00  0.00    +0.000 A 
ATOM     14  N   UNL     1       2.313   5.655  20.162  0.00  0.00    +0.000 NA
ATOM     15  C   UNL     1       2.647   6.606  19.223  0.00  0.00    +0.000 A 
ATOM     16  C   UNL     1       2.109   7.866  18.911  0.00  0.00    +0.000 A 
ATOM     17  N   UNL     1       1.046   8.430  19.604  0.00  0.00    +0.000 N 
ATOM     18  N   UNL     1       2.644   8.563  17.884  0.00  0.00    +0.000 NA
ATOM     19  C   UNL     1       3.696   8.027  17.227  0.00  0.00    +0.000 A 
ATOM     20  N   UNL     1       4.313   6.848  17.451  0.00  0.00    +0.000 NA
ATOM     21  C   UNL     1       3.729   6.188  18.464  0.00  0.00    +0.000 A 
ATOM     22  H   UNL     1       0.485   7.753  20.108  0.00  0.00    +0.000 HD
ATOM     23  H   UNL     1       0.567   9.138  19.064  0.00  0.00    +0.000 HD
ENDBRANCH   9  12
BRANCH   1  28
ATOM     24  C   UNL     1       2.837   4.093   9.858  0.00  0.00    +0.000 C 
ATOM     25  C   UNL     1       3.889   3.464  10.679  0.00  0.00    +0.000 A 
ATOM     26  C   UNL     1       4.295   2.160  10.861  0.00  0.00    +0.000 A 
ATOM     27  C   UNL     1       5.354   2.202  11.798  0.00  0.00    +0.000 A 
ATOM     28  C   UNL     1       5.527   3.529  12.144  0.00  0.00    +0.000 A 
ATOM     29  O   UNL     1       4.639   4.302  11.449  0.00  0.00    +0.000 OA
ENDBRANCH   1  28
TORSDOF 2
ENDMDL
MODEL 9
REMARK VINA RESULT:      -7.1      3.282      8.190
REMARK  Name = 
REMARK  3 active torsions:
REMARK  status: ('A' for Active; 'I' for Inactive)
REMARK    1  A    between atoms: C_1  and  C_2
REMARK    2  A    between atoms: C_5  and  C_6
REMARK    3  A    between atoms: C_14  and  N_15
REMARK                            x       y       z     vdW  Elec       q    Type
REMARK                         _______ _______ _______ _____ _____    ______ ____
ROOT
ATOM      1  C   UNL     1      -3.418  10.741  16.002  0.00  0.00    +0.000 A 
ATOM      2  C   UNL     1      -4.549  11.280  16.566  0.00  0.00    +0.000 A 
ATOM      3  N   UNL     1      -4.542  11.661  17.851  0.00  0.00    +0.000 NA
ATOM      4  N   UNL     1      -3.388  11.492  18.563  0.00  0.00    +0.000 NA
ATOM      5  C   UNL     1      -2.282  10.971  17.979  0.00  0.00    +0.000 A 
ATOM      6  N   UNL     1      -1.132  10.837  18.702  0.00  0.00    +0.000 N 
ATOM      7  C   UNL     1      -1.065  11.064  20.125  0.00  0.00    +0.000 C 
ATOM      8  C   UNL     1       0.437  11.145  20.387  0.00  0.00    +0.000 C 
ATOM      9  C   UNL     1       1.077  10.254  19.312  0.00  0.00    +0.000 C 
ATOM     10  C   UNL     1       0.077  10.263  18.141  0.00  0.00    +0.000 C 
ATOM     11  N   UNL     1      -2.266  10.591  16.694  0.00  0.00    +0.000 NA
ENDROOT
BRANCH   9  12
ATOM     12  N   UNL     1       1.413   8.919  19.768  0.00  0.00    +0.000 N 
ATOM     13  C   UNL     1       0.962   8.281  20.893  0.00  0.00    +0.000 A 
ATOM     14  N   UNL     1       1.422   7.049  20.981  0.00  0.00    +0.000 NA
ATOM     15  C   UNL     1       2.193   6.877  19.851  0.00  0.00    +0.000 A 
ATOM     16  C   UNL     1       2.923   5.784  19.355  0.00  0.00    +0.000 A 
ATOM     17  N   UNL     1       2.964   4.549  19.987  0.00  0.00    +0.000 N 
ATOM     18  N   UNL     1       3.627   5.940  18.211  0.00  0.00    +0.000 NA
ATOM     19  C   UNL     1       3.565   7.134  17.581  0.00  0.00    +0.000 A 
ATOM     20  N   UNL     1       2.881   8.239  17.943  0.00  0.00    +0.000 NA
ATOM     21  C   UNL     1       2.219   8.037  19.094  0.00  0.00    +0.000 A 
ATOM     22  H   UNL     1       2.720   4.587  20.970  0.00  0.00    +0.000 HD
ATOM     23  H   UNL     1       3.773   4.005  19.718  0.00  0.00    +0.000 HD
ENDBRANCH   9  12
BRANCH   1  28
ATOM     24  C   UNL     1      -5.416   9.676  11.760  0.00  0.00    +0.000 C 
ATOM     25  C   UNL     1      -4.278   9.750  12.696  0.00  0.00    +0.000 A 
ATOM     26  C   UNL     1      -2.960   9.356  12.617  0.00  0.00    +0.000 A 
ATOM     27  C   UNL     1      -2.373   9.687  13.861  0.00  0.00    +0.000 A 
ATOM     28  C   UNL     1      -3.369  10.252  14.634  0.00  0.00    +0.000 A 
ATOM     29  O   UNL     1      -4.531  10.303  13.916  0.00  0.00    +0.000 OA
ENDBRANCH   1  28
TORSDOF 2
ENDMDL
