MODEL 1
REMARK VINA RESULT:      -7.5      0.000      0.000
REMARK  Name = 
REMARK  11 active torsions:
REMARK  status: ('A' for Active; 'I' for Inactive)
REMARK    1  A    between atoms: C_1  and  C_2
REMARK    2  A    between atoms: C_2  and  N_3
REMARK    3  A    between atoms: N_3  and  C_4
REMARK    4  A    between atoms: N_3  and  C_6
REMARK    5  A    between atoms: C_4  and  C_5
REMARK    6  A    between atoms: C_11  and  C_12
REMARK    7  A    between atoms: N_19  and  C_20
REMARK    8  A    between atoms: C_20  and  C_21
REMARK    9  A    between atoms: N_26  and  C_27
REMARK   10  A    between atoms: C_32  and  O_33
REMARK   11  A    between atoms: O_33  and  C_34
REMARK                            x       y       z     vdW  Elec       q    Type
REMARK                         _______ _______ _______ _____ _____    ______ ____
ROOT
ATOM      1  C   UNL     1       0.419  14.469  20.553  0.00  0.00    +0.000 A 
ATOM      2  N   UNL     1      -0.035  15.740  20.429  0.00  0.00    +0.000 NA
ATOM      3  C   UNL     1      -1.260  16.056  20.868  0.00  0.00    +0.000 A 
ATOM      4  N   UNL     1      -2.147  15.250  21.443  0.00  0.00    +0.000 NA
ATOM      5  C   UNL     1      -1.725  13.970  21.560  0.00  0.00    +0.000 A 
ATOM      6  C   UNL     1      -2.412  12.869  22.158  0.00  0.00    +0.000 A 
ATOM      7  C   UNL     1      -1.578  11.775  22.019  0.00  0.00    +0.000 A 
ATOM      8  N   UNL     1      -0.416  12.180  21.401  0.00  0.00    +0.000 N 
ATOM      9  C   UNL     1      -0.472  13.537  21.117  0.00  0.00    +0.000 A 
ENDROOT
BRANCH   6  10
ATOM     10  C   UNL     1      -3.728  12.809  22.790  0.00  0.00    +0.000 A 
ATOM     11  C   UNL     1      -3.856  12.526  24.157  0.00  0.00    +0.000 A 
ATOM     12  C   UNL     1      -5.117  12.449  24.758  0.00  0.00    +0.000 A 
ATOM     13  C   UNL     1      -6.266  12.650  23.998  0.00  0.00    +0.000 A 
ATOM     14  C   UNL     1      -6.158  12.931  22.638  0.00  0.00    +0.000 A 
ATOM     15  C   UNL     1      -4.898  13.007  22.039  0.00  0.00    +0.000 A 
ENDBRANCH   6  10
BRANCH   1  16
ATOM     16  N   UNL     1       1.768  14.202  20.251  0.00  0.00    +0.000 N 
BRANCH  16  18
ATOM     17  C   UNL     1       3.548  15.877  20.684  0.00  0.00    +0.000 C 
ATOM     18  C   UNL     1       2.669  14.784  21.275  0.00  0.00    +0.000 C 
ENDBRANCH  16  18
BRANCH  16  19
ATOM     19  C   UNL     1       2.139  14.471  18.846  0.00  0.00    +0.000 C 
ATOM     20  C   UNL     1       2.882  13.356  18.136  0.00  0.00    +0.000 C 
ENDBRANCH  16  19
ENDBRANCH   1  16
BRANCH   8  21
ATOM     21  C   UNL     1       0.639  11.273  20.970  0.00  0.00    +0.000 C 
BRANCH  21  22
ATOM     22  C   UNL     1       0.587  10.776  19.545  0.00  0.00    +0.000 C 
ATOM     23  O   UNL     1      -0.001  11.415  18.673  0.00  0.00    +0.000 OA
ATOM     24  N   UNL     1       1.347   9.634  19.275  0.00  0.00    +0.000 N 
ATOM     25  C   UNL     1       1.466   9.255  17.864  0.00  0.00    +0.000 C 
ATOM     26  C   UNL     1       2.574   8.213  17.631  0.00  0.00    +0.000 C 
ATOM     27  N   UNL     1       2.290   7.052  18.495  0.00  0.00    +0.000 N 
ATOM     28  C   UNL     1       2.376   7.399  19.925  0.00  0.00    +0.000 C 
ATOM     29  C   UNL     1       1.349   8.513  20.236  0.00  0.00    +0.000 C 
BRANCH  27  30
ATOM     30  C   UNL     1       2.696   5.779  18.099  0.00  0.00    +0.000 A 
ATOM     31  C   UNL     1       1.748   4.747  17.926  0.00  0.00    +0.000 A 
ATOM     32  C   UNL     1       2.116   3.434  17.610  0.00  0.00    +0.000 A 
ATOM     33  C   UNL     1       3.454   3.112  17.446  0.00  0.00    +0.000 A 
ATOM     34  C   UNL     1       4.414   4.110  17.571  0.00  0.00    +0.000 A 
ATOM     35  C   UNL     1       4.053   5.429  17.895  0.00  0.00    +0.000 A 
BRANCH  35  36
ATOM     36  O   UNL     1       5.138   6.269  17.931  0.00  0.00    +0.000 OA
ATOM     37  C   UNL     1       5.899   6.373  16.738  0.00  0.00    +0.000 C 
ENDBRANCH  35  36
ENDBRANCH  27  30
ENDBRANCH  21  22
ENDBRANCH   8  21
TORSDOF 8
ENDMDL
MODEL 2
REMARK VINA RESULT:      -7.0      1.419      5.395
REMARK  Name = 
REMARK  11 active torsions:
REMARK  status: ('A' for Active; 'I' for Inactive)
REMARK    1  A    between atoms: C_1  and  C_2
REMARK    2  A    between atoms: C_2  and  N_3
REMARK    3  A    between atoms: N_3  and  C_4
REMARK    4  A    between atoms: N_3  and  C_6
REMARK    5  A    between atoms: C_4  and  C_5
REMARK    6  A    between atoms: C_11  and  C_12
REMARK    7  A    between atoms: N_19  and  C_20
REMARK    8  A    between atoms: C_20  and  C_21
REMARK    9  A    between atoms: N_26  and  C_27
REMARK   10  A    between atoms: C_32  and  O_33
REMARK   11  A    between atoms: O_33  and  C_34
REMARK                            x       y       z     vdW  Elec       q    Type
REMARK                         _______ _______ _______ _____ _____    ______ ____
ROOT
ATOM      1  C   UNL     1      -0.727  13.529  22.100  0.00  0.00    +0.000 A 
ATOM      2  N   UNL     1      -1.000  14.691  22.742  0.00  0.00    +0.000 NA
ATOM      3  C   UNL     1      -0.115  15.695  22.709  0.00  0.00    +0.000 A 
ATOM      4  N   UNL     1       1.065  15.714  22.097  0.00  0.00    +0.000 NA
ATOM      5  C   UNL     1       1.370  14.558  21.465  0.00  0.00    +0.000 A 
ATOM      6  C   UNL     1       2.532  14.261  20.689  0.00  0.00    +0.000 A 
ATOM      7  C   UNL     1       2.388  12.952  20.267  0.00  0.00    +0.000 A 
ATOM      8  N   UNL     1       1.181  12.471  20.722  0.00  0.00    +0.000 N 
ATOM      9  C   UNL     1       0.522  13.447  21.456  0.00  0.00    +0.000 A 
ENDROOT
BRANCH   6  10
ATOM     10  C   UNL     1       3.692  15.091  20.370  0.00  0.00    +0.000 A 
ATOM     11  C   UNL     1       3.642  16.023  19.324  0.00  0.00    +0.000 A 
ATOM     12  C   UNL     1       4.758  16.803  19.006  0.00  0.00    +0.000 A 
ATOM     13  C   UNL     1       5.940  16.659  19.728  0.00  0.00    +0.000 A 
ATOM     14  C   UNL     1       6.008  15.737  20.770  0.00  0.00    +0.000 A 
ATOM     15  C   UNL     1       4.892  14.957  21.086  0.00  0.00    +0.000 A 
ENDBRANCH   6  10
BRANCH   1  16
ATOM     16  N   UNL     1      -1.743  12.560  21.998  0.00  0.00    +0.000 N 
BRANCH  16  18
ATOM     17  C   UNL     1      -2.626  12.392  19.684  0.00  0.00    +0.000 C 
ATOM     18  C   UNL     1      -2.811  13.000  21.067  0.00  0.00    +0.000 C 
ENDBRANCH  16  18
BRANCH  16  19
ATOM     19  C   UNL     1      -2.206  12.029  23.297  0.00  0.00    +0.000 C 
ATOM     20  C   UNL     1      -3.638  12.360  23.671  0.00  0.00    +0.000 C 
ENDBRANCH  16  19
ENDBRANCH   1  16
BRANCH   8  21
ATOM     21  C   UNL     1       0.748  11.087  20.584  0.00  0.00    +0.000 C 
BRANCH  21  22
ATOM     22  C   UNL     1       0.848  10.463  19.213  0.00  0.00    +0.000 C 
ATOM     23  O   UNL     1       0.437  11.056  18.215  0.00  0.00    +0.000 OA
ATOM     24  N   UNL     1       1.540   9.250  19.149  0.00  0.00    +0.000 N 
ATOM     25  C   UNL     1       1.818   8.732  17.806  0.00  0.00    +0.000 C 
ATOM     26  C   UNL     1       2.857   7.598  17.821  0.00  0.00    +0.000 C 
ATOM     27  N   UNL     1       2.365   6.547  18.730  0.00  0.00    +0.000 N 
ATOM     28  C   UNL     1       2.286   7.020  20.123  0.00  0.00    +0.000 C 
ATOM     29  C   UNL     1       1.321   8.228  20.192  0.00  0.00    +0.000 C 
BRANCH  27  30
ATOM     30  C   UNL     1       2.715   5.217  18.503  0.00  0.00    +0.000 A 
ATOM     31  C   UNL     1       1.782   4.317  17.944  0.00  0.00    +0.000 A 
ATOM     32  C   UNL     1       2.060   2.956  17.774  0.00  0.00    +0.000 A 
ATOM     33  C   UNL     1       3.293   2.449  18.154  0.00  0.00    +0.000 A 
ATOM     34  C   UNL     1       4.252   3.313  18.674  0.00  0.00    +0.000 A 
ATOM     35  C   UNL     1       3.977   4.679  18.854  0.00  0.00    +0.000 A 
BRANCH  35  36
ATOM     36  O   UNL     1       5.063   5.365  19.339  0.00  0.00    +0.000 OA
ATOM     37  C   UNL     1       6.091   5.666  18.409  0.00  0.00    +0.000 C 
ENDBRANCH  35  36
ENDBRANCH  27  30
ENDBRANCH  21  22
ENDBRANCH   8  21
TORSDOF 8
ENDMDL
MODEL 3
REMARK VINA RESULT:      -6.9      1.147      1.869
REMARK  Name = 
REMARK  11 active torsions:
REMARK  status: ('A' for Active; 'I' for Inactive)
REMARK    1  A    between atoms: C_1  and  C_2
REMARK    2  A    between atoms: C_2  and  N_3
REMARK    3  A    between atoms: N_3  and  C_4
REMARK    4  A    between atoms: N_3  and  C_6
REMARK    5  A    between atoms: C_4  and  C_5
REMARK    6  A    between atoms: C_11  and  C_12
REMARK    7  A    between atoms: N_19  and  C_20
REMARK    8  A    between atoms: C_20  and  C_21
REMARK    9  A    between atoms: N_26  and  C_27
REMARK   10  A    between atoms: C_32  and  O_33
REMARK   11  A    between atoms: O_33  and  C_34
REMARK                            x       y       z     vdW  Elec       q    Type
REMARK                         _______ _______ _______ _____ _____    ______ ____
ROOT
ATOM      1  C   UNL     1       0.546  14.504  20.166  0.00  0.00    +0.000 A 
ATOM      2  N   UNL     1       0.163  15.786  19.956  0.00  0.00    +0.000 NA
ATOM      3  C   UNL     1      -1.085  16.167  20.256  0.00  0.00    +0.000 A 
ATOM      4  N   UNL     1      -2.060  15.418  20.762  0.00  0.00    +0.000 NA
ATOM      5  C   UNL     1      -1.708  14.128  20.962  0.00  0.00    +0.000 A 
ATOM      6  C   UNL     1      -2.500  13.078  21.520  0.00  0.00    +0.000 A 
ATOM      7  C   UNL     1      -1.706  11.947  21.502  0.00  0.00    +0.000 A 
ATOM      8  N   UNL     1      -0.470  12.282  20.996  0.00  0.00    +0.000 N 
ATOM      9  C   UNL     1      -0.437  13.629  20.665  0.00  0.00    +0.000 A 
ENDROOT
BRANCH   6  10
ATOM     10  C   UNL     1      -3.876  13.093  22.014  0.00  0.00    +0.000 A 
ATOM     11  C   UNL     1      -4.930  12.623  21.219  0.00  0.00    +0.000 A 
ATOM     12  C   UNL     1      -6.248  12.656  21.685  0.00  0.00    +0.000 A 
ATOM     13  C   UNL     1      -6.530  13.165  22.950  0.00  0.00    +0.000 A 
ATOM     14  C   UNL     1      -5.495  13.638  23.753  0.00  0.00    +0.000 A 
ATOM     15  C   UNL     1      -4.178  13.605  23.286  0.00  0.00    +0.000 A 
ENDBRANCH   6  10
BRANCH   1  16
ATOM     16  N   UNL     1       1.906  14.172  20.014  0.00  0.00    +0.000 N 
BRANCH  16  18
ATOM     17  C   UNL     1       3.746  14.264  21.678  0.00  0.00    +0.000 C 
ATOM     18  C   UNL     1       2.768  15.063  20.828  0.00  0.00    +0.000 C 
ENDBRANCH  16  18
BRANCH  16  19
ATOM     19  C   UNL     1       2.329  13.980  18.611  0.00  0.00    +0.000 C 
ATOM     20  C   UNL     1       3.384  14.945  18.103  0.00  0.00    +0.000 C 
ENDBRANCH  16  19
ENDBRANCH   1  16
BRANCH   8  21
ATOM     21  C   UNL     1       0.583  11.318  20.704  0.00  0.00    +0.000 C 
BRANCH  21  22
ATOM     22  C   UNL     1       0.622  10.733  19.313  0.00  0.00    +0.000 C 
ATOM     23  O   UNL     1       0.100  11.319  18.365  0.00  0.00    +0.000 OA
ATOM     24  N   UNL     1       1.387   9.573  19.166  0.00  0.00    +0.000 N 
ATOM     25  C   UNL     1       1.598   9.104  17.793  0.00  0.00    +0.000 C 
ATOM     26  C   UNL     1       2.709   8.044  17.701  0.00  0.00    +0.000 C 
ATOM     27  N   UNL     1       2.356   6.942  18.615  0.00  0.00    +0.000 N 
ATOM     28  C   UNL     1       2.349   7.377  20.022  0.00  0.00    +0.000 C 
ATOM     29  C   UNL     1       1.314   8.514  20.193  0.00  0.00    +0.000 C 
BRANCH  27  30
ATOM     30  C   UNL     1       2.775   5.644  18.326  0.00  0.00    +0.000 A 
ATOM     31  C   UNL     1       3.833   5.418  17.418  0.00  0.00    +0.000 A 
ATOM     32  C   UNL     1       4.233   4.134  17.035  0.00  0.00    +0.000 A 
ATOM     33  C   UNL     1       3.589   3.024  17.560  0.00  0.00    +0.000 A 
ATOM     34  C   UNL     1       2.567   3.205  18.486  0.00  0.00    +0.000 A 
ATOM     35  C   UNL     1       2.155   4.493  18.870  0.00  0.00    +0.000 A 
BRANCH  35  36
ATOM     36  O   UNL     1       1.166   4.457  19.821  0.00  0.00    +0.000 OA
ATOM     37  C   UNL     1       1.058   3.263  20.580  0.00  0.00    +0.000 C 
ENDBRANCH  35  36
ENDBRANCH  27  30
ENDBRANCH  21  22
ENDBRANCH   8  21
TORSDOF 8
ENDMDL
MODEL 4
REMARK VINA RESULT:      -6.9      1.197      1.750
REMARK  Name = 
REMARK  11 active torsions:
REMARK  status: ('A' for Active; 'I' for Inactive)
REMARK    1  A    between atoms: C_1  and  C_2
REMARK    2  A    between atoms: C_2  and  N_3
REMARK    3  A    between atoms: N_3  and  C_4
REMARK    4  A    between atoms: N_3  and  C_6
REMARK    5  A    between atoms: C_4  and  C_5
REMARK    6  A    between atoms: C_11  and  C_12
REMARK    7  A    between atoms: N_19  and  C_20
REMARK    8  A    between atoms: C_20  and  C_21
REMARK    9  A    between atoms: N_26  and  C_27
REMARK   10  A    between atoms: C_32  and  O_33
REMARK   11  A    between atoms: O_33  and  C_34
REMARK                            x       y       z     vdW  Elec       q    Type
REMARK                         _______ _______ _______ _____ _____    ______ ____
ROOT
ATOM      1  C   UNL     1       0.852  14.337  21.246  0.00  0.00    +0.000 A 
ATOM      2  N   UNL     1       0.545  15.656  21.272  0.00  0.00    +0.000 NA
ATOM      3  C   UNL     1      -0.708  16.043  21.542  0.00  0.00    +0.000 A 
ATOM      4  N   UNL     1      -1.756  15.269  21.804  0.00  0.00    +0.000 NA
ATOM      5  C   UNL     1      -1.480  13.945  21.763  0.00  0.00    +0.000 A 
ATOM      6  C   UNL     1      -2.363  12.854  22.029  0.00  0.00    +0.000 A 
ATOM      7  C   UNL     1      -1.618  11.704  21.844  0.00  0.00    +0.000 A 
ATOM      8  N   UNL     1      -0.329  12.059  21.518  0.00  0.00    +0.000 N 
ATOM      9  C   UNL     1      -0.209  13.440  21.473  0.00  0.00    +0.000 A 
ENDROOT
BRANCH   6  10
ATOM     10  C   UNL     1      -3.776  12.853  22.403  0.00  0.00    +0.000 A 
ATOM     11  C   UNL     1      -4.164  13.008  23.741  0.00  0.00    +0.000 A 
ATOM     12  C   UNL     1      -5.515  12.987  24.102  0.00  0.00    +0.000 A 
ATOM     13  C   UNL     1      -6.495  12.807  23.129  0.00  0.00    +0.000 A 
ATOM     14  C   UNL     1      -6.128  12.650  21.795  0.00  0.00    +0.000 A 
ATOM     15  C   UNL     1      -4.777  12.670  21.436  0.00  0.00    +0.000 A 
ENDBRANCH   6  10
BRANCH   1  16
ATOM     16  N   UNL     1       2.205  13.961  21.140  0.00  0.00    +0.000 N 
BRANCH  16  18
ATOM     17  C   UNL     1       4.516  14.341  21.963  0.00  0.00    +0.000 C 
ATOM     18  C   UNL     1       3.053  14.751  22.065  0.00  0.00    +0.000 C 
ENDBRANCH  16  18
BRANCH  16  19
ATOM     19  C   UNL     1       2.698  13.860  19.750  0.00  0.00    +0.000 C 
ATOM     20  C   UNL     1       2.544  15.109  18.904  0.00  0.00    +0.000 C 
ENDBRANCH  16  19
ENDBRANCH   1  16
BRANCH   8  21
ATOM     21  C   UNL     1       0.705  11.112  21.122  0.00  0.00    +0.000 C 
BRANCH  21  22
ATOM     22  C   UNL     1       0.676  10.609  19.698  0.00  0.00    +0.000 C 
ATOM     23  O   UNL     1       0.141  11.266  18.806  0.00  0.00    +0.000 OA
ATOM     24  N   UNL     1       1.395   9.435  19.457  0.00  0.00    +0.000 N 
ATOM     25  C   UNL     1       1.542   9.042  18.052  0.00  0.00    +0.000 C 
ATOM     26  C   UNL     1       2.612   7.955  17.858  0.00  0.00    +0.000 C 
ATOM     27  N   UNL     1       2.255   6.812  18.719  0.00  0.00    +0.000 N 
ATOM     28  C   UNL     1       2.311   7.164  20.148  0.00  0.00    +0.000 C 
ATOM     29  C   UNL     1       1.322   8.321  20.423  0.00  0.00    +0.000 C 
BRANCH  27  30
ATOM     30  C   UNL     1       2.619   5.521  18.341  0.00  0.00    +0.000 A 
ATOM     31  C   UNL     1       3.653   5.315  17.401  0.00  0.00    +0.000 A 
ATOM     32  C   UNL     1       3.998   4.044  16.930  0.00  0.00    +0.000 A 
ATOM     33  C   UNL     1       3.320   2.927  17.394  0.00  0.00    +0.000 A 
ATOM     34  C   UNL     1       2.321   3.086  18.349  0.00  0.00    +0.000 A 
ATOM     35  C   UNL     1       1.964   4.361  18.821  0.00  0.00    +0.000 A 
BRANCH  35  36
ATOM     36  O   UNL     1       0.990   4.301  19.786  0.00  0.00    +0.000 OA
ATOM     37  C   UNL     1       1.192   3.368  20.836  0.00  0.00    +0.000 C 
ENDBRANCH  35  36
ENDBRANCH  27  30
ENDBRANCH  21  22
ENDBRANCH   8  21
TORSDOF 8
ENDMDL
MODEL 5
REMARK VINA RESULT:      -6.9      1.575      5.524
REMARK  Name = 
REMARK  11 active torsions:
REMARK  status: ('A' for Active; 'I' for Inactive)
REMARK    1  A    between atoms: C_1  and  C_2
REMARK    2  A    between atoms: C_2  and  N_3
REMARK    3  A    between atoms: N_3  and  C_4
REMARK    4  A    between atoms: N_3  and  C_6
REMARK    5  A    between atoms: C_4  and  C_5
REMARK    6  A    between atoms: C_11  and  C_12
REMARK    7  A    between atoms: N_19  and  C_20
REMARK    8  A    between atoms: C_20  and  C_21
REMARK    9  A    between atoms: N_26  and  C_27
REMARK   10  A    between atoms: C_32  and  O_33
REMARK   11  A    between atoms: O_33  and  C_34
REMARK                            x       y       z     vdW  Elec       q    Type
REMARK                         _______ _______ _______ _____ _____    ______ ____
ROOT
ATOM      1  C   UNL     1      -2.326  13.721  20.828  0.00  0.00    +0.000 A 
ATOM      2  N   UNL     1      -2.722  15.002  21.022  0.00  0.00    +0.000 NA
ATOM      3  C   UNL     1      -1.872  16.007  20.776  0.00  0.00    +0.000 A 
ATOM      4  N   UNL     1      -0.619  15.919  20.342  0.00  0.00    +0.000 NA
ATOM      5  C   UNL     1      -0.192  14.649  20.161  0.00  0.00    +0.000 A 
ATOM      6  C   UNL     1       1.077  14.209  19.674  0.00  0.00    +0.000 A 
ATOM      7  C   UNL     1       1.033  12.827  19.683  0.00  0.00    +0.000 A 
ATOM      8  N   UNL     1      -0.211  12.426  20.116  0.00  0.00    +0.000 N 
ATOM      9  C   UNL     1      -0.996  13.532  20.406  0.00  0.00    +0.000 A 
ENDROOT
BRANCH   6  10
ATOM     10  C   UNL     1       2.245  14.979  19.251  0.00  0.00    +0.000 A 
ATOM     11  C   UNL     1       2.687  14.940  17.922  0.00  0.00    +0.000 A 
ATOM     12  C   UNL     1       3.816  15.662  17.521  0.00  0.00    +0.000 A 
ATOM     13  C   UNL     1       4.519  16.430  18.447  0.00  0.00    +0.000 A 
ATOM     14  C   UNL     1       4.094  16.479  19.772  0.00  0.00    +0.000 A 
ATOM     15  C   UNL     1       2.966  15.756  20.171  0.00  0.00    +0.000 A 
ENDBRANCH   6  10
BRANCH   1  16
ATOM     16  N   UNL     1      -3.287  12.696  20.919  0.00  0.00    +0.000 N 
BRANCH  16  18
ATOM     17  C   UNL     1      -5.608  12.334  20.117  0.00  0.00    +0.000 C 
ATOM     18  C   UNL     1      -4.179  12.693  19.735  0.00  0.00    +0.000 C 
ENDBRANCH  16  18
BRANCH  16  19
ATOM     19  C   UNL     1      -3.965  12.617  22.230  0.00  0.00    +0.000 C 
ATOM     20  C   UNL     1      -3.084  12.237  23.405  0.00  0.00    +0.000 C 
ENDBRANCH  16  19
ENDBRANCH   1  16
BRANCH   8  21
ATOM     21  C   UNL     1      -0.578  11.041  20.379  0.00  0.00    +0.000 C 
BRANCH  21  22
ATOM     22  C   UNL     1       0.468  10.155  21.012  0.00  0.00    +0.000 C 
ATOM     23  O   UNL     1       0.770  10.280  22.199  0.00  0.00    +0.000 OA
ATOM     24  N   UNL     1       0.960   9.127  20.203  0.00  0.00    +0.000 N 
ATOM     25  C   UNL     1       1.825   8.142  20.860  0.00  0.00    +0.000 C 
ATOM     26  C   UNL     1       2.037   6.885  19.999  0.00  0.00    +0.000 C 
ATOM     27  N   UNL     1       2.579   7.317  18.697  0.00  0.00    +0.000 N 
ATOM     28  C   UNL     1       1.614   8.142  17.949  0.00  0.00    +0.000 C 
ATOM     29  C   UNL     1       1.270   9.398  18.785  0.00  0.00    +0.000 C 
BRANCH  27  30
ATOM     30  C   UNL     1       3.415   6.464  17.979  0.00  0.00    +0.000 A 
ATOM     31  C   UNL     1       4.607   6.951  17.398  0.00  0.00    +0.000 A 
ATOM     32  C   UNL     1       5.435   6.153  16.601  0.00  0.00    +0.000 A 
ATOM     33  C   UNL     1       5.099   4.830  16.364  0.00  0.00    +0.000 A 
ATOM     34  C   UNL     1       3.953   4.303  16.950  0.00  0.00    +0.000 A 
ATOM     35  C   UNL     1       3.113   5.100  17.746  0.00  0.00    +0.000 A 
BRANCH  35  36
ATOM     36  O   UNL     1       2.060   4.386  18.263  0.00  0.00    +0.000 OA
ATOM     37  C   UNL     1       2.389   3.255  19.054  0.00  0.00    +0.000 C 
ENDBRANCH  35  36
ENDBRANCH  27  30
ENDBRANCH  21  22
ENDBRANCH   8  21
TORSDOF 8
ENDMDL
MODEL 6
REMARK VINA RESULT:      -6.9      1.601      5.532
REMARK  Name = 
REMARK  11 active torsions:
REMARK  status: ('A' for Active; 'I' for Inactive)
REMARK    1  A    between atoms: C_1  and  C_2
REMARK    2  A    between atoms: C_2  and  N_3
REMARK    3  A    between atoms: N_3  and  C_4
REMARK    4  A    between atoms: N_3  and  C_6
REMARK    5  A    between atoms: C_4  and  C_5
REMARK    6  A    between atoms: C_11  and  C_12
REMARK    7  A    between atoms: N_19  and  C_20
REMARK    8  A    between atoms: C_20  and  C_21
REMARK    9  A    between atoms: N_26  and  C_27
REMARK   10  A    between atoms: C_32  and  O_33
REMARK   11  A    between atoms: O_33  and  C_34
REMARK                            x       y       z     vdW  Elec       q    Type
REMARK                         _______ _______ _______ _____ _____    ______ ____
ROOT
ATOM      1  C   UNL     1      -1.066  13.718  22.498  0.00  0.00    +0.000 A 
ATOM      2  N   UNL     1      -1.159  14.844  23.246  0.00  0.00    +0.000 NA
ATOM      3  C   UNL     1      -0.147  15.721  23.259  0.00  0.00    +0.000 A 
ATOM      4  N   UNL     1       1.005  15.637  22.601  0.00  0.00    +0.000 NA
ATOM      5  C   UNL     1       1.131  14.511  21.862  0.00  0.00    +0.000 A 
ATOM      6  C   UNL     1       2.218  14.131  21.016  0.00  0.00    +0.000 A 
ATOM      7  C   UNL     1       1.884  12.896  20.493  0.00  0.00    +0.000 A 
ATOM      8  N   UNL     1       0.637  12.541  20.958  0.00  0.00    +0.000 N 
ATOM      9  C   UNL     1       0.140  13.527  21.797  0.00  0.00    +0.000 A 
ENDROOT
BRANCH   6  10
ATOM     10  C   UNL     1       3.469  14.826  20.719  0.00  0.00    +0.000 A 
ATOM     11  C   UNL     1       3.575  15.669  19.604  0.00  0.00    +0.000 A 
ATOM     12  C   UNL     1       4.778  16.318  19.308  0.00  0.00    +0.000 A 
ATOM     13  C   UNL     1       5.892  16.128  20.122  0.00  0.00    +0.000 A 
ATOM     14  C   UNL     1       5.806  15.292  21.233  0.00  0.00    +0.000 A 
ATOM     15  C   UNL     1       4.603  14.644  21.526  0.00  0.00    +0.000 A 
ENDBRANCH   6  10
BRANCH   1  16
ATOM     16  N   UNL     1      -2.207  12.904  22.359  0.00  0.00    +0.000 N 
BRANCH  16  18
ATOM     17  C   UNL     1      -3.243  12.755  20.108  0.00  0.00    +0.000 C 
ATOM     18  C   UNL     1      -3.187  13.513  21.427  0.00  0.00    +0.000 C 
ENDBRANCH  16  18
BRANCH  16  19
ATOM     19  C   UNL     1      -2.760  12.414  23.638  0.00  0.00    +0.000 C 
ATOM     20  C   UNL     1      -4.263  12.540  23.797  0.00  0.00    +0.000 C 
ENDBRANCH  16  19
ENDBRANCH   1  16
BRANCH   8  21
ATOM     21  C   UNL     1       0.016  11.244  20.723  0.00  0.00    +0.000 C 
BRANCH  21  22
ATOM     22  C   UNL     1       0.105  10.675  19.327  0.00  0.00    +0.000 C 
ATOM     23  O   UNL     1      -0.498  11.198  18.390  0.00  0.00    +0.000 OA
ATOM     24  N   UNL     1       1.003   9.617  19.162  0.00  0.00    +0.000 N 
ATOM     25  C   UNL     1       1.248   9.184  17.783  0.00  0.00    +0.000 C 
ATOM     26  C   UNL     1       2.478   8.267  17.669  0.00  0.00    +0.000 C 
ATOM     27  N   UNL     1       2.275   7.125  18.580  0.00  0.00    +0.000 N 
ATOM     28  C   UNL     1       2.236   7.550  19.990  0.00  0.00    +0.000 C 
ATOM     29  C   UNL     1       1.073   8.552  20.183  0.00  0.00    +0.000 C 
BRANCH  27  30
ATOM     30  C   UNL     1       2.844   5.889  18.277  0.00  0.00    +0.000 A 
ATOM     31  C   UNL     1       4.006   5.812  17.479  0.00  0.00    +0.000 A 
ATOM     32  C   UNL     1       4.565   4.593  17.081  0.00  0.00    +0.000 A 
ATOM     33  C   UNL     1       3.979   3.401  17.479  0.00  0.00    +0.000 A 
ATOM     34  C   UNL     1       2.854   3.436  18.297  0.00  0.00    +0.000 A 
ATOM     35  C   UNL     1       2.284   4.658  18.695  0.00  0.00    +0.000 A 
BRANCH  35  36
ATOM     36  O   UNL     1       1.209   4.478  19.531  0.00  0.00    +0.000 OA
ATOM     37  C   UNL     1       1.014   3.169  20.041  0.00  0.00    +0.000 C 
ENDBRANCH  35  36
ENDBRANCH  27  30
ENDBRANCH  21  22
ENDBRANCH   8  21
TORSDOF 8
ENDMDL
MODEL 7
REMARK VINA RESULT:      -6.8      1.225      2.148
REMARK  Name = 
REMARK  11 active torsions:
REMARK  status: ('A' for Active; 'I' for Inactive)
REMARK    1  A    between atoms: C_1  and  C_2
REMARK    2  A    between atoms: C_2  and  N_3
REMARK    3  A    between atoms: N_3  and  C_4
REMARK    4  A    between atoms: N_3  and  C_6
REMARK    5  A    between atoms: C_4  and  C_5
REMARK    6  A    between atoms: C_11  and  C_12
REMARK    7  A    between atoms: N_19  and  C_20
REMARK    8  A    between atoms: C_20  and  C_21
REMARK    9  A    between atoms: N_26  and  C_27
REMARK   10  A    between atoms: C_32  and  O_33
REMARK   11  A    between atoms: O_33  and  C_34
REMARK                            x       y       z     vdW  Elec       q    Type
REMARK                         _______ _______ _______ _____ _____    ______ ____
ROOT
ATOM      1  C   UNL     1       0.072  14.778  20.243  0.00  0.00    +0.000 A 
ATOM      2  N   UNL     1      -0.281  16.054  20.532  0.00  0.00    +0.000 NA
ATOM      3  C   UNL     1      -1.510  16.316  20.995  0.00  0.00    +0.000 A 
ATOM      4  N   UNL     1      -2.491  15.449  21.224  0.00  0.00    +0.000 NA
ATOM      5  C   UNL     1      -2.170  14.170  20.924  0.00  0.00    +0.000 A 
ATOM      6  C   UNL     1      -2.974  13.000  21.085  0.00  0.00    +0.000 A 
ATOM      7  C   UNL     1      -2.211  11.943  20.625  0.00  0.00    +0.000 A 
ATOM      8  N   UNL     1      -0.981  12.422  20.234  0.00  0.00    +0.000 N 
ATOM      9  C   UNL     1      -0.921  13.796  20.420  0.00  0.00    +0.000 A 
ENDROOT
BRANCH   6  10
ATOM     10  C   UNL     1      -4.335  12.854  21.598  0.00  0.00    +0.000 A 
ATOM     11  C   UNL     1      -5.395  12.527  20.741  0.00  0.00    +0.000 A 
ATOM     12  C   UNL     1      -6.700  12.407  21.229  0.00  0.00    +0.000 A 
ATOM     13  C   UNL     1      -6.962  12.616  22.580  0.00  0.00    +0.000 A 
ATOM     14  C   UNL     1      -5.922  12.944  23.446  0.00  0.00    +0.000 A 
ATOM     15  C   UNL     1      -4.618  13.064  22.957  0.00  0.00    +0.000 A 
ENDBRANCH   6  10
BRANCH   1  16
ATOM     16  N   UNL     1       1.418  14.505  19.932  0.00  0.00    +0.000 N 
BRANCH  16  18
ATOM     17  C   UNL     1       2.906  14.859  21.887  0.00  0.00    +0.000 C 
ATOM     18  C   UNL     1       2.328  15.458  20.613  0.00  0.00    +0.000 C 
ENDBRANCH  16  18
BRANCH  16  19
ATOM     19  C   UNL     1       1.675  14.291  18.493  0.00  0.00    +0.000 C 
ATOM     20  C   UNL     1       2.875  13.426  18.159  0.00  0.00    +0.000 C 
ENDBRANCH  16  19
ENDBRANCH   1  16
BRANCH   8  21
ATOM     21  C   UNL     1       0.037  11.617  19.573  0.00  0.00    +0.000 C 
BRANCH  21  22
ATOM     22  C   UNL     1       0.797  10.626  20.421  0.00  0.00    +0.000 C 
ATOM     23  O   UNL     1       0.954  10.815  21.627  0.00  0.00    +0.000 OA
ATOM     24  N   UNL     1       1.184   9.449  19.775  0.00  0.00    +0.000 N 
ATOM     25  C   UNL     1       1.745   8.396  20.628  0.00  0.00    +0.000 C 
ATOM     26  C   UNL     1       1.824   7.040  19.905  0.00  0.00    +0.000 C 
ATOM     27  N   UNL     1       2.609   7.231  18.672  0.00  0.00    +0.000 N 
ATOM     28  C   UNL     1       1.932   8.137  17.727  0.00  0.00    +0.000 C 
ATOM     29  C   UNL     1       1.729   9.513  18.404  0.00  0.00    +0.000 C 
BRANCH  27  30
ATOM     30  C   UNL     1       3.353   6.172  18.155  0.00  0.00    +0.000 A 
ATOM     31  C   UNL     1       4.734   6.323  17.903  0.00  0.00    +0.000 A 
ATOM     32  C   UNL     1       5.504   5.317  17.309  0.00  0.00    +0.000 A 
ATOM     33  C   UNL     1       4.914   4.115  16.952  0.00  0.00    +0.000 A 
ATOM     34  C   UNL     1       3.564   3.915  17.219  0.00  0.00    +0.000 A 
ATOM     35  C   UNL     1       2.783   4.923  17.809  0.00  0.00    +0.000 A 
BRANCH  35  36
ATOM     36  O   UNL     1       1.490   4.516  18.026  0.00  0.00    +0.000 OA
ATOM     37  C   UNL     1       1.315   3.202  18.533  0.00  0.00    +0.000 C 
ENDBRANCH  35  36
ENDBRANCH  27  30
ENDBRANCH  21  22
ENDBRANCH   8  21
TORSDOF 8
ENDMDL
MODEL 8
REMARK VINA RESULT:      -6.7      1.861      5.523
REMARK  Name = 
REMARK  11 active torsions:
REMARK  status: ('A' for Active; 'I' for Inactive)
REMARK    1  A    between atoms: C_1  and  C_2
REMARK    2  A    between atoms: C_2  and  N_3
REMARK    3  A    between atoms: N_3  and  C_4
REMARK    4  A    between atoms: N_3  and  C_6
REMARK    5  A    between atoms: C_4  and  C_5
REMARK    6  A    between atoms: C_11  and  C_12
REMARK    7  A    between atoms: N_19  and  C_20
REMARK    8  A    between atoms: C_20  and  C_21
REMARK    9  A    between atoms: N_26  and  C_27
REMARK   10  A    between atoms: C_32  and  O_33
REMARK   11  A    between atoms: O_33  and  C_34
REMARK                            x       y       z     vdW  Elec       q    Type
REMARK                         _______ _______ _______ _____ _____    ______ ____
ROOT
ATOM      1  C   UNL     1      -0.690  13.319  22.175  0.00  0.00    +0.000 A 
ATOM      2  N   UNL     1      -0.981  14.456  22.854  0.00  0.00    +0.000 NA
ATOM      3  C   UNL     1      -0.164  15.512  22.767  0.00  0.00    +0.000 A 
ATOM      4  N   UNL     1       0.962  15.609  22.065  0.00  0.00    +0.000 NA
ATOM      5  C   UNL     1       1.285  14.481  21.395  0.00  0.00    +0.000 A 
ATOM      6  C   UNL     1       2.399  14.262  20.527  0.00  0.00    +0.000 A 
ATOM      7  C   UNL     1       2.301  12.952  20.098  0.00  0.00    +0.000 A 
ATOM      8  N   UNL     1       1.164  12.393  20.639  0.00  0.00    +0.000 N 
ATOM      9  C   UNL     1       0.508  13.320  21.435  0.00  0.00    +0.000 A 
ENDROOT
BRANCH   6  10
ATOM     10  C   UNL     1       3.479  15.165  20.132  0.00  0.00    +0.000 A 
ATOM     11  C   UNL     1       3.374  15.944  18.970  0.00  0.00    +0.000 A 
ATOM     12  C   UNL     1       4.415  16.793  18.581  0.00  0.00    +0.000 A 
ATOM     13  C   UNL     1       5.575  16.871  19.347  0.00  0.00    +0.000 A 
ATOM     14  C   UNL     1       5.698  16.103  20.502  0.00  0.00    +0.000 A 
ATOM     15  C   UNL     1       4.657  15.255  20.889  0.00  0.00    +0.000 A 
ENDBRANCH   6  10
BRANCH   1  16
ATOM     16  N   UNL     1      -1.651  12.291  22.138  0.00  0.00    +0.000 N 
BRANCH  16  18
ATOM     17  C   UNL     1      -3.015  12.911  20.159  0.00  0.00    +0.000 C 
ATOM     18  C   UNL     1      -2.964  12.802  21.677  0.00  0.00    +0.000 C 
ENDBRANCH  16  18
BRANCH  16  19
ATOM     19  C   UNL     1      -1.683  11.448  23.352  0.00  0.00    +0.000 C 
ATOM     20  C   UNL     1      -0.824  10.200  23.311  0.00  0.00    +0.000 C 
ENDBRANCH  16  19
ENDBRANCH   1  16
BRANCH   8  21
ATOM     21  C   UNL     1       0.806  10.986  20.514  0.00  0.00    +0.000 C 
BRANCH  21  22
ATOM     22  C   UNL     1       0.888  10.369  19.139  0.00  0.00    +0.000 C 
ATOM     23  O   UNL     1       0.442  10.956  18.153  0.00  0.00    +0.000 OA
ATOM     24  N   UNL     1       1.606   9.173  19.055  0.00  0.00    +0.000 N 
ATOM     25  C   UNL     1       1.864   8.665  17.704  0.00  0.00    +0.000 C 
ATOM     26  C   UNL     1       2.929   7.555  17.691  0.00  0.00    +0.000 C 
ATOM     27  N   UNL     1       2.482   6.490  18.607  0.00  0.00    +0.000 N 
ATOM     28  C   UNL     1       2.424   6.957  20.004  0.00  0.00    +0.000 C 
ATOM     29  C   UNL     1       1.434   8.142  20.098  0.00  0.00    +0.000 C 
BRANCH  27  30
ATOM     30  C   UNL     1       2.856   5.169  18.368  0.00  0.00    +0.000 A 
ATOM     31  C   UNL     1       3.894   4.873  17.457  0.00  0.00    +0.000 A 
ATOM     32  C   UNL     1       4.248   3.562  17.122  0.00  0.00    +0.000 A 
ATOM     33  C   UNL     1       3.576   2.495  17.699  0.00  0.00    +0.000 A 
ATOM     34  C   UNL     1       2.574   2.747  18.630  0.00  0.00    +0.000 A 
ATOM     35  C   UNL     1       2.208   4.061  18.965  0.00  0.00    +0.000 A 
BRANCH  35  36
ATOM     36  O   UNL     1       1.231   4.096  19.929  0.00  0.00    +0.000 OA
ATOM     37  C   UNL     1       1.226   3.031  20.866  0.00  0.00    +0.000 C 
ENDBRANCH  35  36
ENDBRANCH  27  30
ENDBRANCH  21  22
ENDBRANCH   8  21
TORSDOF 8
ENDMDL
MODEL 9
REMARK VINA RESULT:      -6.7      1.601      5.466
REMARK  Name = 
REMARK  11 active torsions:
REMARK  status: ('A' for Active; 'I' for Inactive)
REMARK    1  A    between atoms: C_1  and  C_2
REMARK    2  A    between atoms: C_2  and  N_3
REMARK    3  A    between atoms: N_3  and  C_4
REMARK    4  A    between atoms: N_3  and  C_6
REMARK    5  A    between atoms: C_4  and  C_5
REMARK    6  A    between atoms: C_11  and  C_12
REMARK    7  A    between atoms: N_19  and  C_20
REMARK    8  A    between atoms: C_20  and  C_21
REMARK    9  A    between atoms: N_26  and  C_27
REMARK   10  A    between atoms: C_32  and  O_33
REMARK   11  A    between atoms: O_33  and  C_34
REMARK                            x       y       z     vdW  Elec       q    Type
REMARK                         _______ _______ _______ _____ _____    ______ ____
ROOT
ATOM      1  C   UNL     1      -0.677  13.368  21.972  0.00  0.00    +0.000 A 
ATOM      2  N   UNL     1      -0.783  14.443  22.790  0.00  0.00    +0.000 NA
ATOM      3  C   UNL     1       0.147  15.406  22.749  0.00  0.00    +0.000 A 
ATOM      4  N   UNL     1       1.223  15.459  21.971  0.00  0.00    +0.000 NA
ATOM      5  C   UNL     1       1.362  14.386  21.159  0.00  0.00    +0.000 A 
ATOM      6  C   UNL     1       2.379  14.148  20.184  0.00  0.00    +0.000 A 
ATOM      7  C   UNL     1       2.095  12.915  19.627  0.00  0.00    +0.000 A 
ATOM      8  N   UNL     1       0.941  12.426  20.197  0.00  0.00    +0.000 N 
ATOM      9  C   UNL     1       0.457  13.322  21.140  0.00  0.00    +0.000 A 
ENDROOT
BRANCH   6  10
ATOM     10  C   UNL     1       3.528  14.965  19.799  0.00  0.00    +0.000 A 
ATOM     11  C   UNL     1       4.702  14.960  20.565  0.00  0.00    +0.000 A 
ATOM     12  C   UNL     1       5.794  15.757  20.208  0.00  0.00    +0.000 A 
ATOM     13  C   UNL     1       5.724  16.574  19.082  0.00  0.00    +0.000 A 
ATOM     14  C   UNL     1       4.565  16.593  18.310  0.00  0.00    +0.000 A 
ATOM     15  C   UNL     1       3.474  15.796  18.669  0.00  0.00    +0.000 A 
ENDBRANCH   6  10
BRANCH   1  16
ATOM     16  N   UNL     1      -1.754  12.463  21.905  0.00  0.00    +0.000 N 
BRANCH  16  18
ATOM     17  C   UNL     1      -3.008  12.316  19.768  0.00  0.00    +0.000 C 
ATOM     18  C   UNL     1      -2.874  13.023  21.110  0.00  0.00    +0.000 C 
ENDBRANCH  16  18
BRANCH  16  19
ATOM     19  C   UNL     1      -2.128  11.870  23.206  0.00  0.00    +0.000 C 
ATOM     20  C   UNL     1      -3.488  12.268  23.745  0.00  0.00    +0.000 C 
ENDBRANCH  16  19
ENDBRANCH   1  16
BRANCH   8  21
ATOM     21  C   UNL     1       0.410  11.092  19.953  0.00  0.00    +0.000 C 
BRANCH  21  22
ATOM     22  C   UNL     1       1.063   9.942  20.681  0.00  0.00    +0.000 C 
ATOM     23  O   UNL     1       1.194   9.958  21.904  0.00  0.00    +0.000 OA
ATOM     24  N   UNL     1       1.382   8.832  19.893  0.00  0.00    +0.000 N 
ATOM     25  C   UNL     1       1.833   7.636  20.612  0.00  0.00    +0.000 C 
ATOM     26  C   UNL     1       1.833   6.384  19.718  0.00  0.00    +0.000 C 
ATOM     27  N   UNL     1       2.672   6.671  18.540  0.00  0.00    +0.000 N 
ATOM     28  C   UNL     1       2.098   7.742  17.707  0.00  0.00    +0.000 C 
ATOM     29  C   UNL     1       1.976   9.030  18.556  0.00  0.00    +0.000 C 
BRANCH  27  30
ATOM     30  C   UNL     1       3.351   5.633  17.905  0.00  0.00    +0.000 A 
ATOM     31  C   UNL     1       2.862   4.310  17.972  0.00  0.00    +0.000 A 
ATOM     32  C   UNL     1       3.552   3.225  17.421  0.00  0.00    +0.000 A 
ATOM     33  C   UNL     1       4.760   3.430  16.773  0.00  0.00    +0.000 A 
ATOM     34  C   UNL     1       5.255   4.724  16.654  0.00  0.00    +0.000 A 
ATOM     35  C   UNL     1       4.571   5.818  17.210  0.00  0.00    +0.000 A 
BRANCH  35  36
ATOM     36  O   UNL     1       5.201   7.010  16.949  0.00  0.00    +0.000 OA
ATOM     37  C   UNL     1       6.517   7.158  17.459  0.00  0.00    +0.000 C 
ENDBRANCH  35  36
ENDBRANCH  27  30
ENDBRANCH  21  22
ENDBRANCH   8  21
TORSDOF 8
ENDMDL
