MODEL 1
REMARK VINA RESULT:      -8.2      0.000      0.000
REMARK  Name = 
REMARK  5 active torsions:
REMARK  status: ('A' for Active; 'I' for Inactive)
REMARK    1  A    between atoms: C_1  and  N_2
REMARK    2  A    between atoms: C_4  and  C_5
REMARK    3  A    between atoms: N_7  and  C_8
REMARK    4  A    between atoms: C_8  and  C_9
REMARK    5  A    between atoms: C_13  and  C_14
REMARK                            x       y       z     vdW  Elec       q    Type
REMARK                         _______ _______ _______ _____ _____    ______ ____
ROOT
ATOM      1  C   UNL     1       6.874   4.942  16.624  0.00  0.00    +0.000 C 
ATOM      2  O   UNL     1       7.950   4.502  17.015  0.00  0.00    +0.000 OA
ATOM      3  N   UNL     1       5.832   5.289  17.458  0.00  0.00    +0.000 N 
ATOM      4  H   UNL     1       5.049   5.787  17.048  0.00  0.00    +0.000 HD
ENDROOT
BRANCH   1   8
ATOM      5  C   UNL     1       5.721   3.231  12.057  0.00  0.00    +0.000 C 
ATOM      6  N   UNL     1       6.435   3.812  13.168  0.00  0.00    +0.000 N 
ATOM      7  C   UNL     1       5.992   3.722  14.549  0.00  0.00    +0.000 C 
ATOM      8  C   UNL     1       6.507   5.028  15.140  0.00  0.00    +0.000 C 
ATOM      9  N   UNL     1       7.598   5.399  14.250  0.00  0.00    +0.000 N 
ATOM     10  C   UNL     1       7.380   4.815  13.012  0.00  0.00    +0.000 C 
ATOM     11  O   UNL     1       7.888   5.202  11.977  0.00  0.00    +0.000 OA
ATOM     12  H   UNL     1       7.995   6.326  14.222  0.00  0.00    +0.000 HD
ENDBRANCH   1   8
BRANCH   3  13
ATOM     13  C   UNL     1       5.812   5.025  18.873  0.00  0.00    +0.000 C 
BRANCH  13  14
ATOM     14  C   UNL     1       4.381   5.001  19.370  0.00  0.00    +0.000 A 
ATOM     15  C   UNL     1       3.670   6.217  19.390  0.00  0.00    +0.000 A 
ATOM     16  C   UNL     1       2.362   6.270  19.858  0.00  0.00    +0.000 A 
ATOM     17  C   UNL     1       1.739   5.113  20.316  0.00  0.00    +0.000 A 
ATOM     18  C   UNL     1       2.419   3.885  20.322  0.00  0.00    +0.000 A 
ATOM     19  C   UNL     1       3.749   3.836  19.863  0.00  0.00    +0.000 A 
ATOM     20 CL   UNL     1       4.635   2.349  19.926  0.00  0.00    +0.000 Cl
BRANCH  18  21
ATOM     21  C   UNL     1       1.701   2.648  20.810  0.00  0.00    +0.000 C 
ATOM     22  F   UNL     1       0.404   2.891  21.163  0.00  0.00    +0.000 F 
ATOM     23  F   UNL     1       1.637   1.666  19.869  0.00  0.00    +0.000 F 
ATOM     24  F   UNL     1       2.272   2.093  21.913  0.00  0.00    +0.000 F 
ENDBRANCH  18  21
ENDBRANCH  13  14
ENDBRANCH   3  13
TORSDOF 4
ENDMDL
MODEL 2
REMARK VINA RESULT:      -7.5      1.409      2.090
REMARK  Name = 
REMARK  5 active torsions:
REMARK  status: ('A' for Active; 'I' for Inactive)
REMARK    1  A    between atoms: C_1  and  N_2
REMARK    2  A    between atoms: C_4  and  C_5
REMARK    3  A    between atoms: N_7  and  C_8
REMARK    4  A    between atoms: C_8  and  C_9
REMARK    5  A    between atoms: C_13  and  C_14
REMARK                            x       y       z     vdW  Elec       q    Type
REMARK                         _______ _______ _______ _____ _____    ______ ____
ROOT
ATOM      1  C   UNL     1       6.885   5.096  16.827  0.00  0.00    +0.000 C 
ATOM      2  O   UNL     1       7.860   4.486  17.253  0.00  0.00    +0.000 OA
ATOM      3  N   UNL     1       5.941   5.702  17.630  0.00  0.00    +0.000 N 
ATOM      4  H   UNL     1       5.265   6.311  17.181  0.00  0.00    +0.000 HD
ENDROOT
BRANCH   1   8
ATOM      5  C   UNL     1       5.768   3.254  12.302  0.00  0.00    +0.000 C 
ATOM      6  N   UNL     1       6.471   3.872  13.400  0.00  0.00    +0.000 N 
ATOM      7  C   UNL     1       6.025   3.813  14.782  0.00  0.00    +0.000 C 
ATOM      8  C   UNL     1       6.522   5.140  15.340  0.00  0.00    +0.000 C 
ATOM      9  N   UNL     1       7.611   5.501  14.444  0.00  0.00    +0.000 N 
ATOM     10  C   UNL     1       7.404   4.882  13.221  0.00  0.00    +0.000 C 
ATOM     11  O   UNL     1       7.911   5.249  12.177  0.00  0.00    +0.000 OA
ATOM     12  H   UNL     1       7.996   6.432  14.394  0.00  0.00    +0.000 HD
ENDBRANCH   1   8
BRANCH   3  13
ATOM     13  C   UNL     1       5.889   5.555  19.061  0.00  0.00    +0.000 C 
BRANCH  13  14
ATOM     14  C   UNL     1       4.875   4.494  19.431  0.00  0.00    +0.000 A 
ATOM     15  C   UNL     1       5.316   3.158  19.505  0.00  0.00    +0.000 A 
ATOM     16  C   UNL     1       4.431   2.131  19.814  0.00  0.00    +0.000 A 
ATOM     17  C   UNL     1       3.089   2.416  20.052  0.00  0.00    +0.000 A 
ATOM     18  C   UNL     1       2.610   3.734  19.977  0.00  0.00    +0.000 A 
ATOM     19  C   UNL     1       3.505   4.770  19.647  0.00  0.00    +0.000 A 
ATOM     20 CL   UNL     1       2.926   6.394  19.478  0.00  0.00    +0.000 Cl
BRANCH  18  21
ATOM     21  C   UNL     1       1.151   4.004  20.261  0.00  0.00    +0.000 C 
ATOM     22  F   UNL     1       0.606   3.111  21.139  0.00  0.00    +0.000 F 
ATOM     23  F   UNL     1       0.937   5.227  20.818  0.00  0.00    +0.000 F 
ATOM     24  F   UNL     1       0.365   3.938  19.154  0.00  0.00    +0.000 F 
ENDBRANCH  18  21
ENDBRANCH  13  14
ENDBRANCH   3  13
TORSDOF 4
ENDMDL
MODEL 3
REMARK VINA RESULT:      -7.4      1.941      2.352
REMARK  Name = 
REMARK  5 active torsions:
REMARK  status: ('A' for Active; 'I' for Inactive)
REMARK    1  A    between atoms: C_1  and  N_2
REMARK    2  A    between atoms: C_4  and  C_5
REMARK    3  A    between atoms: N_7  and  C_8
REMARK    4  A    between atoms: C_8  and  C_9
REMARK    5  A    between atoms: C_13  and  C_14
REMARK                            x       y       z     vdW  Elec       q    Type
REMARK                         _______ _______ _______ _____ _____    ______ ____
ROOT
ATOM      1  C   UNL     1       6.510   4.558  14.466  0.00  0.00    +0.000 C 
ATOM      2  O   UNL     1       7.550   5.130  14.772  0.00  0.00    +0.000 OA
ATOM      3  N   UNL     1       5.570   4.122  15.377  0.00  0.00    +0.000 N 
ATOM      4  H   UNL     1       4.677   3.805  15.016  0.00  0.00    +0.000 HD
ENDROOT
BRANCH   1   8
ATOM      5  C   UNL     1       3.651   3.054  10.634  0.00  0.00    +0.000 C 
ATOM      6  N   UNL     1       4.609   3.067  11.714  0.00  0.00    +0.000 N 
ATOM      7  C   UNL     1       4.705   4.133  12.696  0.00  0.00    +0.000 C 
ATOM      8  C   UNL     1       6.191   4.133  13.030  0.00  0.00    +0.000 C 
ATOM      9  N   UNL     1       6.622   2.790  12.668  0.00  0.00    +0.000 N 
ATOM     10  C   UNL     1       5.756   2.288  11.710  0.00  0.00    +0.000 C 
ATOM     11  O   UNL     1       6.031   1.373  10.956  0.00  0.00    +0.000 OA
ATOM     12  H   UNL     1       7.591   2.538  12.546  0.00  0.00    +0.000 HD
ENDBRANCH   1   8
BRANCH   3  13
ATOM     13  C   UNL     1       5.768   4.133  16.804  0.00  0.00    +0.000 C 
BRANCH  13  14
ATOM     14  C   UNL     1       4.508   4.615  17.492  0.00  0.00    +0.000 A 
ATOM     15  C   UNL     1       4.311   6.005  17.607  0.00  0.00    +0.000 A 
ATOM     16  C   UNL     1       3.188   6.515  18.250  0.00  0.00    +0.000 A 
ATOM     17  C   UNL     1       2.242   5.649  18.791  0.00  0.00    +0.000 A 
ATOM     18  C   UNL     1       2.409   4.257  18.706  0.00  0.00    +0.000 A 
ATOM     19  C   UNL     1       3.556   3.743  18.069  0.00  0.00    +0.000 A 
ATOM     20 CL   UNL     1       3.822   2.033  18.012  0.00  0.00    +0.000 Cl
BRANCH  18  21
ATOM     21  C   UNL     1       1.351   3.351  19.290  0.00  0.00    +0.000 C 
ATOM     22  F   UNL     1       0.421   4.027  20.027  0.00  0.00    +0.000 F 
ATOM     23  F   UNL     1       0.638   2.688  18.339  0.00  0.00    +0.000 F 
ATOM     24  F   UNL     1       1.853   2.407  20.129  0.00  0.00    +0.000 F 
ENDBRANCH  18  21
ENDBRANCH  13  14
ENDBRANCH   3  13
TORSDOF 4
ENDMDL
MODEL 4
REMARK VINA RESULT:      -7.4      1.565      2.073
REMARK  Name = 
REMARK  5 active torsions:
REMARK  status: ('A' for Active; 'I' for Inactive)
REMARK    1  A    between atoms: C_1  and  N_2
REMARK    2  A    between atoms: C_4  and  C_5
REMARK    3  A    between atoms: N_7  and  C_8
REMARK    4  A    between atoms: C_8  and  C_9
REMARK    5  A    between atoms: C_13  and  C_14
REMARK                            x       y       z     vdW  Elec       q    Type
REMARK                         _______ _______ _______ _____ _____    ______ ____
ROOT
ATOM      1  C   UNL     1       6.673   5.213  16.637  0.00  0.00    +0.000 C 
ATOM      2  O   UNL     1       7.661   4.683  17.132  0.00  0.00    +0.000 OA
ATOM      3  N   UNL     1       5.648   5.775  17.369  0.00  0.00    +0.000 N 
ATOM      4  H   UNL     1       4.958   6.324  16.866  0.00  0.00    +0.000 HD
ENDROOT
BRANCH   1   8
ATOM      5  C   UNL     1       5.745   3.170  12.156  0.00  0.00    +0.000 C 
ATOM      6  N   UNL     1       6.406   3.826  13.258  0.00  0.00    +0.000 N 
ATOM      7  C   UNL     1       5.887   3.848  14.614  0.00  0.00    +0.000 C 
ATOM      8  C   UNL     1       6.389   5.189  15.132  0.00  0.00    +0.000 C 
ATOM      9  N   UNL     1       7.532   5.478  14.278  0.00  0.00    +0.000 N 
ATOM     10  C   UNL     1       7.374   4.803  13.079  0.00  0.00    +0.000 C 
ATOM     11  O   UNL     1       7.944   5.105  12.047  0.00  0.00    +0.000 OA
ATOM     12  H   UNL     1       7.945   6.396  14.203  0.00  0.00    +0.000 HD
ENDBRANCH   1   8
BRANCH   3  13
ATOM     13  C   UNL     1       5.528   5.666  18.800  0.00  0.00    +0.000 C 
BRANCH  13  14
ATOM     14  C   UNL     1       4.619   4.506  19.150  0.00  0.00    +0.000 A 
ATOM     15  C   UNL     1       5.219   3.300  19.563  0.00  0.00    +0.000 A 
ATOM     16  C   UNL     1       4.443   2.189  19.875  0.00  0.00    +0.000 A 
ATOM     17  C   UNL     1       3.056   2.258  19.779  0.00  0.00    +0.000 A 
ATOM     18  C   UNL     1       2.423   3.440  19.361  0.00  0.00    +0.000 A 
ATOM     19  C   UNL     1       3.211   4.558  19.029  0.00  0.00    +0.000 A 
ATOM     20 CL   UNL     1       2.460   6.005  18.442  0.00  0.00    +0.000 Cl
BRANCH  18  21
ATOM     21  C   UNL     1       0.914   3.480  19.287  0.00  0.00    +0.000 C 
ATOM     22  F   UNL     1       0.452   3.899  18.072  0.00  0.00    +0.000 F 
ATOM     23  F   UNL     1       0.341   2.262  19.486  0.00  0.00    +0.000 F 
ATOM     24  F   UNL     1       0.353   4.326  20.192  0.00  0.00    +0.000 F 
ENDBRANCH  18  21
ENDBRANCH  13  14
ENDBRANCH   3  13
TORSDOF 4
ENDMDL
MODEL 5
REMARK VINA RESULT:      -7.4      1.362      1.921
REMARK  Name = 
REMARK  5 active torsions:
REMARK  status: ('A' for Active; 'I' for Inactive)
REMARK    1  A    between atoms: C_1  and  N_2
REMARK    2  A    between atoms: C_4  and  C_5
REMARK    3  A    between atoms: N_7  and  C_8
REMARK    4  A    between atoms: C_8  and  C_9
REMARK    5  A    between atoms: C_13  and  C_14
REMARK                            x       y       z     vdW  Elec       q    Type
REMARK                         _______ _______ _______ _____ _____    ______ ____
ROOT
ATOM      1  C   UNL     1       6.717   4.925  16.654  0.00  0.00    +0.000 C 
ATOM      2  O   UNL     1       7.734   4.443  17.141  0.00  0.00    +0.000 OA
ATOM      3  N   UNL     1       5.599   5.271  17.382  0.00  0.00    +0.000 N 
ATOM      4  H   UNL     1       4.877   5.805  16.910  0.00  0.00    +0.000 HD
ENDROOT
BRANCH   1   8
ATOM      5  C   UNL     1       6.151   3.408  11.911  0.00  0.00    +0.000 C 
ATOM      6  N   UNL     1       6.712   3.957  13.122  0.00  0.00    +0.000 N 
ATOM      7  C   UNL     1       6.122   3.783  14.437  0.00  0.00    +0.000 C 
ATOM      8  C   UNL     1       6.516   5.074  15.142  0.00  0.00    +0.000 C 
ATOM      9  N   UNL     1       7.684   5.526  14.400  0.00  0.00    +0.000 N 
ATOM     10  C   UNL     1       7.630   4.997  13.121  0.00  0.00    +0.000 C 
ATOM     11  O   UNL     1       8.235   5.453  12.168  0.00  0.00    +0.000 OA
ATOM     12  H   UNL     1       8.045   6.466  14.461  0.00  0.00    +0.000 HD
ENDBRANCH   1   8
BRANCH   3  13
ATOM     13  C   UNL     1       5.419   4.958  18.776  0.00  0.00    +0.000 C 
BRANCH  13  14
ATOM     14  C   UNL     1       4.336   3.911  18.931  0.00  0.00    +0.000 A 
ATOM     15  C   UNL     1       4.522   2.671  18.290  0.00  0.00    +0.000 A 
ATOM     16  C   UNL     1       3.555   1.675  18.369  0.00  0.00    +0.000 A 
ATOM     17  C   UNL     1       2.384   1.898  19.087  0.00  0.00    +0.000 A 
ATOM     18  C   UNL     1       2.157   3.125  19.730  0.00  0.00    +0.000 A 
ATOM     19  C   UNL     1       3.130   4.138  19.634  0.00  0.00    +0.000 A 
ATOM     20 CL   UNL     1       2.845   5.686  20.357  0.00  0.00    +0.000 Cl
BRANCH  18  21
ATOM     21  C   UNL     1       0.881   3.321  20.515  0.00  0.00    +0.000 C 
ATOM     22  F   UNL     1       0.415   4.603  20.460  0.00  0.00    +0.000 F 
ATOM     23  F   UNL     1      -0.144   2.549  20.061  0.00  0.00    +0.000 F 
ATOM     24  F   UNL     1       1.015   3.048  21.840  0.00  0.00    +0.000 F 
ENDBRANCH  18  21
ENDBRANCH  13  14
ENDBRANCH   3  13
TORSDOF 4
ENDMDL
MODEL 6
REMARK VINA RESULT:      -7.3      4.891      7.780
REMARK  Name = 
REMARK  5 active torsions:
REMARK  status: ('A' for Active; 'I' for Inactive)
REMARK    1  A    between atoms: C_1  and  N_2
REMARK    2  A    between atoms: C_4  and  C_5
REMARK    3  A    between atoms: N_7  and  C_8
REMARK    4  A    between atoms: C_8  and  C_9
REMARK    5  A    between atoms: C_13  and  C_14
REMARK                            x       y       z     vdW  Elec       q    Type
REMARK                         _______ _______ _______ _____ _____    ______ ____
ROOT
ATOM      1  C   UNL     1       1.576   8.939  19.252  0.00  0.00    +0.000 C 
ATOM      2  O   UNL     1       1.751   9.802  18.400  0.00  0.00    +0.000 OA
ATOM      3  N   UNL     1       2.116   7.671  19.191  0.00  0.00    +0.000 N 
ATOM      4  H   UNL     1       2.042   7.088  20.018  0.00  0.00    +0.000 HD
ENDROOT
BRANCH   1   8
ATOM      5  C   UNL     1      -1.262  11.447  22.534  0.00  0.00    +0.000 C 
ATOM      6  N   UNL     1      -0.191  10.678  21.948  0.00  0.00    +0.000 N 
ATOM      7  C   UNL     1      -0.005  10.511  20.517  0.00  0.00    +0.000 C 
ATOM      8  C   UNL     1       0.615   9.122  20.430  0.00  0.00    +0.000 C 
ATOM      9  N   UNL     1       1.201   8.928  21.748  0.00  0.00    +0.000 N 
ATOM     10  C   UNL     1       0.527   9.727  22.657  0.00  0.00    +0.000 C 
ATOM     11  O   UNL     1       0.524   9.538  23.860  0.00  0.00    +0.000 OA
ATOM     12  H   UNL     1       1.483   8.024  22.097  0.00  0.00    +0.000 HD
ENDBRANCH   1   8
BRANCH   3  13
ATOM     13  C   UNL     1       2.813   7.149  18.044  0.00  0.00    +0.000 C 
BRANCH  13  14
ATOM     14  C   UNL     1       3.486   5.841  18.405  0.00  0.00    +0.000 A 
ATOM     15  C   UNL     1       4.809   5.892  18.887  0.00  0.00    +0.000 A 
ATOM     16  C   UNL     1       5.494   4.727  19.213  0.00  0.00    +0.000 A 
ATOM     17  C   UNL     1       4.875   3.489  19.063  0.00  0.00    +0.000 A 
ATOM     18  C   UNL     1       3.561   3.398  18.575  0.00  0.00    +0.000 A 
ATOM     19  C   UNL     1       2.875   4.578  18.229  0.00  0.00    +0.000 A 
ATOM     20 CL   UNL     1       1.281   4.489  17.559  0.00  0.00    +0.000 Cl
BRANCH  18  21
ATOM     21  C   UNL     1       2.918   2.037  18.444  0.00  0.00    +0.000 C 
ATOM     22  F   UNL     1       1.890   1.848  19.323  0.00  0.00    +0.000 F 
ATOM     23  F   UNL     1       2.378   1.822  17.213  0.00  0.00    +0.000 F 
ATOM     24  F   UNL     1       3.778   1.009  18.677  0.00  0.00    +0.000 F 
ENDBRANCH  18  21
ENDBRANCH  13  14
ENDBRANCH   3  13
TORSDOF 4
ENDMDL
MODEL 7
REMARK VINA RESULT:      -7.3      1.040      1.252
REMARK  Name = 
REMARK  5 active torsions:
REMARK  status: ('A' for Active; 'I' for Inactive)
REMARK    1  A    between atoms: C_1  and  N_2
REMARK    2  A    between atoms: C_4  and  C_5
REMARK    3  A    between atoms: N_7  and  C_8
REMARK    4  A    between atoms: C_8  and  C_9
REMARK    5  A    between atoms: C_13  and  C_14
REMARK                            x       y       z     vdW  Elec       q    Type
REMARK                         _______ _______ _______ _____ _____    ______ ____
ROOT
ATOM      1  C   UNL     1       5.748   4.254  16.644  0.00  0.00    +0.000 C 
ATOM      2  O   UNL     1       4.982   3.317  16.838  0.00  0.00    +0.000 OA
ATOM      3  N   UNL     1       6.333   4.997  17.648  0.00  0.00    +0.000 N 
ATOM      4  H   UNL     1       7.069   5.643  17.387  0.00  0.00    +0.000 HD
ENDROOT
BRANCH   1   8
ATOM      5  C   UNL     1       6.870   4.072  11.763  0.00  0.00    +0.000 C 
ATOM      6  N   UNL     1       6.965   4.264  13.190  0.00  0.00    +0.000 N 
ATOM      7  C   UNL     1       5.991   3.758  14.141  0.00  0.00    +0.000 C 
ATOM      8  C   UNL     1       6.042   4.805  15.245  0.00  0.00    +0.000 C 
ATOM      9  N   UNL     1       7.355   5.413  15.079  0.00  0.00    +0.000 N 
ATOM     10  C   UNL     1       7.758   5.247  13.764  0.00  0.00    +0.000 C 
ATOM     11  O   UNL     1       8.608   5.927  13.221  0.00  0.00    +0.000 OA
ATOM     12  H   UNL     1       7.610   6.294  15.498  0.00  0.00    +0.000 HD
ENDBRANCH   1   8
BRANCH   3  13
ATOM     13  C   UNL     1       5.991   4.874  19.042  0.00  0.00    +0.000 C 
BRANCH  13  14
ATOM     14  C   UNL     1       4.488   4.944  19.208  0.00  0.00    +0.000 A 
ATOM     15  C   UNL     1       3.850   6.168  18.928  0.00  0.00    +0.000 A 
ATOM     16  C   UNL     1       2.475   6.308  19.084  0.00  0.00    +0.000 A 
ATOM     17  C   UNL     1       1.711   5.231  19.526  0.00  0.00    +0.000 A 
ATOM     18  C   UNL     1       2.313   3.998  19.825  0.00  0.00    +0.000 A 
ATOM     19  C   UNL     1       3.707   3.864  19.682  0.00  0.00    +0.000 A 
ATOM     20 CL   UNL     1       4.484   2.377  20.113  0.00  0.00    +0.000 Cl
BRANCH  18  21
ATOM     21  C   UNL     1       1.446   2.848  20.283  0.00  0.00    +0.000 C 
ATOM     22  F   UNL     1       1.666   2.504  21.587  0.00  0.00    +0.000 F 
ATOM     23  F   UNL     1       0.116   3.124  20.207  0.00  0.00    +0.000 F 
ATOM     24  F   UNL     1       1.649   1.705  19.575  0.00  0.00    +0.000 F 
ENDBRANCH  18  21
ENDBRANCH  13  14
ENDBRANCH   3  13
TORSDOF 4
ENDMDL
MODEL 8
REMARK VINA RESULT:      -7.3      3.118      3.863
REMARK  Name = 
REMARK  5 active torsions:
REMARK  status: ('A' for Active; 'I' for Inactive)
REMARK    1  A    between atoms: C_1  and  N_2
REMARK    2  A    between atoms: C_4  and  C_5
REMARK    3  A    between atoms: N_7  and  C_8
REMARK    4  A    between atoms: C_8  and  C_9
REMARK    5  A    between atoms: C_13  and  C_14
REMARK                            x       y       z     vdW  Elec       q    Type
REMARK                         _______ _______ _______ _____ _____    ______ ____
ROOT
ATOM      1  C   UNL     1       4.869   4.687  16.613  0.00  0.00    +0.000 C 
ATOM      2  O   UNL     1       4.899   3.551  17.072  0.00  0.00    +0.000 OA
ATOM      3  N   UNL     1       4.232   5.750  17.218  0.00  0.00    +0.000 N 
ATOM      4  H   UNL     1       4.399   6.676  16.840  0.00  0.00    +0.000 HD
ENDROOT
BRANCH   1   8
ATOM      5  C   UNL     1       6.760   3.809  12.055  0.00  0.00    +0.000 C 
ATOM      6  N   UNL     1       6.633   4.183  13.443  0.00  0.00    +0.000 N 
ATOM      7  C   UNL     1       5.483   3.855  14.267  0.00  0.00    +0.000 C 
ATOM      8  C   UNL     1       5.426   5.035  15.229  0.00  0.00    +0.000 C 
ATOM      9  N   UNL     1       6.788   5.551  15.217  0.00  0.00    +0.000 N 
ATOM     10  C   UNL     1       7.388   5.193  14.021  0.00  0.00    +0.000 C 
ATOM     11  O   UNL     1       8.362   5.754  13.553  0.00  0.00    +0.000 OA
ATOM     12  H   UNL     1       7.032   6.466  15.564  0.00  0.00    +0.000 HD
ENDBRANCH   1   8
BRANCH   3  13
ATOM     13  C   UNL     1       3.383   5.625  18.375  0.00  0.00    +0.000 C 
BRANCH  13  14
ATOM     14  C   UNL     1       2.676   6.939  18.636  0.00  0.00    +0.000 A 
ATOM     15  C   UNL     1       2.793   7.954  17.666  0.00  0.00    +0.000 A 
ATOM     16  C   UNL     1       2.190   9.193  17.855  0.00  0.00    +0.000 A 
ATOM     17  C   UNL     1       1.462   9.443  19.015  0.00  0.00    +0.000 A 
ATOM     18  C   UNL     1       1.332   8.460  20.008  0.00  0.00    +0.000 A 
ATOM     19  C   UNL     1       1.958   7.212  19.823  0.00  0.00    +0.000 A 
ATOM     20 CL   UNL     1       1.873   6.007  21.064  0.00  0.00    +0.000 Cl
BRANCH  18  21
ATOM     21  C   UNL     1       0.517   8.765  21.244  0.00  0.00    +0.000 C 
ATOM     22  F   UNL     1      -0.492   7.868  21.449  0.00  0.00    +0.000 F 
ATOM     23  F   UNL     1       1.257   8.737  22.386  0.00  0.00    +0.000 F 
ATOM     24  F   UNL     1      -0.090   9.981  21.202  0.00  0.00    +0.000 F 
ENDBRANCH  18  21
ENDBRANCH  13  14
ENDBRANCH   3  13
TORSDOF 4
ENDMDL
MODEL 9
REMARK VINA RESULT:      -7.2      4.539      6.039
REMARK  Name = 
REMARK  5 active torsions:
REMARK  status: ('A' for Active; 'I' for Inactive)
REMARK    1  A    between atoms: C_1  and  N_2
REMARK    2  A    between atoms: C_4  and  C_5
REMARK    3  A    between atoms: N_7  and  C_8
REMARK    4  A    between atoms: C_8  and  C_9
REMARK    5  A    between atoms: C_13  and  C_14
REMARK                            x       y       z     vdW  Elec       q    Type
REMARK                         _______ _______ _______ _____ _____    ______ ____
ROOT
ATOM      1  C   UNL     1       3.091   4.238  19.685  0.00  0.00    +0.000 C 
ATOM      2  O   UNL     1       2.105   3.525  19.837  0.00  0.00    +0.000 OA
ATOM      3  N   UNL     1       3.167   5.551  20.098  0.00  0.00    +0.000 N 
ATOM      4  H   UNL     1       4.076   6.001  20.068  0.00  0.00    +0.000 HD
ENDROOT
BRANCH   1   8
ATOM      5  C   UNL     1       7.645   4.635  17.631  0.00  0.00    +0.000 C 
ATOM      6  N   UNL     1       6.213   4.566  17.800  0.00  0.00    +0.000 N 
ATOM      7  C   UNL     1       5.545   4.671  19.085  0.00  0.00    +0.000 C 
ATOM      8  C   UNL     1       4.318   3.791  18.885  0.00  0.00    +0.000 C 
ATOM      9  N   UNL     1       4.145   3.769  17.440  0.00  0.00    +0.000 N 
ATOM     10  C   UNL     1       5.369   4.024  16.842  0.00  0.00    +0.000 C 
ATOM     11  O   UNL     1       5.641   3.728  15.693  0.00  0.00    +0.000 OA
ATOM     12  H   UNL     1       3.569   3.091  16.965  0.00  0.00    +0.000 HD
ENDBRANCH   1   8
BRANCH   3  13
ATOM     13  C   UNL     1       2.048   6.300  20.609  0.00  0.00    +0.000 C 
BRANCH  13  14
ATOM     14  C   UNL     1       1.851   7.554  19.782  0.00  0.00    +0.000 A 
ATOM     15  C   UNL     1       2.388   7.575  18.480  0.00  0.00    +0.000 A 
ATOM     16  C   UNL     1       2.265   8.704  17.677  0.00  0.00    +0.000 A 
ATOM     17  C   UNL     1       1.607   9.833  18.159  0.00  0.00    +0.000 A 
ATOM     18  C   UNL     1       1.068   9.852  19.455  0.00  0.00    +0.000 A 
ATOM     19  C   UNL     1       1.209   8.714  20.272  0.00  0.00    +0.000 A 
ATOM     20 CL   UNL     1       0.617   8.737  21.900  0.00  0.00    +0.000 Cl
BRANCH  18  21
ATOM     21  C   UNL     1       0.345  11.090  19.933  0.00  0.00    +0.000 C 
ATOM     22  F   UNL     1       0.941  11.668  21.018  0.00  0.00    +0.000 F 
ATOM     23  F   UNL     1       0.292  12.070  18.991  0.00  0.00    +0.000 F 
ATOM     24  F   UNL     1      -0.937  10.850  20.318  0.00  0.00    +0.000 F 
ENDBRANCH  18  21
ENDBRANCH  13  14
ENDBRANCH   3  13
TORSDOF 4
ENDMDL
