MODEL 1
REMARK VINA RESULT:      -6.7      0.000      0.000
REMARK  Name = 
REMARK  8 active torsions:
REMARK  status: ('A' for Active; 'I' for Inactive)
REMARK    1  A    between atoms: C_1  and  C_2
REMARK    2  A    between atoms: C_2  and  C_3
REMARK    3  A    between atoms: C_3  and  C_4
REMARK    4  A    between atoms: C_4  and  O_5
REMARK    5  A    between atoms: N_11  and  C_12
REMARK    6  A    between atoms: C_12  and  C_13
REMARK    7  A    between atoms: C_16  and  C_17
REMARK    8  A    between atoms: C_16  and  C_18
REMARK                            x       y       z     vdW  Elec       q    Type
REMARK                         _______ _______ _______ _____ _____    ______ ____
ROOT
ATOM      1  C   UNL     1       3.853   5.351  18.128  0.00  0.00    +0.000 C 
ATOM      2  C   UNL     1       4.114   6.688  17.385  0.00  0.00    +0.000 C 
ATOM      3  C   UNL     1       5.528   6.803  16.832  0.00  0.00    +0.000 C 
ATOM      4  N   UNL     1       6.514   6.595  17.893  0.00  0.00    +0.000 N 
ATOM      5  C   UNL     1       7.628   7.384  18.133  0.00  0.00    +0.000 C 
ATOM      6  O   UNL     1       8.549   7.043  18.872  0.00  0.00    +0.000 OA
ATOM      7  N   UNL     1       7.624   8.590  17.487  0.00  0.00    +0.000 N 
ATOM      8  C   UNL     1       6.405   5.307  18.571  0.00  0.00    +0.000 C 
ATOM      9  C   UNL     1       5.003   5.127  19.160  0.00  0.00    +0.000 C 
ATOM     10  H   UNL     1       6.715   8.998  17.335  0.00  0.00    +0.000 HD
ENDROOT
BRANCH   1  12
ATOM     11  C   UNL     1       2.676   3.132  17.361  0.00  0.00    +0.000 C 
ATOM     12  C   UNL     1       3.814   4.130  17.156  0.00  0.00    +0.000 C 
ENDBRANCH   1  12
BRANCH   1  13
ATOM     13  C   UNL     1       2.494   5.441  18.875  0.00  0.00    +0.000 C 
BRANCH  13  14
ATOM     14  O   UNL     1       2.639   5.826  20.237  0.00  0.00    +0.000 OA
ATOM     15  H   UNL     1       3.573   6.046  20.391  0.00  0.00    +0.000 HD
ENDBRANCH  13  14
ENDBRANCH   1  13
BRANCH   7  16
ATOM     16  C   UNL     1       8.717   9.537  17.609  0.00  0.00    +0.000 C 
BRANCH  16  17
ATOM     17  C   UNL     1       8.407  10.683  18.592  0.00  0.00    +0.000 C 
ATOM     18  C   UNL     1       8.445  12.039  17.870  0.00  0.00    +0.000 C 
ATOM     19  C   UNL     1       9.864  12.445  17.457  0.00  0.00    +0.000 C 
ATOM     20  C   UNL     1      10.872  12.441  18.630  0.00  0.00    +0.000 C 
ATOM     21  C   UNL     1      10.606  13.647  19.553  0.00  0.00    +0.000 C 
ATOM     22  C   UNL     1      12.299  12.581  18.065  0.00  0.00    +0.000 C 
ATOM     23  C   UNL     1      10.784  11.121  19.429  0.00  0.00    +0.000 C 
ATOM     24  C   UNL     1       9.357  10.718  19.802  0.00  0.00    +0.000 C 
ENDBRANCH  16  17
ENDBRANCH   7  16
TORSDOF 5
ENDMDL
MODEL 2
REMARK VINA RESULT:      -6.7      5.229      8.278
REMARK  Name = 
REMARK  8 active torsions:
REMARK  status: ('A' for Active; 'I' for Inactive)
REMARK    1  A    between atoms: C_1  and  C_2
REMARK    2  A    between atoms: C_2  and  C_3
REMARK    3  A    between atoms: C_3  and  C_4
REMARK    4  A    between atoms: C_4  and  O_5
REMARK    5  A    between atoms: N_11  and  C_12
REMARK    6  A    between atoms: C_12  and  C_13
REMARK    7  A    between atoms: C_16  and  C_17
REMARK    8  A    between atoms: C_16  and  C_18
REMARK                            x       y       z     vdW  Elec       q    Type
REMARK                         _______ _______ _______ _____ _____    ______ ____
ROOT
ATOM      1  C   UNL     1       6.518   4.582  14.379  0.00  0.00    +0.000 C 
ATOM      2  C   UNL     1       5.246   5.386  14.760  0.00  0.00    +0.000 C 
ATOM      3  C   UNL     1       5.407   6.195  16.041  0.00  0.00    +0.000 C 
ATOM      4  N   UNL     1       5.828   5.332  17.144  0.00  0.00    +0.000 N 
ATOM      5  C   UNL     1       5.283   5.317  18.419  0.00  0.00    +0.000 C 
ATOM      6  O   UNL     1       5.815   4.756  19.373  0.00  0.00    +0.000 OA
ATOM      7  N   UNL     1       4.089   5.975  18.537  0.00  0.00    +0.000 N 
ATOM      8  C   UNL     1       7.080   4.620  16.907  0.00  0.00    +0.000 C 
ATOM      9  C   UNL     1       6.986   3.778  15.631  0.00  0.00    +0.000 C 
ATOM     10  H   UNL     1       3.504   5.964  17.716  0.00  0.00    +0.000 HD
ENDROOT
BRANCH   1  12
ATOM     11  C   UNL     1       7.995   5.520  12.421  0.00  0.00    +0.000 C 
ATOM     12  C   UNL     1       7.688   5.506  13.916  0.00  0.00    +0.000 C 
ENDBRANCH   1  12
BRANCH   1  13
ATOM     13  C   UNL     1       6.171   3.599  13.228  0.00  0.00    +0.000 C 
BRANCH  13  14
ATOM     14  O   UNL     1       4.865   3.806  12.703  0.00  0.00    +0.000 OA
ATOM     15  H   UNL     1       4.798   4.731  12.413  0.00  0.00    +0.000 HD
ENDBRANCH  13  14
ENDBRANCH   1  13
BRANCH   7  16
ATOM     16  C   UNL     1       3.383   6.076  19.800  0.00  0.00    +0.000 C 
BRANCH  16  17
ATOM     17  C   UNL     1       1.947   5.521  19.728  0.00  0.00    +0.000 C 
ATOM     18  C   UNL     1       1.765   4.364  20.722  0.00  0.00    +0.000 C 
ATOM     19  C   UNL     1       2.537   3.106  20.308  0.00  0.00    +0.000 C 
ATOM     20  C   UNL     1       2.209   2.628  18.874  0.00  0.00    +0.000 C 
ATOM     21  C   UNL     1       0.806   1.992  18.840  0.00  0.00    +0.000 C 
ATOM     22  C   UNL     1       3.230   1.550  18.460  0.00  0.00    +0.000 C 
ATOM     23  C   UNL     1       2.295   3.800  17.869  0.00  0.00    +0.000 C 
ATOM     24  C   UNL     1       1.546   5.055  18.318  0.00  0.00    +0.000 C 
ENDBRANCH  16  17
ENDBRANCH   7  16
TORSDOF 5
ENDMDL
MODEL 3
REMARK VINA RESULT:      -6.7      6.514      7.580
REMARK  Name = 
REMARK  8 active torsions:
REMARK  status: ('A' for Active; 'I' for Inactive)
REMARK    1  A    between atoms: C_1  and  C_2
REMARK    2  A    between atoms: C_2  and  C_3
REMARK    3  A    between atoms: C_3  and  C_4
REMARK    4  A    between atoms: C_4  and  O_5
REMARK    5  A    between atoms: N_11  and  C_12
REMARK    6  A    between atoms: C_12  and  C_13
REMARK    7  A    between atoms: C_16  and  C_17
REMARK    8  A    between atoms: C_16  and  C_18
REMARK                            x       y       z     vdW  Elec       q    Type
REMARK                         _______ _______ _______ _____ _____    ______ ____
ROOT
ATOM      1  C   UNL     1       3.040   3.111  20.024  0.00  0.00    +0.000 C 
ATOM      2  C   UNL     1       2.302   3.841  21.178  0.00  0.00    +0.000 C 
ATOM      3  C   UNL     1       1.351   4.927  20.692  0.00  0.00    +0.000 C 
ATOM      4  N   UNL     1       2.056   5.882  19.838  0.00  0.00    +0.000 N 
ATOM      5  C   UNL     1       1.976   7.264  19.925  0.00  0.00    +0.000 C 
ATOM      6  O   UNL     1       2.389   8.019  19.049  0.00  0.00    +0.000 OA
ATOM      7  N   UNL     1       1.406   7.732  21.078  0.00  0.00    +0.000 N 
ATOM      8  C   UNL     1       2.688   5.287  18.665  0.00  0.00    +0.000 C 
ATOM      9  C   UNL     1       3.666   4.186  19.082  0.00  0.00    +0.000 C 
ATOM     10  H   UNL     1       1.550   7.161  21.896  0.00  0.00    +0.000 HD
ENDROOT
BRANCH   1  12
ATOM     11  C   UNL     1       2.455   2.002  17.717  0.00  0.00    +0.000 C 
ATOM     12  C   UNL     1       2.081   2.211  19.182  0.00  0.00    +0.000 C 
ENDBRANCH   1  12
BRANCH   1  13
ATOM     13  C   UNL     1       4.165   2.223  20.622  0.00  0.00    +0.000 C 
BRANCH  13  14
ATOM     14  O   UNL     1       5.281   2.088  19.750  0.00  0.00    +0.000 OA
ATOM     15  H   UNL     1       6.085   2.044  20.293  0.00  0.00    +0.000 HD
ENDBRANCH  13  14
ENDBRANCH   1  13
BRANCH   7  16
ATOM     16  C   UNL     1       1.225   9.148  21.333  0.00  0.00    +0.000 C 
BRANCH  16  17
ATOM     17  C   UNL     1      -0.243   9.596  21.200  0.00  0.00    +0.000 C 
ATOM     18  C   UNL     1      -0.584   9.906  19.735  0.00  0.00    +0.000 C 
ATOM     19  C   UNL     1       0.108  11.175  19.226  0.00  0.00    +0.000 C 
ATOM     20  C   UNL     1      -0.163  12.418  20.106  0.00  0.00    +0.000 C 
ATOM     21  C   UNL     1      -1.608  12.908  19.891  0.00  0.00    +0.000 C 
ATOM     22  C   UNL     1       0.791  13.551  19.679  0.00  0.00    +0.000 C 
ATOM     23  C   UNL     1       0.083  12.101  21.599  0.00  0.00    +0.000 C 
ATOM     24  C   UNL     1      -0.588  10.813  22.076  0.00  0.00    +0.000 C 
ENDBRANCH  16  17
ENDBRANCH   7  16
TORSDOF 5
ENDMDL
MODEL 4
REMARK VINA RESULT:      -6.3      6.528      7.876
REMARK  Name = 
REMARK  8 active torsions:
REMARK  status: ('A' for Active; 'I' for Inactive)
REMARK    1  A    between atoms: C_1  and  C_2
REMARK    2  A    between atoms: C_2  and  C_3
REMARK    3  A    between atoms: C_3  and  C_4
REMARK    4  A    between atoms: C_4  and  O_5
REMARK    5  A    between atoms: N_11  and  C_12
REMARK    6  A    between atoms: C_12  and  C_13
REMARK    7  A    between atoms: C_16  and  C_17
REMARK    8  A    between atoms: C_16  and  C_18
REMARK                            x       y       z     vdW  Elec       q    Type
REMARK                         _______ _______ _______ _____ _____    ______ ____
ROOT
ATOM      1  C   UNL     1       2.280   3.781  18.915  0.00  0.00    +0.000 C 
ATOM      2  C   UNL     1       2.092   4.980  17.947  0.00  0.00    +0.000 C 
ATOM      3  C   UNL     1       2.703   6.274  18.468  0.00  0.00    +0.000 C 
ATOM      4  N   UNL     1       2.182   6.590  19.798  0.00  0.00    +0.000 N 
ATOM      5  C   UNL     1       1.715   7.828  20.215  0.00  0.00    +0.000 C 
ATOM      6  O   UNL     1       1.512   8.109  21.393  0.00  0.00    +0.000 OA
ATOM      7  N   UNL     1       1.484   8.722  19.205  0.00  0.00    +0.000 N 
ATOM      8  C   UNL     1       2.417   5.554  20.798  0.00  0.00    +0.000 C 
ATOM      9  C   UNL     1       1.820   4.220  20.340  0.00  0.00    +0.000 C 
ATOM     10  H   UNL     1       1.194   8.320  18.327  0.00  0.00    +0.000 HD
ENDROOT
BRANCH   1  12
ATOM     11  C   UNL     1       4.122   2.370  20.144  0.00  0.00    +0.000 C 
ATOM     12  C   UNL     1       3.767   3.311  18.996  0.00  0.00    +0.000 C 
ENDBRANCH   1  12
BRANCH   1  13
ATOM     13  C   UNL     1       1.405   2.594  18.428  0.00  0.00    +0.000 C 
BRANCH  13  14
ATOM     14  O   UNL     1       2.059   1.794  17.450  0.00  0.00    +0.000 OA
ATOM     15  H   UNL     1       1.734   0.883  17.536  0.00  0.00    +0.000 HD
ENDBRANCH  13  14
ENDBRANCH   1  13
BRANCH   7  16
ATOM     16  C   UNL     1       1.010  10.069  19.457  0.00  0.00    +0.000 C 
BRANCH  16  17
ATOM     17  C   UNL     1      -0.472  10.112  19.879  0.00  0.00    +0.000 C 
ATOM     18  C   UNL     1      -1.330  10.743  18.772  0.00  0.00    +0.000 C 
ATOM     19  C   UNL     1      -1.075  12.246  18.615  0.00  0.00    +0.000 C 
ATOM     20  C   UNL     1      -1.243  13.039  19.932  0.00  0.00    +0.000 C 
ATOM     21  C   UNL     1      -2.738  13.152  20.289  0.00  0.00    +0.000 C 
ATOM     22  C   UNL     1      -0.694  14.466  19.731  0.00  0.00    +0.000 C 
ATOM     23  C   UNL     1      -0.461  12.367  21.084  0.00  0.00    +0.000 C 
ATOM     24  C   UNL     1      -0.705  10.862  21.201  0.00  0.00    +0.000 C 
ENDBRANCH  16  17
ENDBRANCH   7  16
TORSDOF 5
ENDMDL
MODEL 5
REMARK VINA RESULT:      -6.3      4.315      7.411
REMARK  Name = 
REMARK  8 active torsions:
REMARK  status: ('A' for Active; 'I' for Inactive)
REMARK    1  A    between atoms: C_1  and  C_2
REMARK    2  A    between atoms: C_2  and  C_3
REMARK    3  A    between atoms: C_3  and  C_4
REMARK    4  A    between atoms: C_4  and  O_5
REMARK    5  A    between atoms: N_11  and  C_12
REMARK    6  A    between atoms: C_12  and  C_13
REMARK    7  A    between atoms: C_16  and  C_17
REMARK    8  A    between atoms: C_16  and  C_18
REMARK                            x       y       z     vdW  Elec       q    Type
REMARK                         _______ _______ _______ _____ _____    ______ ____
ROOT
ATOM      1  C   UNL     1       1.016  11.448  18.789  0.00  0.00    +0.000 C 
ATOM      2  C   UNL     1       1.891  10.468  17.962  0.00  0.00    +0.000 C 
ATOM      3  C   UNL     1       1.470   9.012  18.114  0.00  0.00    +0.000 C 
ATOM      4  N   UNL     1       1.447   8.628  19.525  0.00  0.00    +0.000 N 
ATOM      5  C   UNL     1       1.994   7.472  20.062  0.00  0.00    +0.000 C 
ATOM      6  O   UNL     1       1.748   7.075  21.198  0.00  0.00    +0.000 OA
ATOM      7  N   UNL     1       2.847   6.802  19.227  0.00  0.00    +0.000 N 
ATOM      8  C   UNL     1       0.559   9.436  20.354  0.00  0.00    +0.000 C 
ATOM      9  C   UNL     1       0.931  10.918  20.254  0.00  0.00    +0.000 C 
ATOM     10  H   UNL     1       3.366   7.378  18.583  0.00  0.00    +0.000 HD
ENDROOT
BRANCH   1  12
ATOM     11  C   UNL     1      -1.341  12.600  18.891  0.00  0.00    +0.000 C 
ATOM     12  C   UNL     1      -0.433  11.573  18.221  0.00  0.00    +0.000 C 
ENDBRANCH   1  12
BRANCH   1  13
ATOM     13  C   UNL     1       1.680  12.852  18.780  0.00  0.00    +0.000 C 
BRANCH  13  14
ATOM     14  O   UNL     1       2.341  13.140  17.553  0.00  0.00    +0.000 OA
ATOM     15  H   UNL     1       3.104  12.544  17.473  0.00  0.00    +0.000 HD
ENDBRANCH  13  14
ENDBRANCH   1  13
BRANCH   7  16
ATOM     16  C   UNL     1       3.497   5.565  19.615  0.00  0.00    +0.000 C 
BRANCH  16  17
ATOM     17  C   UNL     1       3.983   4.741  18.407  0.00  0.00    +0.000 C 
ATOM     18  C   UNL     1       5.355   4.115  18.697  0.00  0.00    +0.000 C 
ATOM     19  C   UNL     1       6.477   5.157  18.750  0.00  0.00    +0.000 C 
ATOM     20  C   UNL     1       6.556   6.043  17.485  0.00  0.00    +0.000 C 
ATOM     21  C   UNL     1       7.130   5.227  16.309  0.00  0.00    +0.000 C 
ATOM     22  C   UNL     1       7.510   7.221  17.756  0.00  0.00    +0.000 C 
ATOM     23  C   UNL     1       5.164   6.608  17.120  0.00  0.00    +0.000 C 
ATOM     24  C   UNL     1       4.054   5.556  17.105  0.00  0.00    +0.000 C 
ENDBRANCH  16  17
ENDBRANCH   7  16
TORSDOF 5
ENDMDL
MODEL 6
REMARK VINA RESULT:      -6.3      6.265      9.535
REMARK  Name = 
REMARK  8 active torsions:
REMARK  status: ('A' for Active; 'I' for Inactive)
REMARK    1  A    between atoms: C_1  and  C_2
REMARK    2  A    between atoms: C_2  and  C_3
REMARK    3  A    between atoms: C_3  and  C_4
REMARK    4  A    between atoms: C_4  and  O_5
REMARK    5  A    between atoms: N_11  and  C_12
REMARK    6  A    between atoms: C_12  and  C_13
REMARK    7  A    between atoms: C_16  and  C_17
REMARK    8  A    between atoms: C_16  and  C_18
REMARK                            x       y       z     vdW  Elec       q    Type
REMARK                         _______ _______ _______ _____ _____    ______ ____
ROOT
ATOM      1  C   UNL     1      -0.953  12.071  20.150  0.00  0.00    +0.000 C 
ATOM      2  C   UNL     1      -0.700  10.655  20.735  0.00  0.00    +0.000 C 
ATOM      3  C   UNL     1       0.735  10.178  20.555  0.00  0.00    +0.000 C 
ATOM      4  N   UNL     1       1.125  10.238  19.146  0.00  0.00    +0.000 N 
ATOM      5  C   UNL     1       1.772   9.236  18.438  0.00  0.00    +0.000 C 
ATOM      6  O   UNL     1       2.288   9.415  17.339  0.00  0.00    +0.000 OA
ATOM      7  N   UNL     1       1.785   8.016  19.058  0.00  0.00    +0.000 N 
ATOM      8  C   UNL     1       1.019  11.565  18.549  0.00  0.00    +0.000 C 
ATOM      9  C   UNL     1      -0.406  12.106  18.689  0.00  0.00    +0.000 C 
ATOM     10  H   UNL     1       0.986   7.815  19.640  0.00  0.00    +0.000 HD
ENDROOT
BRANCH   1  12
ATOM     11  C   UNL     1      -0.634  13.310  22.444  0.00  0.00    +0.000 C 
ATOM     12  C   UNL     1      -0.239  13.189  20.974  0.00  0.00    +0.000 C 
ENDBRANCH   1  12
BRANCH   1  13
ATOM     13  C   UNL     1      -2.480  12.352  20.142  0.00  0.00    +0.000 C 
BRANCH  13  14
ATOM     14  O   UNL     1      -3.033  12.345  18.831  0.00  0.00    +0.000 OA
ATOM     15  H   UNL     1      -2.322  12.546  18.201  0.00  0.00    +0.000 HD
ENDBRANCH  13  14
ENDBRANCH   1  13
BRANCH   7  16
ATOM     16  C   UNL     1       2.431   6.858  18.472  0.00  0.00    +0.000 C 
BRANCH  16  17
ATOM     17  C   UNL     1       3.160   5.988  19.515  0.00  0.00    +0.000 C 
ATOM     18  C   UNL     1       3.814   4.772  18.843  0.00  0.00    +0.000 C 
ATOM     19  C   UNL     1       2.785   3.750  18.347  0.00  0.00    +0.000 C 
ATOM     20  C   UNL     1       1.803   3.283  19.446  0.00  0.00    +0.000 C 
ATOM     21  C   UNL     1       2.525   2.340  20.428  0.00  0.00    +0.000 C 
ATOM     22  C   UNL     1       0.654   2.493  18.788  0.00  0.00    +0.000 C 
ATOM     23  C   UNL     1       1.203   4.491  20.200  0.00  0.00    +0.000 C 
ATOM     24  C   UNL     1       2.244   5.514  20.656  0.00  0.00    +0.000 C 
ENDBRANCH  16  17
ENDBRANCH   7  16
TORSDOF 5
ENDMDL
MODEL 7
REMARK VINA RESULT:      -6.3      5.038      7.690
REMARK  Name = 
REMARK  8 active torsions:
REMARK  status: ('A' for Active; 'I' for Inactive)
REMARK    1  A    between atoms: C_1  and  C_2
REMARK    2  A    between atoms: C_2  and  C_3
REMARK    3  A    between atoms: C_3  and  C_4
REMARK    4  A    between atoms: C_4  and  O_5
REMARK    5  A    between atoms: N_11  and  C_12
REMARK    6  A    between atoms: C_12  and  C_13
REMARK    7  A    between atoms: C_16  and  C_17
REMARK    8  A    between atoms: C_16  and  C_18
REMARK                            x       y       z     vdW  Elec       q    Type
REMARK                         _______ _______ _______ _____ _____    ______ ____
ROOT
ATOM      1  C   UNL     1       1.100  11.749  19.526  0.00  0.00    +0.000 C 
ATOM      2  C   UNL     1       1.832  11.058  18.344  0.00  0.00    +0.000 C 
ATOM      3  C   UNL     1       1.350   9.636  18.088  0.00  0.00    +0.000 C 
ATOM      4  N   UNL     1       1.451   8.832  19.306  0.00  0.00    +0.000 N 
ATOM      5  C   UNL     1       1.986   7.556  19.395  0.00  0.00    +0.000 C 
ATOM      6  O   UNL     1       1.836   6.830  20.374  0.00  0.00    +0.000 OA
ATOM      7  N   UNL     1       2.712   7.163  18.303  0.00  0.00    +0.000 N 
ATOM      8  C   UNL     1       0.697   9.359  20.439  0.00  0.00    +0.000 C 
ATOM      9  C   UNL     1       1.137  10.791  20.757  0.00  0.00    +0.000 C 
ATOM     10  H   UNL     1       3.192   7.900  17.813  0.00  0.00    +0.000 HD
ENDROOT
BRANCH   1  12
ATOM     11  C   UNL     1      -1.313  12.336  20.381  0.00  0.00    +0.000 C 
ATOM     12  C   UNL     1      -0.391  12.073  19.193  0.00  0.00    +0.000 C 
ENDBRANCH   1  12
BRANCH   1  13
ATOM     13  C   UNL     1       1.835  13.072  19.874  0.00  0.00    +0.000 C 
BRANCH  13  14
ATOM     14  O   UNL     1       2.343  13.086  21.203  0.00  0.00    +0.000 OA
ATOM     15  H   UNL     1       3.304  13.215  21.158  0.00  0.00    +0.000 HD
ENDBRANCH  13  14
ENDBRANCH   1  13
BRANCH   7  16
ATOM     16  C   UNL     1       3.330   5.854  18.216  0.00  0.00    +0.000 C 
BRANCH  16  17
ATOM     17  C   UNL     1       4.870   5.916  18.257  0.00  0.00    +0.000 C 
ATOM     18  C   UNL     1       5.401   6.854  17.162  0.00  0.00    +0.000 C 
ATOM     19  C   UNL     1       5.215   6.278  15.754  0.00  0.00    +0.000 C 
ATOM     20  C   UNL     1       5.822   4.866  15.581  0.00  0.00    +0.000 C 
ATOM     21  C   UNL     1       7.360   4.959  15.531  0.00  0.00    +0.000 C 
ATOM     22  C   UNL     1       5.338   4.273  14.244  0.00  0.00    +0.000 C 
ATOM     23  C   UNL     1       5.374   3.930  16.727  0.00  0.00    +0.000 C 
ATOM     24  C   UNL     1       5.537   4.537  18.121  0.00  0.00    +0.000 C 
ENDBRANCH  16  17
ENDBRANCH   7  16
TORSDOF 5
ENDMDL
MODEL 8
REMARK VINA RESULT:      -6.3      6.261      7.761
REMARK  Name = 
REMARK  8 active torsions:
REMARK  status: ('A' for Active; 'I' for Inactive)
REMARK    1  A    between atoms: C_1  and  C_2
REMARK    2  A    between atoms: C_2  and  C_3
REMARK    3  A    between atoms: C_3  and  C_4
REMARK    4  A    between atoms: C_4  and  O_5
REMARK    5  A    between atoms: N_11  and  C_12
REMARK    6  A    between atoms: C_12  and  C_13
REMARK    7  A    between atoms: C_16  and  C_17
REMARK    8  A    between atoms: C_16  and  C_18
REMARK                            x       y       z     vdW  Elec       q    Type
REMARK                         _______ _______ _______ _____ _____    ______ ____
ROOT
ATOM      1  C   UNL     1       3.501   3.961  19.082  0.00  0.00    +0.000 C 
ATOM      2  C   UNL     1       2.874   4.388  20.436  0.00  0.00    +0.000 C 
ATOM      3  C   UNL     1       1.721   5.371  20.282  0.00  0.00    +0.000 C 
ATOM      4  N   UNL     1       2.141   6.540  19.510  0.00  0.00    +0.000 N 
ATOM      5  C   UNL     1       1.895   7.864  19.841  0.00  0.00    +0.000 C 
ATOM      6  O   UNL     1       2.053   8.795  19.056  0.00  0.00    +0.000 OA
ATOM      7  N   UNL     1       1.467   8.062  21.125  0.00  0.00    +0.000 N 
ATOM      8  C   UNL     1       2.644   6.231  18.175  0.00  0.00    +0.000 C 
ATOM      9  C   UNL     1       3.815   5.248  18.256  0.00  0.00    +0.000 C 
ATOM     10  H   UNL     1       1.819   7.407  21.806  0.00  0.00    +0.000 HD
ENDROOT
BRANCH   1  12
ATOM     11  C   UNL     1       1.771   1.987  19.013  0.00  0.00    +0.000 C 
ATOM     12  C   UNL     1       2.544   3.055  18.244  0.00  0.00    +0.000 C 
ENDBRANCH   1  12
BRANCH   1  13
ATOM     13  C   UNL     1       4.817   3.183  19.354  0.00  0.00    +0.000 C 
BRANCH  13  14
ATOM     14  O   UNL     1       5.937   3.744  18.679  0.00  0.00    +0.000 OA
ATOM     15  H   UNL     1       6.426   3.021  18.251  0.00  0.00    +0.000 HD
ENDBRANCH  13  14
ENDBRANCH   1  13
BRANCH   7  16
ATOM     16  C   UNL     1       1.145   9.379  21.640  0.00  0.00    +0.000 C 
BRANCH  16  17
ATOM     17  C   UNL     1      -0.370   9.663  21.648  0.00  0.00    +0.000 C 
ATOM     18  C   UNL     1      -0.866   9.989  20.231  0.00  0.00    +0.000 C 
ATOM     19  C   UNL     1      -0.364  11.347  19.730  0.00  0.00    +0.000 C 
ATOM     20  C   UNL     1      -0.692  12.516  20.688  0.00  0.00    +0.000 C 
ATOM     21  C   UNL     1      -2.196  12.848  20.614  0.00  0.00    +0.000 C 
ATOM     22  C   UNL     1       0.092  13.766  20.241  0.00  0.00    +0.000 C 
ATOM     23  C   UNL     1      -0.286  12.171  22.139  0.00  0.00    +0.000 C 
ATOM     24  C   UNL     1      -0.770  10.798  22.606  0.00  0.00    +0.000 C 
ENDBRANCH  16  17
ENDBRANCH   7  16
TORSDOF 5
ENDMDL
MODEL 9
REMARK VINA RESULT:      -6.3      5.022      7.860
REMARK  Name = 
REMARK  8 active torsions:
REMARK  status: ('A' for Active; 'I' for Inactive)
REMARK    1  A    between atoms: C_1  and  C_2
REMARK    2  A    between atoms: C_2  and  C_3
REMARK    3  A    between atoms: C_3  and  C_4
REMARK    4  A    between atoms: C_4  and  O_5
REMARK    5  A    between atoms: N_11  and  C_12
REMARK    6  A    between atoms: C_12  and  C_13
REMARK    7  A    between atoms: C_16  and  C_17
REMARK    8  A    between atoms: C_16  and  C_18
REMARK                            x       y       z     vdW  Elec       q    Type
REMARK                         _______ _______ _______ _____ _____    ______ ____
ROOT
ATOM      1  C   UNL     1       0.137  11.613  20.556  0.00  0.00    +0.000 C 
ATOM      2  C   UNL     1       1.062  11.189  19.384  0.00  0.00    +0.000 C 
ATOM      3  C   UNL     1       0.852   9.746  18.944  0.00  0.00    +0.000 C 
ATOM      4  N   UNL     1       0.998   8.836  20.080  0.00  0.00    +0.000 N 
ATOM      5  C   UNL     1       1.736   7.662  20.091  0.00  0.00    +0.000 C 
ATOM      6  O   UNL     1       1.640   6.814  20.975  0.00  0.00    +0.000 OA
ATOM      7  N   UNL     1       2.597   7.518  19.037  0.00  0.00    +0.000 N 
ATOM      8  C   UNL     1       0.083   9.101  21.185  0.00  0.00    +0.000 C 
ATOM      9  C   UNL     1       0.246  10.540  21.684  0.00  0.00    +0.000 C 
ATOM     10  H   UNL     1       2.979   8.375  18.669  0.00  0.00    +0.000 HD
ENDROOT
BRANCH   1  12
ATOM     11  C   UNL     1      -1.622  12.303  18.732  0.00  0.00    +0.000 C 
ATOM     12  C   UNL     1      -1.358  11.726  20.121  0.00  0.00    +0.000 C 
ENDBRANCH   1  12
BRANCH   1  13
ATOM     13  C   UNL     1       0.606  12.990  21.101  0.00  0.00    +0.000 C 
BRANCH  13  14
ATOM     14  O   UNL     1       2.017  13.059  21.279  0.00  0.00    +0.000 OA
ATOM     15  H   UNL     1       2.209  12.931  22.222  0.00  0.00    +0.000 HD
ENDBRANCH  13  14
ENDBRANCH   1  13
BRANCH   7  16
ATOM     16  C   UNL     1       3.435   6.345  18.877  0.00  0.00    +0.000 C 
BRANCH  16  17
ATOM     17  C   UNL     1       3.595   5.922  17.403  0.00  0.00    +0.000 C 
ATOM     18  C   UNL     1       3.890   4.417  17.303  0.00  0.00    +0.000 C 
ATOM     19  C   UNL     1       5.289   4.058  17.815  0.00  0.00    +0.000 C 
ATOM     20  C   UNL     1       6.420   4.866  17.137  0.00  0.00    +0.000 C 
ATOM     21  C   UNL     1       6.628   4.366  15.694  0.00  0.00    +0.000 C 
ATOM     22  C   UNL     1       7.732   4.639  17.912  0.00  0.00    +0.000 C 
ATOM     23  C   UNL     1       6.097   6.378  17.143  0.00  0.00    +0.000 C 
ATOM     24  C   UNL     1       4.686   6.711  16.660  0.00  0.00    +0.000 C 
ENDBRANCH  16  17
ENDBRANCH   7  16
TORSDOF 5
ENDMDL
