MODEL 1
REMARK VINA RESULT:      -7.6      0.000      0.000
REMARK  Name = 
REMARK  5 active torsions:
REMARK  status: ('A' for Active; 'I' for Inactive)
REMARK    1  A    between atoms: C_1  and  C_2
REMARK    2  A    between atoms: C_2  and  C_3
REMARK    3  A    between atoms: C_3  and  C_4
REMARK    4  A    between atoms: C_3  and  C_12
REMARK    5  A    between atoms: C_3  and  C_16
REMARK                            x       y       z     vdW  Elec       q    Type
REMARK                         _______ _______ _______ _____ _____    ______ ____
ROOT
ATOM      1  C   UNL     1       2.639   3.867  19.065  0.00  0.00    +0.000 C 
ENDROOT
BRANCH   1   2
ATOM      2  C   UNL     1       3.863   4.619  18.584  0.00  0.00    +0.000 C 
ATOM      3  O   UNL     1       3.911   5.009  17.410  0.00  0.00    +0.000 OA
ATOM      4  N   UNL     1       4.904   4.784  19.464  0.00  0.00    +0.000 N 
ATOM      5  C   UNL     1       6.069   5.426  19.141  0.00  0.00    +0.000 A 
ATOM      6  N   UNL     1       6.230   6.249  18.077  0.00  0.00    +0.000 NA
ATOM      7  C   UNL     1       7.487   6.599  18.118  0.00  0.00    +0.000 A 
ATOM      8  N   UNL     1       8.065   5.984  19.189  0.00  0.00    +0.000 N 
ATOM      9  N   UNL     1       7.170   5.266  19.881  0.00  0.00    +0.000 NA
ATOM     10  H   UNL     1       4.997   4.245  20.332  0.00  0.00    +0.000 HD
ATOM     11  H   UNL     1       9.039   6.007  19.486  0.00  0.00    +0.000 HD
ENDBRANCH   1   2
BRANCH   1  12
ATOM     12  C   UNL     1       1.739   3.606  17.888  0.00  0.00    +0.000 C 
ATOM     13  F   UNL     1       1.135   4.738  17.446  0.00  0.00    +0.000 F 
ATOM     14  F   UNL     1       2.361   3.061  16.822  0.00  0.00    +0.000 F 
ATOM     15  F   UNL     1       0.737   2.745  18.201  0.00  0.00    +0.000 F 
ENDBRANCH   1  12
BRANCH   1  16
ATOM     16  C   UNL     1       1.955   4.713  20.119  0.00  0.00    +0.000 C 
ATOM     17  F   UNL     1       2.521   4.581  21.342  0.00  0.00    +0.000 F 
ATOM     18  F   UNL     1       2.032   6.036  19.825  0.00  0.00    +0.000 F 
ATOM     19  F   UNL     1       0.643   4.458  20.282  0.00  0.00    +0.000 F 
ENDBRANCH   1  16
BRANCH   1  21
ATOM     20  C   UNL     1       3.716   1.451  18.856  0.00  0.00    +0.000 C 
ATOM     21  C   UNL     1       3.069   2.516  19.737  0.00  0.00    +0.000 C 
ENDBRANCH   1  21
TORSDOF 4
ENDMDL
MODEL 2
REMARK VINA RESULT:      -7.5      0.128      1.215
REMARK  Name = 
REMARK  5 active torsions:
REMARK  status: ('A' for Active; 'I' for Inactive)
REMARK    1  A    between atoms: C_1  and  C_2
REMARK    2  A    between atoms: C_2  and  C_3
REMARK    3  A    between atoms: C_3  and  C_4
REMARK    4  A    between atoms: C_3  and  C_12
REMARK    5  A    between atoms: C_3  and  C_16
REMARK                            x       y       z     vdW  Elec       q    Type
REMARK                         _______ _______ _______ _____ _____    ______ ____
ROOT
ATOM      1  C   UNL     1       2.613   3.962  19.111  0.00  0.00    +0.000 C 
ENDROOT
BRANCH   1   2
ATOM      2  C   UNL     1       3.852   4.668  18.600  0.00  0.00    +0.000 C 
ATOM      3  O   UNL     1       3.917   4.991  17.406  0.00  0.00    +0.000 OA
ATOM      4  N   UNL     1       4.888   4.867  19.480  0.00  0.00    +0.000 N 
ATOM      5  C   UNL     1       6.066   5.473  19.132  0.00  0.00    +0.000 A 
ATOM      6  N   UNL     1       6.248   6.232  18.025  0.00  0.00    +0.000 NA
ATOM      7  C   UNL     1       7.511   6.565  18.058  0.00  0.00    +0.000 A 
ATOM      8  N   UNL     1       8.070   6.003  19.167  0.00  0.00    +0.000 N 
ATOM      9  N   UNL     1       7.158   5.338  19.890  0.00  0.00    +0.000 NA
ATOM     10  H   UNL     1       4.965   4.376  20.377  0.00  0.00    +0.000 HD
ATOM     11  H   UNL     1       9.041   6.029  19.472  0.00  0.00    +0.000 HD
ENDBRANCH   1   2
BRANCH   1  12
ATOM     12  C   UNL     1       1.711   3.666  17.944  0.00  0.00    +0.000 C 
ATOM     13  F   UNL     1       2.390   3.149  16.890  0.00  0.00    +0.000 F 
ATOM     14  F   UNL     1       0.713   2.799  18.219  0.00  0.00    +0.000 F 
ATOM     15  F   UNL     1       1.099   4.786  17.483  0.00  0.00    +0.000 F 
ENDBRANCH   1  12
BRANCH   1  16
ATOM     16  C   UNL     1       1.943   4.869  20.123  0.00  0.00    +0.000 C 
ATOM     17  F   UNL     1       0.633   4.576  20.298  0.00  0.00    +0.000 F 
ATOM     18  F   UNL     1       2.509   4.752  21.351  0.00  0.00    +0.000 F 
ATOM     19  F   UNL     1       1.998   6.181  19.826  0.00  0.00    +0.000 F 
ENDBRANCH   1  16
BRANCH   1  21
ATOM     20  C   UNL     1       3.891   1.637  19.092  0.00  0.00    +0.000 C 
ATOM     21  C   UNL     1       3.015   2.635  19.845  0.00  0.00    +0.000 C 
ENDBRANCH   1  21
TORSDOF 4
ENDMDL
MODEL 3
REMARK VINA RESULT:      -7.5      1.213      2.395
REMARK  Name = 
REMARK  5 active torsions:
REMARK  status: ('A' for Active; 'I' for Inactive)
REMARK    1  A    between atoms: C_1  and  C_2
REMARK    2  A    between atoms: C_2  and  C_3
REMARK    3  A    between atoms: C_3  and  C_4
REMARK    4  A    between atoms: C_3  and  C_12
REMARK    5  A    between atoms: C_3  and  C_16
REMARK                            x       y       z     vdW  Elec       q    Type
REMARK                         _______ _______ _______ _____ _____    ______ ____
ROOT
ATOM      1  C   UNL     1       2.946   3.658  18.885  0.00  0.00    +0.000 C 
ENDROOT
BRANCH   1   2
ATOM      2  C   UNL     1       4.165   4.447  18.453  0.00  0.00    +0.000 C 
ATOM      3  O   UNL     1       4.303   4.741  17.258  0.00  0.00    +0.000 OA
ATOM      4  N   UNL     1       5.106   4.752  19.405  0.00  0.00    +0.000 N 
ATOM      5  C   UNL     1       6.258   5.439  19.133  0.00  0.00    +0.000 A 
ATOM      6  N   UNL     1       6.472   6.181  18.019  0.00  0.00    +0.000 NA
ATOM      7  C   UNL     1       7.698   6.614  18.143  0.00  0.00    +0.000 A 
ATOM      8  N   UNL     1       8.205   6.129  19.311  0.00  0.00    +0.000 N 
ATOM      9  N   UNL     1       7.291   5.414  19.980  0.00  0.00    +0.000 NA
ATOM     10  H   UNL     1       5.146   4.293  20.321  0.00  0.00    +0.000 HD
ATOM     11  H   UNL     1       9.143   6.241  19.692  0.00  0.00    +0.000 HD
ENDBRANCH   1   2
BRANCH   1  12
ATOM     12  C   UNL     1       3.319   2.203  18.976  0.00  0.00    +0.000 C 
ATOM     13  F   UNL     1       3.966   1.771  17.864  0.00  0.00    +0.000 F 
ATOM     14  F   UNL     1       4.111   1.897  20.025  0.00  0.00    +0.000 F 
ATOM     15  F   UNL     1       2.226   1.409  19.105  0.00  0.00    +0.000 F 
ENDBRANCH   1  12
BRANCH   1  16
ATOM     16  C   UNL     1       1.851   3.895  17.865  0.00  0.00    +0.000 C 
ATOM     17  F   UNL     1       2.139   3.356  16.657  0.00  0.00    +0.000 F 
ATOM     18  F   UNL     1       0.680   3.326  18.247  0.00  0.00    +0.000 F 
ATOM     19  F   UNL     1       1.563   5.191  17.639  0.00  0.00    +0.000 F 
ENDBRANCH   1  16
BRANCH   1  21
ATOM     20  C   UNL     1       1.502   3.279  21.078  0.00  0.00    +0.000 C 
ATOM     21  C   UNL     1       2.433   4.181  20.273  0.00  0.00    +0.000 C 
ENDBRANCH   1  21
TORSDOF 4
ENDMDL
MODEL 4
REMARK VINA RESULT:      -7.4      1.160      1.995
REMARK  Name = 
REMARK  5 active torsions:
REMARK  status: ('A' for Active; 'I' for Inactive)
REMARK    1  A    between atoms: C_1  and  C_2
REMARK    2  A    between atoms: C_2  and  C_3
REMARK    3  A    between atoms: C_3  and  C_4
REMARK    4  A    between atoms: C_3  and  C_12
REMARK    5  A    between atoms: C_3  and  C_16
REMARK                            x       y       z     vdW  Elec       q    Type
REMARK                         _______ _______ _______ _____ _____    ______ ____
ROOT
ATOM      1  C   UNL     1       2.828   3.372  19.253  0.00  0.00    +0.000 C 
ENDROOT
BRANCH   1   2
ATOM      2  C   UNL     1       4.013   4.116  18.673  0.00  0.00    +0.000 C 
ATOM      3  O   UNL     1       4.120   4.221  17.444  0.00  0.00    +0.000 OA
ATOM      4  N   UNL     1       4.962   4.594  19.544  0.00  0.00    +0.000 N 
ATOM      5  C   UNL     1       6.086   5.263  19.140  0.00  0.00    +0.000 A 
ATOM      6  N   UNL     1       6.256   5.824  17.918  0.00  0.00    +0.000 NA
ATOM      7  C   UNL     1       7.470   6.306  17.944  0.00  0.00    +0.000 A 
ATOM      8  N   UNL     1       8.013   6.026  19.162  0.00  0.00    +0.000 N 
ATOM      9  N   UNL     1       7.134   5.400  19.957  0.00  0.00    +0.000 NA
ATOM     10  H   UNL     1       5.033   4.288  20.520  0.00  0.00    +0.000 HD
ATOM     11  H   UNL     1       8.954   6.223  19.499  0.00  0.00    +0.000 HD
ENDBRANCH   1   2
BRANCH   1  12
ATOM     12  C   UNL     1       2.648   2.085  18.495  0.00  0.00    +0.000 C 
ATOM     13  F   UNL     1       3.789   1.353  18.451  0.00  0.00    +0.000 F 
ATOM     14  F   UNL     1       1.690   1.275  18.994  0.00  0.00    +0.000 F 
ATOM     15  F   UNL     1       2.295   2.306  17.203  0.00  0.00    +0.000 F 
ENDBRANCH   1  12
BRANCH   1  16
ATOM     16  C   UNL     1       1.612   4.268  19.136  0.00  0.00    +0.000 C 
ATOM     17  F   UNL     1       1.441   4.754  17.883  0.00  0.00    +0.000 F 
ATOM     18  F   UNL     1       0.467   3.599  19.425  0.00  0.00    +0.000 F 
ATOM     19  F   UNL     1       1.619   5.337  19.955  0.00  0.00    +0.000 F 
ENDBRANCH   1  16
BRANCH   1  21
ATOM     20  C   UNL     1       1.862   2.708  21.633  0.00  0.00    +0.000 C 
ATOM     21  C   UNL     1       3.068   3.083  20.776  0.00  0.00    +0.000 C 
ENDBRANCH   1  21
TORSDOF 4
ENDMDL
MODEL 5
REMARK VINA RESULT:      -7.4      1.037      1.534
REMARK  Name = 
REMARK  5 active torsions:
REMARK  status: ('A' for Active; 'I' for Inactive)
REMARK    1  A    between atoms: C_1  and  C_2
REMARK    2  A    between atoms: C_2  and  C_3
REMARK    3  A    between atoms: C_3  and  C_4
REMARK    4  A    between atoms: C_3  and  C_12
REMARK    5  A    between atoms: C_3  and  C_16
REMARK                            x       y       z     vdW  Elec       q    Type
REMARK                         _______ _______ _______ _____ _____    ______ ____
ROOT
ATOM      1  C   UNL     1       2.911   3.447  19.220  0.00  0.00    +0.000 C 
ENDROOT
BRANCH   1   2
ATOM      2  C   UNL     1       4.110   4.186  18.663  0.00  0.00    +0.000 C 
ATOM      3  O   UNL     1       4.232   4.305  17.436  0.00  0.00    +0.000 OA
ATOM      4  N   UNL     1       5.054   4.644  19.550  0.00  0.00    +0.000 N 
ATOM      5  C   UNL     1       6.189   5.305  19.168  0.00  0.00    +0.000 A 
ATOM      6  N   UNL     1       6.380   5.880  17.955  0.00  0.00    +0.000 NA
ATOM      7  C   UNL     1       7.598   6.349  18.001  0.00  0.00    +0.000 A 
ATOM      8  N   UNL     1       8.124   6.048  19.222  0.00  0.00    +0.000 N 
ATOM      9  N   UNL     1       7.230   5.421  19.998  0.00  0.00    +0.000 NA
ATOM     10  H   UNL     1       5.110   4.324  20.523  0.00  0.00    +0.000 HD
ATOM     11  H   UNL     1       9.063   6.231  19.572  0.00  0.00    +0.000 HD
ENDBRANCH   1   2
BRANCH   1  12
ATOM     12  C   UNL     1       2.560   2.321  18.285  0.00  0.00    +0.000 C 
ATOM     13  F   UNL     1       1.454   1.647  18.688  0.00  0.00    +0.000 F 
ATOM     14  F   UNL     1       2.333   2.707  17.012  0.00  0.00    +0.000 F 
ATOM     15  F   UNL     1       3.554   1.400  18.211  0.00  0.00    +0.000 F 
ENDBRANCH   1  12
BRANCH   1  16
ATOM     16  C   UNL     1       1.774   4.439  19.355  0.00  0.00    +0.000 C 
ATOM     17  F   UNL     1       2.021   5.392  20.285  0.00  0.00    +0.000 F 
ATOM     18  F   UNL     1       1.555   5.111  18.197  0.00  0.00    +0.000 F 
ATOM     19  F   UNL     1       0.587   3.894  19.683  0.00  0.00    +0.000 F 
ENDBRANCH   1  16
BRANCH   1  21
ATOM     20  C   UNL     1       2.072   2.589  21.586  0.00  0.00    +0.000 C 
ATOM     21  C   UNL     1       3.239   2.892  20.650  0.00  0.00    +0.000 C 
ENDBRANCH   1  21
TORSDOF 4
ENDMDL
MODEL 6
REMARK VINA RESULT:      -7.4      1.090      2.563
REMARK  Name = 
REMARK  5 active torsions:
REMARK  status: ('A' for Active; 'I' for Inactive)
REMARK    1  A    between atoms: C_1  and  C_2
REMARK    2  A    between atoms: C_2  and  C_3
REMARK    3  A    between atoms: C_3  and  C_4
REMARK    4  A    between atoms: C_3  and  C_12
REMARK    5  A    between atoms: C_3  and  C_16
REMARK                            x       y       z     vdW  Elec       q    Type
REMARK                         _______ _______ _______ _____ _____    ______ ____
ROOT
ATOM      1  C   UNL     1       2.782   3.804  19.075  0.00  0.00    +0.000 C 
ENDROOT
BRANCH   1   2
ATOM      2  C   UNL     1       4.007   4.550  18.586  0.00  0.00    +0.000 C 
ATOM      3  O   UNL     1       4.092   4.852  17.388  0.00  0.00    +0.000 OA
ATOM      4  N   UNL     1       5.009   4.806  19.489  0.00  0.00    +0.000 N 
ATOM      5  C   UNL     1       6.171   5.451  19.162  0.00  0.00    +0.000 A 
ATOM      6  N   UNL     1       6.355   6.197  18.046  0.00  0.00    +0.000 NA
ATOM      7  C   UNL     1       7.601   6.580  18.107  0.00  0.00    +0.000 A 
ATOM      8  N   UNL     1       8.151   6.062  19.242  0.00  0.00    +0.000 N 
ATOM      9  N   UNL     1       7.245   5.374  19.952  0.00  0.00    +0.000 NA
ATOM     10  H   UNL     1       5.079   4.335  20.397  0.00  0.00    +0.000 HD
ATOM     11  H   UNL     1       9.111   6.132  19.573  0.00  0.00    +0.000 HD
ENDBRANCH   1   2
BRANCH   1  12
ATOM     12  C   UNL     1       3.190   2.410  19.467  0.00  0.00    +0.000 C 
ATOM     13  F   UNL     1       2.147   1.543  19.431  0.00  0.00    +0.000 F 
ATOM     14  F   UNL     1       4.159   1.877  18.694  0.00  0.00    +0.000 F 
ATOM     15  F   UNL     1       3.672   2.363  20.734  0.00  0.00    +0.000 F 
ENDBRANCH   1  12
BRANCH   1  16
ATOM     16  C   UNL     1       1.762   3.798  17.955  0.00  0.00    +0.000 C 
ATOM     17  F   UNL     1       2.148   3.039  16.902  0.00  0.00    +0.000 F 
ATOM     18  F   UNL     1       0.576   3.278  18.362  0.00  0.00    +0.000 F 
ATOM     19  F   UNL     1       1.467   5.013  17.455  0.00  0.00    +0.000 F 
ENDBRANCH   1  16
BRANCH   1  21
ATOM     20  C   UNL     1       2.011   6.073  20.214  0.00  0.00    +0.000 C 
ATOM     21  C   UNL     1       2.150   4.555  20.299  0.00  0.00    +0.000 C 
ENDBRANCH   1  21
TORSDOF 4
ENDMDL
MODEL 7
REMARK VINA RESULT:      -7.3      1.536      1.911
REMARK  Name = 
REMARK  5 active torsions:
REMARK  status: ('A' for Active; 'I' for Inactive)
REMARK    1  A    between atoms: C_1  and  C_2
REMARK    2  A    between atoms: C_2  and  C_3
REMARK    3  A    between atoms: C_3  and  C_4
REMARK    4  A    between atoms: C_3  and  C_12
REMARK    5  A    between atoms: C_3  and  C_16
REMARK                            x       y       z     vdW  Elec       q    Type
REMARK                         _______ _______ _______ _____ _____    ______ ____
ROOT
ATOM      1  C   UNL     1       2.499   3.723  19.301  0.00  0.00    +0.000 C 
ENDROOT
BRANCH   1   2
ATOM      2  C   UNL     1       3.586   3.892  18.259  0.00  0.00    +0.000 C 
ATOM      3  O   UNL     1       3.320   3.684  17.068  0.00  0.00    +0.000 OA
ATOM      4  N   UNL     1       4.849   4.212  18.692  0.00  0.00    +0.000 N 
ATOM      5  C   UNL     1       5.917   4.370  17.850  0.00  0.00    +0.000 A 
ATOM      6  N   UNL     1       5.826   4.562  16.512  0.00  0.00    +0.000 NA
ATOM      7  C   UNL     1       7.064   4.614  16.102  0.00  0.00    +0.000 A 
ATOM      8  N   UNL     1       7.878   4.446  17.182  0.00  0.00    +0.000 N 
ATOM      9  N   UNL     1       7.169   4.332  18.314  0.00  0.00    +0.000 NA
ATOM     10  H   UNL     1       5.147   4.121  19.669  0.00  0.00    +0.000 HD
ATOM     11  H   UNL     1       8.895   4.393  17.211  0.00  0.00    +0.000 HD
ENDBRANCH   1   2
BRANCH   1  12
ATOM     12  C   UNL     1       1.317   3.047  18.661  0.00  0.00    +0.000 C 
ATOM     13  F   UNL     1       1.656   1.875  18.070  0.00  0.00    +0.000 F 
ATOM     14  F   UNL     1       0.307   2.771  19.513  0.00  0.00    +0.000 F 
ATOM     15  F   UNL     1       0.766   3.813  17.685  0.00  0.00    +0.000 F 
ENDBRANCH   1  12
BRANCH   1  16
ATOM     16  C   UNL     1       2.143   5.097  19.830  0.00  0.00    +0.000 C 
ATOM     17  F   UNL     1       3.044   5.560  20.728  0.00  0.00    +0.000 F 
ATOM     18  F   UNL     1       2.110   6.022  18.838  0.00  0.00    +0.000 F 
ATOM     19  F   UNL     1       0.940   5.174  20.432  0.00  0.00    +0.000 F 
ENDBRANCH   1  16
BRANCH   1  21
ATOM     20  C   UNL     1       2.118   2.667  21.705  0.00  0.00    +0.000 C 
ATOM     21  C   UNL     1       3.036   2.869  20.503  0.00  0.00    +0.000 C 
ENDBRANCH   1  21
TORSDOF 4
ENDMDL
MODEL 8
REMARK VINA RESULT:      -7.3      1.090      1.760
REMARK  Name = 
REMARK  5 active torsions:
REMARK  status: ('A' for Active; 'I' for Inactive)
REMARK    1  A    between atoms: C_1  and  C_2
REMARK    2  A    between atoms: C_2  and  C_3
REMARK    3  A    between atoms: C_3  and  C_4
REMARK    4  A    between atoms: C_3  and  C_12
REMARK    5  A    between atoms: C_3  and  C_16
REMARK                            x       y       z     vdW  Elec       q    Type
REMARK                         _______ _______ _______ _____ _____    ______ ____
ROOT
ATOM      1  C   UNL     1       2.352   3.607  19.528  0.00  0.00    +0.000 C 
ENDROOT
BRANCH   1   2
ATOM      2  C   UNL     1       3.661   3.897  18.822  0.00  0.00    +0.000 C 
ATOM      3  O   UNL     1       3.831   3.482  17.668  0.00  0.00    +0.000 OA
ATOM      4  N   UNL     1       4.637   4.561  19.523  0.00  0.00    +0.000 N 
ATOM      5  C   UNL     1       5.867   4.861  19.002  0.00  0.00    +0.000 A 
ATOM      6  N   UNL     1       6.171   4.855  17.682  0.00  0.00    +0.000 NA
ATOM      7  C   UNL     1       7.443   5.148  17.635  0.00  0.00    +0.000 A 
ATOM      8  N   UNL     1       7.888   5.317  18.913  0.00  0.00    +0.000 N 
ATOM      9  N   UNL     1       6.891   5.182  19.799  0.00  0.00    +0.000 NA
ATOM     10  H   UNL     1       4.621   4.668  20.543  0.00  0.00    +0.000 HD
ATOM     11  H   UNL     1       8.833   5.512  19.236  0.00  0.00    +0.000 HD
ENDBRANCH   1   2
BRANCH   1  12
ATOM     12  C   UNL     1       1.390   3.011  18.536  0.00  0.00    +0.000 C 
ATOM     13  F   UNL     1       1.936   1.972  17.855  0.00  0.00    +0.000 F 
ATOM     14  F   UNL     1       0.243   2.553  19.081  0.00  0.00    +0.000 F 
ATOM     15  F   UNL     1       1.009   3.915  17.598  0.00  0.00    +0.000 F 
ENDBRANCH   1  12
BRANCH   1  16
ATOM     16  C   UNL     1       1.833   4.910  20.101  0.00  0.00    +0.000 C 
ATOM     17  F   UNL     1       0.510   4.864  20.385  0.00  0.00    +0.000 F 
ATOM     18  F   UNL     1       2.445   5.221  21.271  0.00  0.00    +0.000 F 
ATOM     19  F   UNL     1       2.009   5.983  19.307  0.00  0.00    +0.000 F 
ENDBRANCH   1  16
BRANCH   1  21
ATOM     20  C   UNL     1       1.495   2.482  21.773  0.00  0.00    +0.000 C 
ATOM     21  C   UNL     1       2.594   2.618  20.722  0.00  0.00    +0.000 C 
ENDBRANCH   1  21
TORSDOF 4
ENDMDL
MODEL 9
REMARK VINA RESULT:      -7.3      1.086      2.610
REMARK  Name = 
REMARK  5 active torsions:
REMARK  status: ('A' for Active; 'I' for Inactive)
REMARK    1  A    between atoms: C_1  and  C_2
REMARK    2  A    between atoms: C_2  and  C_3
REMARK    3  A    between atoms: C_3  and  C_4
REMARK    4  A    between atoms: C_3  and  C_12
REMARK    5  A    between atoms: C_3  and  C_16
REMARK                            x       y       z     vdW  Elec       q    Type
REMARK                         _______ _______ _______ _____ _____    ______ ____
ROOT
ATOM      1  C   UNL     1       2.731   3.819  19.102  0.00  0.00    +0.000 C 
ENDROOT
BRANCH   1   2
ATOM      2  C   UNL     1       3.960   4.554  18.607  0.00  0.00    +0.000 C 
ATOM      3  O   UNL     1       4.040   4.859  17.409  0.00  0.00    +0.000 OA
ATOM      4  N   UNL     1       4.971   4.797  19.504  0.00  0.00    +0.000 N 
ATOM      5  C   UNL     1       6.137   5.432  19.171  0.00  0.00    +0.000 A 
ATOM      6  N   UNL     1       6.321   6.179  18.055  0.00  0.00    +0.000 NA
ATOM      7  C   UNL     1       7.572   6.549  18.110  0.00  0.00    +0.000 A 
ATOM      8  N   UNL     1       8.123   6.022  19.239  0.00  0.00    +0.000 N 
ATOM      9  N   UNL     1       7.216   5.342  19.954  0.00  0.00    +0.000 NA
ATOM     10  H   UNL     1       5.042   4.323  20.410  0.00  0.00    +0.000 HD
ATOM     11  H   UNL     1       9.087   6.081  19.564  0.00  0.00    +0.000 HD
ENDBRANCH   1   2
BRANCH   1  12
ATOM     12  C   UNL     1       3.144   2.453  19.579  0.00  0.00    +0.000 C 
ATOM     13  F   UNL     1       3.549   2.464  20.874  0.00  0.00    +0.000 F 
ATOM     14  F   UNL     1       2.177   1.517  19.487  0.00  0.00    +0.000 F 
ATOM     15  F   UNL     1       4.189   1.964  18.864  0.00  0.00    +0.000 F 
ENDBRANCH   1  12
BRANCH   1  16
ATOM     16  C   UNL     1       1.742   3.739  17.958  0.00  0.00    +0.000 C 
ATOM     17  F   UNL     1       1.456   4.953  17.430  0.00  0.00    +0.000 F 
ATOM     18  F   UNL     1       2.227   3.001  16.927  0.00  0.00    +0.000 F 
ATOM     19  F   UNL     1       0.559   3.179  18.274  0.00  0.00    +0.000 F 
ENDBRANCH   1  16
BRANCH   1  21
ATOM     20  C   UNL     1       2.075   6.150  20.186  0.00  0.00    +0.000 C 
ATOM     21  C   UNL     1       2.057   4.626  20.266  0.00  0.00    +0.000 C 
ENDBRANCH   1  21
TORSDOF 4
ENDMDL
