MODEL 1
REMARK VINA RESULT:      -7.4      0.000      0.000
REMARK  Name = 
REMARK  19 active torsions:
REMARK  status: ('A' for Active; 'I' for Inactive)
REMARK    1  A    between atoms: C_1  and  C_2
REMARK    2  A    between atoms: C_2  and  C_3
REMARK    3  A    between atoms: C_2  and  C_4
REMARK    4  A    between atoms: C_4  and  C_5
REMARK    5  A    between atoms: C_5  and  C_6
REMARK    6  A    between atoms: C_5  and  C_25
REMARK    7  A    between atoms: C_6  and  C_7
REMARK    8  A    between atoms: C_11  and  C_12
REMARK    9  A    between atoms: C_11  and  C_14
REMARK   10  A    between atoms: C_12  and  O_13
REMARK   11  A    between atoms: C_14  and  O_15
REMARK   12  A    between atoms: O_15  and  C_16
REMARK   13  A    between atoms: C_16  and  C_18
REMARK   14  A    between atoms: C_18  and  C_19
REMARK   15  A    between atoms: C_18  and  C_20
REMARK   16  A    between atoms: C_18  and  C_21
REMARK   17  A    between atoms: C_25  and  C_26
REMARK   18  A    between atoms: C_26  and  C_27
REMARK   19  A    between atoms: C_26  and  C_28
REMARK                            x       y       z     vdW  Elec       q    Type
REMARK                         _______ _______ _______ _____ _____    ______ ____
ROOT
ATOM      1  C   UNL     1       1.573   7.986  20.393  0.00  0.00    +0.000 C 
ATOM      2  C   UNL     1       1.992   6.760  20.011  0.00  0.00    +0.000 C 
ATOM      3  C   UNL     1       1.795   5.613  20.958  0.00  0.00    +0.000 C 
ATOM      4  C   UNL     1       1.357   4.380  20.192  0.00  0.00    +0.000 C 
ATOM      5  C   UNL     1       2.356   4.087  19.073  0.00  0.00    +0.000 C 
ATOM      6  O   UNL     1       2.406   5.227  18.180  0.00  0.00    +0.000 OA
ATOM      7  C   UNL     1       2.558   6.492  18.656  0.00  0.00    +0.000 C 
ATOM      8  O   UNL     1       3.113   7.347  17.982  0.00  0.00    +0.000 OA
ENDROOT
BRANCH   1   9
ATOM      9  C   UNL     1       1.383   9.235  19.570  0.00  0.00    +0.000 C 
BRANCH   9  10
ATOM     10  C   UNL     1       0.007   9.923  19.843  0.00  0.00    +0.000 C 
BRANCH  10  11
ATOM     11  C   UNL     1      -0.573  10.660  18.605  0.00  0.00    +0.000 C 
BRANCH  11  13
ATOM     12  C   UNL     1      -2.970  11.535  18.463  0.00  0.00    +0.000 C 
ATOM     13  C   UNL     1      -2.044  10.337  18.250  0.00  0.00    +0.000 C 
ATOM     14  C   UNL     1      -2.157   9.877  16.791  0.00  0.00    +0.000 C 
ENDBRANCH  11  13
ENDBRANCH  10  11
BRANCH  10  15
ATOM     15  C   UNL     1       0.143  10.875  21.067  0.00  0.00    +0.000 C 
BRANCH  15  16
ATOM     16  C   UNL     1      -0.833  10.663  22.243  0.00  0.00    +0.000 C 
ATOM     17  C   UNL     1      -0.329   9.640  23.260  0.00  0.00    +0.000 C 
ATOM     18  C   UNL     1      -1.082  12.006  22.941  0.00  0.00    +0.000 C 
ENDBRANCH  15  16
ENDBRANCH  10  15
ENDBRANCH   9  10
ENDBRANCH   1   9
BRANCH   5  19
ATOM     19  C   UNL     1       1.827   2.884  18.260  0.00  0.00    +0.000 C 
BRANCH  19  20
ATOM     20  O   UNL     1       2.272   2.905  16.907  0.00  0.00    +0.000 OA
ATOM     21  H   UNL     1       2.086   3.794  16.555  0.00  0.00    +0.000 HD
ENDBRANCH  19  20
ENDBRANCH   5  19
BRANCH   5  22
ATOM     22  C   UNL     1       3.789   3.808  19.577  0.00  0.00    +0.000 C 
BRANCH  22  23
ATOM     23  O   UNL     1       4.719   3.862  18.485  0.00  0.00    +0.000 OA
BRANCH  23  24
ATOM     24  C   UNL     1       5.759   4.726  18.644  0.00  0.00    +0.000 C 
ATOM     25  O   UNL     1       6.250   5.036  19.724  0.00  0.00    +0.000 OA
BRANCH  24  26
ATOM     26  C   UNL     1       6.278   5.217  17.296  0.00  0.00    +0.000 C 
ATOM     27  C   UNL     1       6.511   6.733  17.330  0.00  0.00    +0.000 C 
ATOM     28  C   UNL     1       7.610   4.510  17.001  0.00  0.00    +0.000 C 
ATOM     29  C   UNL     1       5.255   4.856  16.212  0.00  0.00    +0.000 C 
ENDBRANCH  24  26
ENDBRANCH  23  24
ENDBRANCH  22  23
ENDBRANCH   5  22
TORSDOF 12
ENDMDL
MODEL 2
REMARK VINA RESULT:      -7.4      0.579      2.807
REMARK  Name = 
REMARK  19 active torsions:
REMARK  status: ('A' for Active; 'I' for Inactive)
REMARK    1  A    between atoms: C_1  and  C_2
REMARK    2  A    between atoms: C_2  and  C_3
REMARK    3  A    between atoms: C_2  and  C_4
REMARK    4  A    between atoms: C_4  and  C_5
REMARK    5  A    between atoms: C_5  and  C_6
REMARK    6  A    between atoms: C_5  and  C_25
REMARK    7  A    between atoms: C_6  and  C_7
REMARK    8  A    between atoms: C_11  and  C_12
REMARK    9  A    between atoms: C_11  and  C_14
REMARK   10  A    between atoms: C_12  and  O_13
REMARK   11  A    between atoms: C_14  and  O_15
REMARK   12  A    between atoms: O_15  and  C_16
REMARK   13  A    between atoms: C_16  and  C_18
REMARK   14  A    between atoms: C_18  and  C_19
REMARK   15  A    between atoms: C_18  and  C_20
REMARK   16  A    between atoms: C_18  and  C_21
REMARK   17  A    between atoms: C_25  and  C_26
REMARK   18  A    between atoms: C_26  and  C_27
REMARK   19  A    between atoms: C_26  and  C_28
REMARK                            x       y       z     vdW  Elec       q    Type
REMARK                         _______ _______ _______ _____ _____    ______ ____
ROOT
ATOM      1  C   UNL     1       1.572   8.523  20.083  0.00  0.00    +0.000 C 
ATOM      2  C   UNL     1       2.003   7.285  19.761  0.00  0.00    +0.000 C 
ATOM      3  C   UNL     1       1.850   6.191  20.777  0.00  0.00    +0.000 C 
ATOM      4  C   UNL     1       1.415   4.909  20.095  0.00  0.00    +0.000 C 
ATOM      5  C   UNL     1       2.390   4.568  18.969  0.00  0.00    +0.000 C 
ATOM      6  O   UNL     1       2.398   5.655  18.011  0.00  0.00    +0.000 OA
ATOM      7  C   UNL     1       2.539   6.948  18.410  0.00  0.00    +0.000 C 
ATOM      8  O   UNL     1       3.062   7.771  17.673  0.00  0.00    +0.000 OA
ENDROOT
BRANCH   1   9
ATOM      9  C   UNL     1       1.340   9.720  19.195  0.00  0.00    +0.000 C 
BRANCH   9  10
ATOM     10  C   UNL     1       0.295  10.713  19.797  0.00  0.00    +0.000 C 
BRANCH  10  11
ATOM     11  C   UNL     1      -0.563  10.094  20.934  0.00  0.00    +0.000 C 
BRANCH  11  13
ATOM     12  C   UNL     1      -1.483  11.481  22.874  0.00  0.00    +0.000 C 
ATOM     13  C   UNL     1      -0.309  10.650  22.355  0.00  0.00    +0.000 C 
ATOM     14  C   UNL     1      -0.039   9.506  23.340  0.00  0.00    +0.000 C 
ENDBRANCH  11  13
ENDBRANCH  10  11
BRANCH  10  15
ATOM     15  C   UNL     1      -0.593  11.281  18.651  0.00  0.00    +0.000 C 
BRANCH  15  16
ATOM     16  C   UNL     1      -1.953  10.597  18.400  0.00  0.00    +0.000 C 
ATOM     17  C   UNL     1      -3.128  11.571  18.447  0.00  0.00    +0.000 C 
ATOM     18  C   UNL     1      -1.920   9.891  17.038  0.00  0.00    +0.000 C 
ENDBRANCH  15  16
ENDBRANCH  10  15
ENDBRANCH   9  10
ENDBRANCH   1   9
BRANCH   5  19
ATOM     19  C   UNL     1       1.862   3.312  18.240  0.00  0.00    +0.000 C 
BRANCH  19  20
ATOM     20  O   UNL     1       2.367   3.201  16.913  0.00  0.00    +0.000 OA
ATOM     21  H   UNL     1       3.294   2.910  16.979  0.00  0.00    +0.000 HD
ENDBRANCH  19  20
ENDBRANCH   5  19
BRANCH   5  22
ATOM     22  C   UNL     1       3.840   4.342  19.450  0.00  0.00    +0.000 C 
BRANCH  22  23
ATOM     23  O   UNL     1       4.752   4.445  18.347  0.00  0.00    +0.000 OA
BRANCH  23  24
ATOM     24  C   UNL     1       5.924   5.084  18.614  0.00  0.00    +0.000 C 
ATOM     25  O   UNL     1       6.411   5.211  19.733  0.00  0.00    +0.000 OA
BRANCH  24  26
ATOM     26  C   UNL     1       6.589   5.574  17.331  0.00  0.00    +0.000 C 
ATOM     27  C   UNL     1       7.541   4.506  16.778  0.00  0.00    +0.000 C 
ATOM     28  C   UNL     1       5.492   5.857  16.293  0.00  0.00    +0.000 C 
ATOM     29  C   UNL     1       7.353   6.869  17.635  0.00  0.00    +0.000 C 
ENDBRANCH  24  26
ENDBRANCH  23  24
ENDBRANCH  22  23
ENDBRANCH   5  22
TORSDOF 12
ENDMDL
MODEL 3
REMARK VINA RESULT:      -7.2      1.047      1.729
REMARK  Name = 
REMARK  19 active torsions:
REMARK  status: ('A' for Active; 'I' for Inactive)
REMARK    1  A    between atoms: C_1  and  C_2
REMARK    2  A    between atoms: C_2  and  C_3
REMARK    3  A    between atoms: C_2  and  C_4
REMARK    4  A    between atoms: C_4  and  C_5
REMARK    5  A    between atoms: C_5  and  C_6
REMARK    6  A    between atoms: C_5  and  C_25
REMARK    7  A    between atoms: C_6  and  C_7
REMARK    8  A    between atoms: C_11  and  C_12
REMARK    9  A    between atoms: C_11  and  C_14
REMARK   10  A    between atoms: C_12  and  O_13
REMARK   11  A    between atoms: C_14  and  O_15
REMARK   12  A    between atoms: O_15  and  C_16
REMARK   13  A    between atoms: C_16  and  C_18
REMARK   14  A    between atoms: C_18  and  C_19
REMARK   15  A    between atoms: C_18  and  C_20
REMARK   16  A    between atoms: C_18  and  C_21
REMARK   17  A    between atoms: C_25  and  C_26
REMARK   18  A    between atoms: C_26  and  C_27
REMARK   19  A    between atoms: C_26  and  C_28
REMARK                            x       y       z     vdW  Elec       q    Type
REMARK                         _______ _______ _______ _____ _____    ______ ____
ROOT
ATOM      1  C   UNL     1       1.758   7.792  20.107  0.00  0.00    +0.000 C 
ATOM      2  C   UNL     1       2.088   6.517  19.806  0.00  0.00    +0.000 C 
ATOM      3  C   UNL     1       1.940   5.473  20.875  0.00  0.00    +0.000 C 
ATOM      4  C   UNL     1       1.379   4.198  20.278  0.00  0.00    +0.000 C 
ATOM      5  C   UNL     1       2.247   3.753  19.103  0.00  0.00    +0.000 C 
ATOM      6  O   UNL     1       2.254   4.802  18.102  0.00  0.00    +0.000 OA
ATOM      7  C   UNL     1       2.504   6.096  18.436  0.00  0.00    +0.000 C 
ATOM      8  O   UNL     1       3.023   6.856  17.632  0.00  0.00    +0.000 OA
ENDROOT
BRANCH   1   9
ATOM      9  C   UNL     1       1.538   8.967  19.187  0.00  0.00    +0.000 C 
BRANCH   9  10
ATOM     10  C   UNL     1       0.368   9.885  19.668  0.00  0.00    +0.000 C 
BRANCH  10  11
ATOM     11  C   UNL     1       0.059  11.055  18.694  0.00  0.00    +0.000 C 
BRANCH  11  13
ATOM     12  C   UNL     1       2.065  12.607  18.384  0.00  0.00    +0.000 C 
ATOM     13  C   UNL     1       0.699  12.418  19.045  0.00  0.00    +0.000 C 
ATOM     14  C   UNL     1      -0.221  13.570  18.620  0.00  0.00    +0.000 C 
ENDBRANCH  11  13
ENDBRANCH  10  11
BRANCH  10  15
ATOM     15  C   UNL     1       0.677  10.400  21.104  0.00  0.00    +0.000 C 
BRANCH  15  16
ATOM     16  C   UNL     1      -0.455  10.315  22.148  0.00  0.00    +0.000 C 
ATOM     17  C   UNL     1      -0.072   9.494  23.378  0.00  0.00    +0.000 C 
ATOM     18  C   UNL     1      -0.855  11.732  22.577  0.00  0.00    +0.000 C 
ENDBRANCH  15  16
ENDBRANCH  10  15
ENDBRANCH   9  10
ENDBRANCH   1   9
BRANCH   5  19
ATOM     19  C   UNL     1       1.592   2.508  18.464  0.00  0.00    +0.000 C 
BRANCH  19  20
ATOM     20  O   UNL     1       2.519   1.732  17.711  0.00  0.00    +0.000 OA
ATOM     21  H   UNL     1       3.227   1.455  18.320  0.00  0.00    +0.000 HD
ENDBRANCH  19  20
ENDBRANCH   5  19
BRANCH   5  22
ATOM     22  C   UNL     1       3.712   3.452  19.492  0.00  0.00    +0.000 C 
BRANCH  22  23
ATOM     23  O   UNL     1       4.585   3.713  18.383  0.00  0.00    +0.000 OA
BRANCH  23  24
ATOM     24  C   UNL     1       5.618   4.562  18.639  0.00  0.00    +0.000 C 
ATOM     25  O   UNL     1       6.034   4.837  19.760  0.00  0.00    +0.000 OA
BRANCH  24  26
ATOM     26  C   UNL     1       6.234   5.086  17.345  0.00  0.00    +0.000 C 
ATOM     27  C   UNL     1       7.631   4.489  17.136  0.00  0.00    +0.000 C 
ATOM     28  C   UNL     1       5.330   4.673  16.175  0.00  0.00    +0.000 C 
ATOM     29  C   UNL     1       6.310   6.616  17.419  0.00  0.00    +0.000 C 
ENDBRANCH  24  26
ENDBRANCH  23  24
ENDBRANCH  22  23
ENDBRANCH   5  22
TORSDOF 12
ENDMDL
MODEL 4
REMARK VINA RESULT:      -7.1      0.659      2.623
REMARK  Name = 
REMARK  19 active torsions:
REMARK  status: ('A' for Active; 'I' for Inactive)
REMARK    1  A    between atoms: C_1  and  C_2
REMARK    2  A    between atoms: C_2  and  C_3
REMARK    3  A    between atoms: C_2  and  C_4
REMARK    4  A    between atoms: C_4  and  C_5
REMARK    5  A    between atoms: C_5  and  C_6
REMARK    6  A    between atoms: C_5  and  C_25
REMARK    7  A    between atoms: C_6  and  C_7
REMARK    8  A    between atoms: C_11  and  C_12
REMARK    9  A    between atoms: C_11  and  C_14
REMARK   10  A    between atoms: C_12  and  O_13
REMARK   11  A    between atoms: C_14  and  O_15
REMARK   12  A    between atoms: O_15  and  C_16
REMARK   13  A    between atoms: C_16  and  C_18
REMARK   14  A    between atoms: C_18  and  C_19
REMARK   15  A    between atoms: C_18  and  C_20
REMARK   16  A    between atoms: C_18  and  C_21
REMARK   17  A    between atoms: C_25  and  C_26
REMARK   18  A    between atoms: C_26  and  C_27
REMARK   19  A    between atoms: C_26  and  C_28
REMARK                            x       y       z     vdW  Elec       q    Type
REMARK                         _______ _______ _______ _____ _____    ______ ____
ROOT
ATOM      1  C   UNL     1       1.729   7.987  19.960  0.00  0.00    +0.000 C 
ATOM      2  C   UNL     1       2.155   6.746  19.641  0.00  0.00    +0.000 C 
ATOM      3  C   UNL     1       2.003   5.657  20.663  0.00  0.00    +0.000 C 
ATOM      4  C   UNL     1       1.561   4.374  19.988  0.00  0.00    +0.000 C 
ATOM      5  C   UNL     1       2.529   4.024  18.860  0.00  0.00    +0.000 C 
ATOM      6  O   UNL     1       2.537   5.107  17.897  0.00  0.00    +0.000 OA
ATOM      7  C   UNL     1       2.684   6.401  18.289  0.00  0.00    +0.000 C 
ATOM      8  O   UNL     1       3.207   7.219  17.547  0.00  0.00    +0.000 OA
ENDROOT
BRANCH   1   9
ATOM      9  C   UNL     1       1.497   9.181  19.067  0.00  0.00    +0.000 C 
BRANCH   9  10
ATOM     10  C   UNL     1       0.643  10.287  19.765  0.00  0.00    +0.000 C 
BRANCH  10  11
ATOM     11  C   UNL     1      -0.240   9.749  20.923  0.00  0.00    +0.000 C 
BRANCH  11  13
ATOM     12  C   UNL     1      -1.237  11.476  22.521  0.00  0.00    +0.000 C 
ATOM     13  C   UNL     1      -0.101  10.481  22.279  0.00  0.00    +0.000 C 
ATOM     14  C   UNL     1      -0.071   9.473  23.434  0.00  0.00    +0.000 C 
ENDBRANCH  11  13
ENDBRANCH  10  11
BRANCH  10  15
ATOM     15  C   UNL     1      -0.206  11.032  18.693  0.00  0.00    +0.000 C 
BRANCH  15  16
ATOM     16  C   UNL     1      -1.664  10.569  18.494  0.00  0.00    +0.000 C 
ATOM     17  C   UNL     1      -2.682  11.680  18.744  0.00  0.00    +0.000 C 
ATOM     18  C   UNL     1      -1.833  10.024  17.070  0.00  0.00    +0.000 C 
ENDBRANCH  15  16
ENDBRANCH  10  15
ENDBRANCH   9  10
ENDBRANCH   1   9
BRANCH   5  19
ATOM     19  C   UNL     1       1.995   2.767  18.139  0.00  0.00    +0.000 C 
BRANCH  19  20
ATOM     20  O   UNL     1       0.587   2.615  18.283  0.00  0.00    +0.000 OA
ATOM     21  H   UNL     1       0.253   2.212  17.461  0.00  0.00    +0.000 HD
ENDBRANCH  19  20
ENDBRANCH   5  19
BRANCH   5  22
ATOM     22  C   UNL     1       3.981   3.796  19.336  0.00  0.00    +0.000 C 
BRANCH  22  23
ATOM     23  O   UNL     1       4.905   4.097  18.279  0.00  0.00    +0.000 OA
BRANCH  23  24
ATOM     24  C   UNL     1       5.806   5.080  18.554  0.00  0.00    +0.000 C 
ATOM     25  O   UNL     1       6.008   5.552  19.667  0.00  0.00    +0.000 OA
BRANCH  24  26
ATOM     26  C   UNL     1       6.582   5.480  17.302  0.00  0.00    +0.000 C 
ATOM     27  C   UNL     1       7.141   6.901  17.448  0.00  0.00    +0.000 C 
ATOM     28  C   UNL     1       7.748   4.497  17.117  0.00  0.00    +0.000 C 
ATOM     29  C   UNL     1       5.644   5.394  16.092  0.00  0.00    +0.000 C 
ENDBRANCH  24  26
ENDBRANCH  23  24
ENDBRANCH  22  23
ENDBRANCH   5  22
TORSDOF 12
ENDMDL
MODEL 5
REMARK VINA RESULT:      -7.0      1.225      1.956
REMARK  Name = 
REMARK  19 active torsions:
REMARK  status: ('A' for Active; 'I' for Inactive)
REMARK    1  A    between atoms: C_1  and  C_2
REMARK    2  A    between atoms: C_2  and  C_3
REMARK    3  A    between atoms: C_2  and  C_4
REMARK    4  A    between atoms: C_4  and  C_5
REMARK    5  A    between atoms: C_5  and  C_6
REMARK    6  A    between atoms: C_5  and  C_25
REMARK    7  A    between atoms: C_6  and  C_7
REMARK    8  A    between atoms: C_11  and  C_12
REMARK    9  A    between atoms: C_11  and  C_14
REMARK   10  A    between atoms: C_12  and  O_13
REMARK   11  A    between atoms: C_14  and  O_15
REMARK   12  A    between atoms: O_15  and  C_16
REMARK   13  A    between atoms: C_16  and  C_18
REMARK   14  A    between atoms: C_18  and  C_19
REMARK   15  A    between atoms: C_18  and  C_20
REMARK   16  A    between atoms: C_18  and  C_21
REMARK   17  A    between atoms: C_25  and  C_26
REMARK   18  A    between atoms: C_26  and  C_27
REMARK   19  A    between atoms: C_26  and  C_28
REMARK                            x       y       z     vdW  Elec       q    Type
REMARK                         _______ _______ _______ _____ _____    ______ ____
ROOT
ATOM      1  C   UNL     1       1.525   8.334  19.998  0.00  0.00    +0.000 C 
ATOM      2  C   UNL     1       2.016   7.113  19.694  0.00  0.00    +0.000 C 
ATOM      3  C   UNL     1       1.844   6.007  20.694  0.00  0.00    +0.000 C 
ATOM      4  C   UNL     1       1.492   4.716  19.981  0.00  0.00    +0.000 C 
ATOM      5  C   UNL     1       2.539   4.416  18.910  0.00  0.00    +0.000 C 
ATOM      6  O   UNL     1       2.563   5.510  17.959  0.00  0.00    +0.000 OA
ATOM      7  C   UNL     1       2.637   6.804  18.372  0.00  0.00    +0.000 C 
ATOM      8  O   UNL     1       3.172   7.650  17.671  0.00  0.00    +0.000 OA
ENDROOT
BRANCH   1   9
ATOM      9  C   UNL     1       1.301   9.528  19.104  0.00  0.00    +0.000 C 
BRANCH   9  10
ATOM     10  C   UNL     1       0.320  10.567  19.736  0.00  0.00    +0.000 C 
BRANCH  10  11
ATOM     11  C   UNL     1       1.006  11.901  20.139  0.00  0.00    +0.000 C 
BRANCH  11  13
ATOM     12  C   UNL     1       1.669  13.773  18.531  0.00  0.00    +0.000 C 
ATOM     13  C   UNL     1       0.545  13.160  19.367  0.00  0.00    +0.000 C 
ATOM     14  C   UNL     1      -0.633  12.825  18.444  0.00  0.00    +0.000 C 
ENDBRANCH  11  13
ENDBRANCH  10  11
BRANCH  10  15
ATOM     15  C   UNL     1      -0.414   9.911  20.942  0.00  0.00    +0.000 C 
BRANCH  15  16
ATOM     16  C   UNL     1      -0.225  10.560  22.328  0.00  0.00    +0.000 C 
ATOM     17  C   UNL     1      -1.418  11.412  22.756  0.00  0.00    +0.000 C 
ATOM     18  C   UNL     1       0.030   9.464  23.370  0.00  0.00    +0.000 C 
ENDBRANCH  15  16
ENDBRANCH  10  15
ENDBRANCH   9  10
ENDBRANCH   1   9
BRANCH   5  19
ATOM     19  C   UNL     1       2.096   3.149  18.146  0.00  0.00    +0.000 C 
BRANCH  19  20
ATOM     20  O   UNL     1       2.858   2.002  18.508  0.00  0.00    +0.000 OA
ATOM     21  H   UNL     1       3.790   2.195  18.297  0.00  0.00    +0.000 HD
ENDBRANCH  19  20
ENDBRANCH   5  19
BRANCH   5  22
ATOM     22  C   UNL     1       3.967   4.236  19.470  0.00  0.00    +0.000 C 
BRANCH  22  23
ATOM     23  O   UNL     1       4.927   4.267  18.403  0.00  0.00    +0.000 OA
BRANCH  23  24
ATOM     24  C   UNL     1       6.018   5.053  18.622  0.00  0.00    +0.000 C 
ATOM     25  O   UNL     1       6.477   5.320  19.727  0.00  0.00    +0.000 OA
BRANCH  24  26
ATOM     26  C   UNL     1       6.638   5.512  17.305  0.00  0.00    +0.000 C 
ATOM     27  C   UNL     1       7.623   4.460  16.779  0.00  0.00    +0.000 C 
ATOM     28  C   UNL     1       5.511   5.703  16.278  0.00  0.00    +0.000 C 
ATOM     29  C   UNL     1       7.352   6.849  17.536  0.00  0.00    +0.000 C 
ENDBRANCH  24  26
ENDBRANCH  23  24
ENDBRANCH  22  23
ENDBRANCH   5  22
TORSDOF 12
ENDMDL
MODEL 6
REMARK VINA RESULT:      -7.0      4.536      7.426
REMARK  Name = 
REMARK  19 active torsions:
REMARK  status: ('A' for Active; 'I' for Inactive)
REMARK    1  A    between atoms: C_1  and  C_2
REMARK    2  A    between atoms: C_2  and  C_3
REMARK    3  A    between atoms: C_2  and  C_4
REMARK    4  A    between atoms: C_4  and  C_5
REMARK    5  A    between atoms: C_5  and  C_6
REMARK    6  A    between atoms: C_5  and  C_25
REMARK    7  A    between atoms: C_6  and  C_7
REMARK    8  A    between atoms: C_11  and  C_12
REMARK    9  A    between atoms: C_11  and  C_14
REMARK   10  A    between atoms: C_12  and  O_13
REMARK   11  A    between atoms: C_14  and  O_15
REMARK   12  A    between atoms: O_15  and  C_16
REMARK   13  A    between atoms: C_16  and  C_18
REMARK   14  A    between atoms: C_18  and  C_19
REMARK   15  A    between atoms: C_18  and  C_20
REMARK   16  A    between atoms: C_18  and  C_21
REMARK   17  A    between atoms: C_25  and  C_26
REMARK   18  A    between atoms: C_26  and  C_27
REMARK   19  A    between atoms: C_26  and  C_28
REMARK                            x       y       z     vdW  Elec       q    Type
REMARK                         _______ _______ _______ _____ _____    ______ ____
ROOT
ATOM      1  C   UNL     1       7.530   8.617  17.895  0.00  0.00    +0.000 C 
ATOM      2  C   UNL     1       6.963   7.412  17.670  0.00  0.00    +0.000 C 
ATOM      3  C   UNL     1       5.722   7.355  16.828  0.00  0.00    +0.000 C 
ATOM      4  C   UNL     1       5.780   6.156  15.903  0.00  0.00    +0.000 C 
ATOM      5  C   UNL     1       6.028   4.887  16.717  0.00  0.00    +0.000 C 
ATOM      6  O   UNL     1       7.286   5.022  17.425  0.00  0.00    +0.000 OA
ATOM      7  C   UNL     1       7.573   6.137  18.149  0.00  0.00    +0.000 C 
ATOM      8  O   UNL     1       8.308   6.072  19.123  0.00  0.00    +0.000 OA
ENDROOT
BRANCH   1   9
ATOM      9  C   UNL     1       8.895   8.949  18.444  0.00  0.00    +0.000 C 
BRANCH   9  10
ATOM     10  C   UNL     1       9.038  10.461  18.807  0.00  0.00    +0.000 C 
BRANCH  10  11
ATOM     11  C   UNL     1      10.061  11.218  17.916  0.00  0.00    +0.000 C 
BRANCH  11  13
ATOM     12  C   UNL     1       8.068  12.763  17.501  0.00  0.00    +0.000 C 
ATOM     13  C   UNL     1       9.567  12.545  17.294  0.00  0.00    +0.000 C 
ATOM     14  C   UNL     1      10.328  13.735  17.893  0.00  0.00    +0.000 C 
ENDBRANCH  11  13
ENDBRANCH  10  11
BRANCH  10  15
ATOM     15  C   UNL     1       9.383  10.596  20.319  0.00  0.00    +0.000 C 
BRANCH  15  16
ATOM     16  C   UNL     1       9.013  11.921  21.017  0.00  0.00    +0.000 C 
ATOM     17  C   UNL     1       8.276  11.714  22.338  0.00  0.00    +0.000 C 
ATOM     18  C   UNL     1      10.289  12.738  21.259  0.00  0.00    +0.000 C 
ENDBRANCH  15  16
ENDBRANCH  10  15
ENDBRANCH   9  10
ENDBRANCH   1   9
BRANCH   5  19
ATOM     19  C   UNL     1       6.174   3.704  15.734  0.00  0.00    +0.000 C 
BRANCH  19  20
ATOM     20  O   UNL     1       5.549   3.960  14.480  0.00  0.00    +0.000 OA
ATOM     21  H   UNL     1       5.399   4.921  14.422  0.00  0.00    +0.000 HD
ENDBRANCH  19  20
ENDBRANCH   5  19
BRANCH   5  22
ATOM     22  C   UNL     1       4.923   4.590  17.756  0.00  0.00    +0.000 C 
BRANCH  22  23
ATOM     23  O   UNL     1       3.844   3.870  17.142  0.00  0.00    +0.000 OA
BRANCH  23  24
ATOM     24  C   UNL     1       3.254   2.923  17.923  0.00  0.00    +0.000 C 
ATOM     25  O   UNL     1       3.700   1.797  18.113  0.00  0.00    +0.000 OA
BRANCH  24  26
ATOM     26  C   UNL     1       1.989   3.465  18.583  0.00  0.00    +0.000 C 
ATOM     27  C   UNL     1       2.313   4.053  19.962  0.00  0.00    +0.000 C 
ATOM     28  C   UNL     1       1.408   4.570  17.688  0.00  0.00    +0.000 C 
ATOM     29  C   UNL     1       0.972   2.324  18.712  0.00  0.00    +0.000 C 
ENDBRANCH  24  26
ENDBRANCH  23  24
ENDBRANCH  22  23
ENDBRANCH   5  22
TORSDOF 12
ENDMDL
MODEL 7
REMARK VINA RESULT:      -6.9      0.977      2.514
REMARK  Name = 
REMARK  19 active torsions:
REMARK  status: ('A' for Active; 'I' for Inactive)
REMARK    1  A    between atoms: C_1  and  C_2
REMARK    2  A    between atoms: C_2  and  C_3
REMARK    3  A    between atoms: C_2  and  C_4
REMARK    4  A    between atoms: C_4  and  C_5
REMARK    5  A    between atoms: C_5  and  C_6
REMARK    6  A    between atoms: C_5  and  C_25
REMARK    7  A    between atoms: C_6  and  C_7
REMARK    8  A    between atoms: C_11  and  C_12
REMARK    9  A    between atoms: C_11  and  C_14
REMARK   10  A    between atoms: C_12  and  O_13
REMARK   11  A    between atoms: C_14  and  O_15
REMARK   12  A    between atoms: O_15  and  C_16
REMARK   13  A    between atoms: C_16  and  C_18
REMARK   14  A    between atoms: C_18  and  C_19
REMARK   15  A    between atoms: C_18  and  C_20
REMARK   16  A    between atoms: C_18  and  C_21
REMARK   17  A    between atoms: C_25  and  C_26
REMARK   18  A    between atoms: C_26  and  C_27
REMARK   19  A    between atoms: C_26  and  C_28
REMARK                            x       y       z     vdW  Elec       q    Type
REMARK                         _______ _______ _______ _____ _____    ______ ____
ROOT
ATOM      1  C   UNL     1       1.407   8.551  20.267  0.00  0.00    +0.000 C 
ATOM      2  C   UNL     1       1.915   7.360  19.884  0.00  0.00    +0.000 C 
ATOM      3  C   UNL     1       1.764   6.190  20.812  0.00  0.00    +0.000 C 
ATOM      4  C   UNL     1       1.429   4.942  20.020  0.00  0.00    +0.000 C 
ATOM      5  C   UNL     1       2.475   4.728  18.928  0.00  0.00    +0.000 C 
ATOM      6  O   UNL     1       2.479   5.880  18.049  0.00  0.00    +0.000 OA
ATOM      7  C   UNL     1       2.535   7.146  18.543  0.00  0.00    +0.000 C 
ATOM      8  O   UNL     1       3.054   8.043  17.895  0.00  0.00    +0.000 OA
ENDROOT
BRANCH   1   9
ATOM      9  C   UNL     1       1.161   9.797  19.452  0.00  0.00    +0.000 C 
BRANCH   9  10
ATOM     10  C   UNL     1      -0.057  10.620  19.979  0.00  0.00    +0.000 C 
BRANCH  10  11
ATOM     11  C   UNL     1      -0.467  10.259  21.433  0.00  0.00    +0.000 C 
BRANCH  11  13
ATOM     12  C   UNL     1      -0.076  12.756  21.807  0.00  0.00    +0.000 C 
ATOM     13  C   UNL     1      -0.535  11.438  22.432  0.00  0.00    +0.000 C 
ATOM     14  C   UNL     1      -1.964  11.612  22.963  0.00  0.00    +0.000 C 
ENDBRANCH  11  13
ENDBRANCH  10  11
BRANCH  10  15
ATOM     15  C   UNL     1      -1.249  10.463  18.990  0.00  0.00    +0.000 C 
BRANCH  15  16
ATOM     16  C   UNL     1      -1.927  11.753  18.483  0.00  0.00    +0.000 C 
ATOM     17  C   UNL     1      -3.017  12.262  19.424  0.00  0.00    +0.000 C 
ATOM     18  C   UNL     1      -0.864  12.840  18.287  0.00  0.00    +0.000 C 
ENDBRANCH  15  16
ENDBRANCH  10  15
ENDBRANCH   9  10
ENDBRANCH   1   9
BRANCH   5  19
ATOM     19  C   UNL     1       2.049   3.504  18.086  0.00  0.00    +0.000 C 
BRANCH  19  20
ATOM     20  O   UNL     1       2.663   2.299  18.529  0.00  0.00    +0.000 OA
ATOM     21  H   UNL     1       3.341   2.543  19.186  0.00  0.00    +0.000 HD
ENDBRANCH  19  20
ENDBRANCH   5  19
BRANCH   5  22
ATOM     22  C   UNL     1       3.909   4.534  19.471  0.00  0.00    +0.000 C 
BRANCH  22  23
ATOM     23  O   UNL     1       4.846   4.465  18.386  0.00  0.00    +0.000 OA
BRANCH  23  24
ATOM     24  C   UNL     1       6.021   5.124  18.586  0.00  0.00    +0.000 C 
ATOM     25  O   UNL     1       6.583   5.237  19.670  0.00  0.00    +0.000 OA
BRANCH  24  26
ATOM     26  C   UNL     1       6.584   5.656  17.271  0.00  0.00    +0.000 C 
ATOM     27  C   UNL     1       7.385   6.942  17.511  0.00  0.00    +0.000 C 
ATOM     28  C   UNL     1       7.513   4.589  16.673  0.00  0.00    +0.000 C 
ATOM     29  C   UNL     1       5.421   5.921  16.307  0.00  0.00    +0.000 C 
ENDBRANCH  24  26
ENDBRANCH  23  24
ENDBRANCH  22  23
ENDBRANCH   5  22
TORSDOF 12
ENDMDL
MODEL 8
REMARK VINA RESULT:      -6.9      0.824      1.495
REMARK  Name = 
REMARK  19 active torsions:
REMARK  status: ('A' for Active; 'I' for Inactive)
REMARK    1  A    between atoms: C_1  and  C_2
REMARK    2  A    between atoms: C_2  and  C_3
REMARK    3  A    between atoms: C_2  and  C_4
REMARK    4  A    between atoms: C_4  and  C_5
REMARK    5  A    between atoms: C_5  and  C_6
REMARK    6  A    between atoms: C_5  and  C_25
REMARK    7  A    between atoms: C_6  and  C_7
REMARK    8  A    between atoms: C_11  and  C_12
REMARK    9  A    between atoms: C_11  and  C_14
REMARK   10  A    between atoms: C_12  and  O_13
REMARK   11  A    between atoms: C_14  and  O_15
REMARK   12  A    between atoms: O_15  and  C_16
REMARK   13  A    between atoms: C_16  and  C_18
REMARK   14  A    between atoms: C_18  and  C_19
REMARK   15  A    between atoms: C_18  and  C_20
REMARK   16  A    between atoms: C_18  and  C_21
REMARK   17  A    between atoms: C_25  and  C_26
REMARK   18  A    between atoms: C_26  and  C_27
REMARK   19  A    between atoms: C_26  and  C_28
REMARK                            x       y       z     vdW  Elec       q    Type
REMARK                         _______ _______ _______ _____ _____    ______ ____
ROOT
ATOM      1  C   UNL     1       1.666   7.747  20.340  0.00  0.00    +0.000 C 
ATOM      2  C   UNL     1       2.088   6.514  19.988  0.00  0.00    +0.000 C 
ATOM      3  C   UNL     1       2.049   5.427  21.022  0.00  0.00    +0.000 C 
ATOM      4  C   UNL     1       1.577   4.131  20.393  0.00  0.00    +0.000 C 
ATOM      5  C   UNL     1       2.449   3.797  19.184  0.00  0.00    +0.000 C 
ATOM      6  O   UNL     1       2.349   4.875  18.221  0.00  0.00    +0.000 OA
ATOM      7  C   UNL     1       2.503   6.173  18.595  0.00  0.00    +0.000 C 
ATOM      8  O   UNL     1       2.940   6.999  17.807  0.00  0.00    +0.000 OA
ENDROOT
BRANCH   1   9
ATOM      9  C   UNL     1       1.330   8.931  19.467  0.00  0.00    +0.000 C 
BRANCH   9  10
ATOM     10  C   UNL     1       0.092   9.725  19.994  0.00  0.00    +0.000 C 
BRANCH  10  11
ATOM     11  C   UNL     1      -0.684  10.475  18.877  0.00  0.00    +0.000 C 
BRANCH  11  13
ATOM     12  C   UNL     1      -0.600  12.955  18.268  0.00  0.00    +0.000 C 
ATOM     13  C   UNL     1      -1.163  11.904  19.226  0.00  0.00    +0.000 C 
ATOM     14  C   UNL     1      -2.695  11.980  19.200  0.00  0.00    +0.000 C 
ENDBRANCH  11  13
ENDBRANCH  10  11
BRANCH  10  15
ATOM     15  C   UNL     1       0.548  10.693  21.126  0.00  0.00    +0.000 C 
BRANCH  15  16
ATOM     16  C   UNL     1      -0.031  10.460  22.536  0.00  0.00    +0.000 C 
ATOM     17  C   UNL     1      -1.143  11.444  22.895  0.00  0.00    +0.000 C 
ATOM     18  C   UNL     1      -0.561   9.023  22.635  0.00  0.00    +0.000 C 
ENDBRANCH  15  16
ENDBRANCH  10  15
ENDBRANCH   9  10
ENDBRANCH   1   9
BRANCH   5  19
ATOM     19  C   UNL     1       1.880   2.525  18.517  0.00  0.00    +0.000 C 
BRANCH  19  20
ATOM     20  O   UNL     1       0.481   2.620  18.271  0.00  0.00    +0.000 OA
ATOM     21  H   UNL     1       0.035   2.644  19.137  0.00  0.00    +0.000 HD
ENDBRANCH  19  20
ENDBRANCH   5  19
BRANCH   5  22
ATOM     22  C   UNL     1       3.942   3.601  19.531  0.00  0.00    +0.000 C 
BRANCH  22  23
ATOM     23  O   UNL     1       4.751   3.768  18.357  0.00  0.00    +0.000 OA
BRANCH  23  24
ATOM     24  C   UNL     1       5.807   4.617  18.492  0.00  0.00    +0.000 C 
ATOM     25  O   UNL     1       6.376   4.864  19.550  0.00  0.00    +0.000 OA
BRANCH  24  26
ATOM     26  C   UNL     1       6.235   5.182  17.140  0.00  0.00    +0.000 C 
ATOM     27  C   UNL     1       7.552   4.542  16.684  0.00  0.00    +0.000 C 
ATOM     28  C   UNL     1       5.139   4.864  16.112  0.00  0.00    +0.000 C 
ATOM     29  C   UNL     1       6.392   6.702  17.267  0.00  0.00    +0.000 C 
ENDBRANCH  24  26
ENDBRANCH  23  24
ENDBRANCH  22  23
ENDBRANCH   5  22
TORSDOF 12
ENDMDL
MODEL 9
REMARK VINA RESULT:      -6.8      1.279      1.724
REMARK  Name = 
REMARK  19 active torsions:
REMARK  status: ('A' for Active; 'I' for Inactive)
REMARK    1  A    between atoms: C_1  and  C_2
REMARK    2  A    between atoms: C_2  and  C_3
REMARK    3  A    between atoms: C_2  and  C_4
REMARK    4  A    between atoms: C_4  and  C_5
REMARK    5  A    between atoms: C_5  and  C_6
REMARK    6  A    between atoms: C_5  and  C_25
REMARK    7  A    between atoms: C_6  and  C_7
REMARK    8  A    between atoms: C_11  and  C_12
REMARK    9  A    between atoms: C_11  and  C_14
REMARK   10  A    between atoms: C_12  and  O_13
REMARK   11  A    between atoms: C_14  and  O_15
REMARK   12  A    between atoms: O_15  and  C_16
REMARK   13  A    between atoms: C_16  and  C_18
REMARK   14  A    between atoms: C_18  and  C_19
REMARK   15  A    between atoms: C_18  and  C_20
REMARK   16  A    between atoms: C_18  and  C_21
REMARK   17  A    between atoms: C_25  and  C_26
REMARK   18  A    between atoms: C_26  and  C_27
REMARK   19  A    between atoms: C_26  and  C_28
REMARK                            x       y       z     vdW  Elec       q    Type
REMARK                         _______ _______ _______ _____ _____    ______ ____
ROOT
ATOM      1  C   UNL     1       1.292   9.236  19.706  0.00  0.00    +0.000 C 
ATOM      2  C   UNL     1       1.785   7.983  19.602  0.00  0.00    +0.000 C 
ATOM      3  C   UNL     1       1.703   7.084  20.802  0.00  0.00    +0.000 C 
ATOM      4  C   UNL     1       1.330   5.680  20.371  0.00  0.00    +0.000 C 
ATOM      5  C   UNL     1       2.307   5.191  19.304  0.00  0.00    +0.000 C 
ATOM      6  O   UNL     1       2.245   6.086  18.165  0.00  0.00    +0.000 OA
ATOM      7  C   UNL     1       2.322   7.435  18.322  0.00  0.00    +0.000 C 
ATOM      8  O   UNL     1       2.791   8.136  17.438  0.00  0.00    +0.000 OA
ENDROOT
BRANCH   1   9
ATOM      9  C   UNL     1       0.985  10.239  18.621  0.00  0.00    +0.000 C 
BRANCH   9  10
ATOM     10  C   UNL     1      -0.520  10.659  18.610  0.00  0.00    +0.000 C 
BRANCH  10  11
ATOM     11  C   UNL     1      -1.332  10.024  17.448  0.00  0.00    +0.000 C 
BRANCH  11  13
ATOM     12  C   UNL     1      -2.796  10.603  15.436  0.00  0.00    +0.000 C 
ATOM     13  C   UNL     1      -2.523  10.856  16.919  0.00  0.00    +0.000 C 
ATOM     14  C   UNL     1      -3.795  10.542  17.717  0.00  0.00    +0.000 C 
ENDBRANCH  11  13
ENDBRANCH  10  11
BRANCH  10  15
ATOM     15  C   UNL     1      -0.619  12.212  18.598  0.00  0.00    +0.000 C 
BRANCH  15  16
ATOM     16  C   UNL     1      -0.925  12.916  19.936  0.00  0.00    +0.000 C 
ATOM     17  C   UNL     1      -1.608  11.999  20.949  0.00  0.00    +0.000 C 
ATOM     18  C   UNL     1       0.379  13.463  20.530  0.00  0.00    +0.000 C 
ENDBRANCH  15  16
ENDBRANCH  10  15
ENDBRANCH   9  10
ENDBRANCH   1   9
BRANCH   5  19
ATOM     19  C   UNL     1       1.839   3.798  18.824  0.00  0.00    +0.000 C 
BRANCH  19  20
ATOM     20  O   UNL     1       1.719   3.723  17.408  0.00  0.00    +0.000 OA
ATOM     21  H   UNL     1       2.202   4.483  17.035  0.00  0.00    +0.000 HD
ENDBRANCH  19  20
ENDBRANCH   5  19
BRANCH   5  22
ATOM     22  C   UNL     1       3.774   5.129  19.786  0.00  0.00    +0.000 C 
BRANCH  22  23
ATOM     23  O   UNL     1       4.551   4.299  18.910  0.00  0.00    +0.000 OA
BRANCH  23  24
ATOM     24  C   UNL     1       5.786   4.778  18.594  0.00  0.00    +0.000 C 
ATOM     25  O   UNL     1       6.697   4.946  19.398  0.00  0.00    +0.000 OA
BRANCH  24  26
ATOM     26  C   UNL     1       5.913   5.026  17.093  0.00  0.00    +0.000 C 
ATOM     27  C   UNL     1       5.756   6.519  16.781  0.00  0.00    +0.000 C 
ATOM     28  C   UNL     1       7.304   4.560  16.640  0.00  0.00    +0.000 C 
ATOM     29  C   UNL     1       4.837   4.210  16.366  0.00  0.00    +0.000 C 
ENDBRANCH  24  26
ENDBRANCH  23  24
ENDBRANCH  22  23
ENDBRANCH   5  22
TORSDOF 12
ENDMDL
