MODEL 1
REMARK VINA RESULT:      -7.5      0.000      0.000
REMARK  Name = 
REMARK  6 active torsions:
REMARK  status: ('A' for Active; 'I' for Inactive)
REMARK    1  A    between atoms: C_2  and  C_12
REMARK    2  A    between atoms: N_3  and  C_4
REMARK    3  A    between atoms: C_4  and  C_5
REMARK    4  A    between atoms: C_5  and  C_6
REMARK    5  A    between atoms: C_15  and  C_16
REMARK    6  A    between atoms: C_16  and  N_17
REMARK                            x       y       z     vdW  Elec       q    Type
REMARK                         _______ _______ _______ _____ _____    ______ ____
ROOT
ATOM      1  O   UNL     1       7.508   5.669  19.856  0.00  0.00    +0.000 OA
ATOM      2  C   UNL     1       7.050   5.860  18.733  0.00  0.00    +0.000 C 
ATOM      3  N   UNL     1       7.482   6.928  17.968  0.00  0.00    +0.000 N 
ATOM      4  H   UNL     1       6.941   7.166  17.144  0.00  0.00    +0.000 HD
ENDROOT
BRANCH   2   5
ATOM      5  C   UNL     1       6.046   4.994  18.154  0.00  0.00    +0.000 A 
ATOM      6  C   UNL     1       5.641   5.005  16.837  0.00  0.00    +0.000 A 
ATOM      7  N   UNL     1       4.607   4.156  16.510  0.00  0.00    +0.000 NA
ATOM      8  C   UNL     1       4.218   3.494  17.579  0.00  0.00    +0.000 A 
ATOM      9  S   UNL     1       5.130   3.829  19.010  0.00  0.00    +0.000 S 
BRANCH   8  10
ATOM     10  C   UNL     1       3.013   2.579  17.618  0.00  0.00    +0.000 C 
BRANCH  10  11
ATOM     11  N   UNL     1       1.693   3.188  17.861  0.00  0.00    +0.000 NA
ATOM     12  C   UNL     1       1.730   4.561  18.357  0.00  0.00    +0.000 C 
ATOM     13  C   UNL     1       1.537   4.479  19.858  0.00  0.00    +0.000 C 
ATOM     14  C   UNL     1       0.737   3.208  20.076  0.00  0.00    +0.000 C 
ATOM     15  C   UNL     1       0.838   2.422  18.774  0.00  0.00    +0.000 C 
ENDBRANCH  10  11
ENDBRANCH   8  10
ENDBRANCH   2   5
BRANCH   3  16
ATOM     16  C   UNL     1       8.415   7.891  18.530  0.00  0.00    +0.000 C 
BRANCH  16  17
ATOM     17  C   UNL     1       8.186   9.301  18.007  0.00  0.00    +0.000 C 
BRANCH  17  18
ATOM     18  C   UNL     1       9.163  10.280  18.605  0.00  0.00    +0.000 A 
ATOM     19  C   UNL     1       9.242  10.452  19.985  0.00  0.00    +0.000 A 
ATOM     20  C   UNL     1      10.175  11.349  20.498  0.00  0.00    +0.000 A 
ATOM     21  C   UNL     1      10.992  12.056  19.625  0.00  0.00    +0.000 A 
ATOM     22  C   UNL     1      10.836  11.841  18.267  0.00  0.00    +0.000 A 
ATOM     23  N   UNL     1       9.943  10.973  17.740  0.00  0.00    +0.000 NA
ENDBRANCH  17  18
ENDBRANCH  16  17
ENDBRANCH   3  16
TORSDOF 6
ENDMDL
MODEL 2
REMARK VINA RESULT:      -7.3      1.527      1.815
REMARK  Name = 
REMARK  6 active torsions:
REMARK  status: ('A' for Active; 'I' for Inactive)
REMARK    1  A    between atoms: C_2  and  C_12
REMARK    2  A    between atoms: N_3  and  C_4
REMARK    3  A    between atoms: C_4  and  C_5
REMARK    4  A    between atoms: C_5  and  C_6
REMARK    5  A    between atoms: C_15  and  C_16
REMARK    6  A    between atoms: C_16  and  N_17
REMARK                            x       y       z     vdW  Elec       q    Type
REMARK                         _______ _______ _______ _____ _____    ______ ____
ROOT
ATOM      1  O   UNL     1       7.817   6.809  16.255  0.00  0.00    +0.000 OA
ATOM      2  C   UNL     1       7.216   6.928  17.318  0.00  0.00    +0.000 C 
ATOM      3  N   UNL     1       7.385   8.055  18.102  0.00  0.00    +0.000 N 
ATOM      4  H   UNL     1       7.035   8.024  19.053  0.00  0.00    +0.000 HD
ENDROOT
BRANCH   2   5
ATOM      5  C   UNL     1       6.312   5.910  17.809  0.00  0.00    +0.000 A 
ATOM      6  C   UNL     1       6.361   5.328  19.057  0.00  0.00    +0.000 A 
ATOM      7  N   UNL     1       5.460   4.314  19.294  0.00  0.00    +0.000 NA
ATOM      8  C   UNL     1       4.719   4.118  18.224  0.00  0.00    +0.000 A 
ATOM      9  S   UNL     1       5.043   5.195  16.910  0.00  0.00    +0.000 S 
BRANCH   8  10
ATOM     10  C   UNL     1       3.721   2.990  18.079  0.00  0.00    +0.000 C 
BRANCH  10  11
ATOM     11  N   UNL     1       2.289   3.337  18.046  0.00  0.00    +0.000 NA
ATOM     12  C   UNL     1       1.945   4.596  18.700  0.00  0.00    +0.000 C 
ATOM     13  C   UNL     1       1.428   4.235  20.079  0.00  0.00    +0.000 C 
ATOM     14  C   UNL     1       0.858   2.837  19.923  0.00  0.00    +0.000 C 
ATOM     15  C   UNL     1       1.409   2.306  18.605  0.00  0.00    +0.000 C 
ENDBRANCH  10  11
ENDBRANCH   8  10
ENDBRANCH   2   5
BRANCH   3  16
ATOM     16  C   UNL     1       8.352   9.069  17.715  0.00  0.00    +0.000 C 
BRANCH  16  17
ATOM     17  C   UNL     1       8.995   9.751  18.913  0.00  0.00    +0.000 C 
BRANCH  17  18
ATOM     18  C   UNL     1       9.602  11.078  18.536  0.00  0.00    +0.000 A 
ATOM     19  C   UNL     1      10.920  11.378  18.872  0.00  0.00    +0.000 A 
ATOM     20  C   UNL     1      11.449  12.606  18.485  0.00  0.00    +0.000 A 
ATOM     21  C   UNL     1      10.651  13.502  17.785  0.00  0.00    +0.000 A 
ATOM     22  C   UNL     1       9.346  13.134  17.507  0.00  0.00    +0.000 A 
ATOM     23  N   UNL     1       8.807  11.947  17.866  0.00  0.00    +0.000 NA
ENDBRANCH  17  18
ENDBRANCH  16  17
ENDBRANCH   3  16
TORSDOF 6
ENDMDL
MODEL 3
REMARK VINA RESULT:      -7.1      1.425      1.641
REMARK  Name = 
REMARK  6 active torsions:
REMARK  status: ('A' for Active; 'I' for Inactive)
REMARK    1  A    between atoms: C_2  and  C_12
REMARK    2  A    between atoms: N_3  and  C_4
REMARK    3  A    between atoms: C_4  and  C_5
REMARK    4  A    between atoms: C_5  and  C_6
REMARK    5  A    between atoms: C_15  and  C_16
REMARK    6  A    between atoms: C_16  and  N_17
REMARK                            x       y       z     vdW  Elec       q    Type
REMARK                         _______ _______ _______ _____ _____    ______ ____
ROOT
ATOM      1  O   UNL     1       7.663   6.454  16.188  0.00  0.00    +0.000 OA
ATOM      2  C   UNL     1       6.840   6.654  17.077  0.00  0.00    +0.000 C 
ATOM      3  N   UNL     1       7.082   7.594  18.062  0.00  0.00    +0.000 N 
ATOM      4  H   UNL     1       6.482   7.584  18.880  0.00  0.00    +0.000 HD
ENDROOT
BRANCH   2   5
ATOM      5  C   UNL     1       5.592   5.927  17.148  0.00  0.00    +0.000 A 
ATOM      6  C   UNL     1       4.364   6.470  17.458  0.00  0.00    +0.000 A 
ATOM      7  N   UNL     1       3.312   5.586  17.557  0.00  0.00    +0.000 NA
ATOM      8  C   UNL     1       3.736   4.362  17.323  0.00  0.00    +0.000 A 
ATOM      9  S   UNL     1       5.412   4.241  16.914  0.00  0.00    +0.000 S 
BRANCH   8  10
ATOM     10  C   UNL     1       2.881   3.124  17.485  0.00  0.00    +0.000 C 
BRANCH  10  11
ATOM     11  N   UNL     1       2.804   2.509  18.822  0.00  0.00    +0.000 NA
ATOM     12  C   UNL     1       1.468   2.077  19.225  0.00  0.00    +0.000 C 
ATOM     13  C   UNL     1       0.918   3.169  20.122  0.00  0.00    +0.000 C 
ATOM     14  C   UNL     1       2.145   3.815  20.740  0.00  0.00    +0.000 C 
ATOM     15  C   UNL     1       3.329   3.352  19.901  0.00  0.00    +0.000 C 
ENDBRANCH  10  11
ENDBRANCH   8  10
ENDBRANCH   2   5
BRANCH   3  16
ATOM     16  C   UNL     1       8.359   8.287  18.105  0.00  0.00    +0.000 C 
BRANCH  16  17
ATOM     17  C   UNL     1       8.229   9.772  17.797  0.00  0.00    +0.000 C 
BRANCH  17  18
ATOM     18  C   UNL     1       9.284  10.580  18.506  0.00  0.00    +0.000 A 
ATOM     19  C   UNL     1       9.323  10.634  19.898  0.00  0.00    +0.000 A 
ATOM     20  C   UNL     1      10.329  11.373  20.514  0.00  0.00    +0.000 A 
ATOM     21  C   UNL     1      11.258  12.045  19.730  0.00  0.00    +0.000 A 
ATOM     22  C   UNL     1      11.137  11.955  18.355  0.00  0.00    +0.000 A 
ATOM     23  N   UNL     1      10.175  11.241  17.728  0.00  0.00    +0.000 NA
ENDBRANCH  17  18
ENDBRANCH  16  17
ENDBRANCH   3  16
TORSDOF 6
ENDMDL
MODEL 4
REMARK VINA RESULT:      -7.0      1.303      1.336
REMARK  Name = 
REMARK  6 active torsions:
REMARK  status: ('A' for Active; 'I' for Inactive)
REMARK    1  A    between atoms: C_2  and  C_12
REMARK    2  A    between atoms: N_3  and  C_4
REMARK    3  A    between atoms: C_4  and  C_5
REMARK    4  A    between atoms: C_5  and  C_6
REMARK    5  A    between atoms: C_15  and  C_16
REMARK    6  A    between atoms: C_16  and  N_17
REMARK                            x       y       z     vdW  Elec       q    Type
REMARK                         _______ _______ _______ _____ _____    ______ ____
ROOT
ATOM      1  O   UNL     1       7.901   6.542  16.102  0.00  0.00    +0.000 OA
ATOM      2  C   UNL     1       7.063   6.561  16.999  0.00  0.00    +0.000 C 
ATOM      3  N   UNL     1       6.921   7.674  17.808  0.00  0.00    +0.000 N 
ATOM      4  H   UNL     1       6.370   7.575  18.652  0.00  0.00    +0.000 HD
ENDROOT
BRANCH   2   5
ATOM      5  C   UNL     1       6.192   5.437  17.261  0.00  0.00    +0.000 A 
ATOM      6  C   UNL     1       5.489   4.727  16.311  0.00  0.00    +0.000 A 
ATOM      7  N   UNL     1       4.647   3.745  16.781  0.00  0.00    +0.000 NA
ATOM      8  C   UNL     1       4.702   3.702  18.096  0.00  0.00    +0.000 A 
ATOM      9  S   UNL     1       5.824   4.808  18.810  0.00  0.00    +0.000 S 
BRANCH   8  10
ATOM     10  C   UNL     1       3.804   2.838  18.955  0.00  0.00    +0.000 C 
BRANCH  10  11
ATOM     11  N   UNL     1       2.360   3.135  18.958  0.00  0.00    +0.000 NA
ATOM     12  C   UNL     1       2.019   4.526  19.248  0.00  0.00    +0.000 C 
ATOM     13  C   UNL     1       1.638   4.576  20.715  0.00  0.00    +0.000 C 
ATOM     14  C   UNL     1       1.120   3.184  21.028  0.00  0.00    +0.000 C 
ATOM     15  C   UNL     1       1.578   2.299  19.875  0.00  0.00    +0.000 C 
ENDBRANCH  10  11
ENDBRANCH   8  10
ENDBRANCH   2   5
BRANCH   3  16
ATOM     16  C   UNL     1       7.832   8.798  17.660  0.00  0.00    +0.000 C 
BRANCH  16  17
ATOM     17  C   UNL     1       8.810   8.914  18.819  0.00  0.00    +0.000 C 
BRANCH  17  18
ATOM     18  C   UNL     1       9.248  10.339  19.034  0.00  0.00    +0.000 A 
ATOM     19  C   UNL     1       9.427  10.842  20.321  0.00  0.00    +0.000 A 
ATOM     20  C   UNL     1       9.856  12.158  20.474  0.00  0.00    +0.000 A 
ATOM     21  C   UNL     1      10.084  12.936  19.347  0.00  0.00    +0.000 A 
ATOM     22  C   UNL     1       9.864  12.366  18.105  0.00  0.00    +0.000 A 
ATOM     23  N   UNL     1       9.453  11.091  17.925  0.00  0.00    +0.000 NA
ENDBRANCH  17  18
ENDBRANCH  16  17
ENDBRANCH   3  16
TORSDOF 6
ENDMDL
MODEL 5
REMARK VINA RESULT:      -7.0      1.662      1.985
REMARK  Name = 
REMARK  6 active torsions:
REMARK  status: ('A' for Active; 'I' for Inactive)
REMARK    1  A    between atoms: C_2  and  C_12
REMARK    2  A    between atoms: N_3  and  C_4
REMARK    3  A    between atoms: C_4  and  C_5
REMARK    4  A    between atoms: C_5  and  C_6
REMARK    5  A    between atoms: C_15  and  C_16
REMARK    6  A    between atoms: C_16  and  N_17
REMARK                            x       y       z     vdW  Elec       q    Type
REMARK                         _______ _______ _______ _____ _____    ______ ____
ROOT
ATOM      1  O   UNL     1       7.617   6.470  16.244  0.00  0.00    +0.000 OA
ATOM      2  C   UNL     1       6.897   6.753  17.197  0.00  0.00    +0.000 C 
ATOM      3  N   UNL     1       7.064   7.947  17.876  0.00  0.00    +0.000 N 
ATOM      4  H   UNL     1       6.593   8.050  18.768  0.00  0.00    +0.000 HD
ENDROOT
BRANCH   2   5
ATOM      5  C   UNL     1       5.850   5.869  17.660  0.00  0.00    +0.000 A 
ATOM      6  C   UNL     1       6.039   4.606  18.179  0.00  0.00    +0.000 A 
ATOM      7  N   UNL     1       4.900   3.893  18.481  0.00  0.00    +0.000 NA
ATOM      8  C   UNL     1       3.836   4.611  18.191  0.00  0.00    +0.000 A 
ATOM      9  S   UNL     1       4.173   6.201  17.599  0.00  0.00    +0.000 S 
BRANCH   8  10
ATOM     10  C   UNL     1       2.416   4.090  18.262  0.00  0.00    +0.000 C 
BRANCH  10  11
ATOM     11  N   UNL     1       1.625   4.410  19.464  0.00  0.00    +0.000 NA
ATOM     12  C   UNL     1       2.411   4.767  20.642  0.00  0.00    +0.000 C 
ATOM     13  C   UNL     1       2.487   3.519  21.499  0.00  0.00    +0.000 C 
ATOM     14  C   UNL     1       1.231   2.738  21.158  0.00  0.00    +0.000 C 
ATOM     15  C   UNL     1       0.696   3.350  19.869  0.00  0.00    +0.000 C 
ENDBRANCH  10  11
ENDBRANCH   8  10
ENDBRANCH   2   5
BRANCH   3  16
ATOM     16  C   UNL     1       8.160   8.834  17.523  0.00  0.00    +0.000 C 
BRANCH  16  17
ATOM     17  C   UNL     1       8.815   9.467  18.742  0.00  0.00    +0.000 C 
BRANCH  17  18
ATOM     18  C   UNL     1       9.341  10.845  18.436  0.00  0.00    +0.000 A 
ATOM     19  C   UNL     1       8.530  11.794  17.815  0.00  0.00    +0.000 A 
ATOM     20  C   UNL     1       9.047  13.063  17.571  0.00  0.00    +0.000 A 
ATOM     21  C   UNL     1      10.356  13.348  17.940  0.00  0.00    +0.000 A 
ATOM     22  C   UNL     1      11.100  12.344  18.533  0.00  0.00    +0.000 A 
ATOM     23  N   UNL     1      10.623  11.104  18.788  0.00  0.00    +0.000 NA
ENDBRANCH  17  18
ENDBRANCH  16  17
ENDBRANCH   3  16
TORSDOF 6
ENDMDL
MODEL 6
REMARK VINA RESULT:      -7.0      3.918      5.994
REMARK  Name = 
REMARK  6 active torsions:
REMARK  status: ('A' for Active; 'I' for Inactive)
REMARK    1  A    between atoms: C_2  and  C_12
REMARK    2  A    between atoms: N_3  and  C_4
REMARK    3  A    between atoms: C_4  and  C_5
REMARK    4  A    between atoms: C_5  and  C_6
REMARK    5  A    between atoms: C_15  and  C_16
REMARK    6  A    between atoms: C_16  and  N_17
REMARK                            x       y       z     vdW  Elec       q    Type
REMARK                         _______ _______ _______ _____ _____    ______ ____
ROOT
ATOM      1  O   UNL     1       2.123   3.868  17.224  0.00  0.00    +0.000 OA
ATOM      2  C   UNL     1       2.875   4.722  17.686  0.00  0.00    +0.000 C 
ATOM      3  N   UNL     1       4.133   4.919  17.147  0.00  0.00    +0.000 N 
ATOM      4  H   UNL     1       4.789   5.481  17.677  0.00  0.00    +0.000 HD
ENDROOT
BRANCH   2   5
ATOM      5  C   UNL     1       2.496   5.554  18.806  0.00  0.00    +0.000 A 
ATOM      6  C   UNL     1       1.947   5.107  19.989  0.00  0.00    +0.000 A 
ATOM      7  N   UNL     1       1.578   6.076  20.895  0.00  0.00    +0.000 NA
ATOM      8  C   UNL     1       1.842   7.269  20.406  0.00  0.00    +0.000 A 
ATOM      9  S   UNL     1       2.607   7.262  18.854  0.00  0.00    +0.000 S 
BRANCH   8  10
ATOM     10  C   UNL     1       1.439   8.567  21.071  0.00  0.00    +0.000 C 
BRANCH  10  11
ATOM     11  N   UNL     1      -0.000   8.852  21.209  0.00  0.00    +0.000 NA
ATOM     12  C   UNL     1      -0.470  10.024  20.475  0.00  0.00    +0.000 C 
ATOM     13  C   UNL     1      -0.544  11.157  21.479  0.00  0.00    +0.000 C 
ATOM     14  C   UNL     1      -0.783  10.475  22.814  0.00  0.00    +0.000 C 
ATOM     15  C   UNL     1      -0.451   9.004  22.597  0.00  0.00    +0.000 C 
ENDBRANCH  10  11
ENDBRANCH   8  10
ENDBRANCH   2   5
BRANCH   3  16
ATOM     16  C   UNL     1       4.611   4.049  16.085  0.00  0.00    +0.000 C 
BRANCH  16  17
ATOM     17  C   UNL     1       6.130   4.024  15.989  0.00  0.00    +0.000 C 
BRANCH  17  18
ATOM     18  C   UNL     1       6.758   5.073  16.869  0.00  0.00    +0.000 A 
ATOM     19  C   UNL     1       7.401   4.716  18.052  0.00  0.00    +0.000 A 
ATOM     20  C   UNL     1       7.990   5.713  18.825  0.00  0.00    +0.000 A 
ATOM     21  C   UNL     1       7.913   7.035  18.405  0.00  0.00    +0.000 A 
ATOM     22  C   UNL     1       7.239   7.307  17.227  0.00  0.00    +0.000 A 
ATOM     23  N   UNL     1       6.663   6.359  16.453  0.00  0.00    +0.000 NA
ENDBRANCH  17  18
ENDBRANCH  16  17
ENDBRANCH   3  16
TORSDOF 6
ENDMDL
MODEL 7
REMARK VINA RESULT:      -7.0      1.262      1.737
REMARK  Name = 
REMARK  6 active torsions:
REMARK  status: ('A' for Active; 'I' for Inactive)
REMARK    1  A    between atoms: C_2  and  C_12
REMARK    2  A    between atoms: N_3  and  C_4
REMARK    3  A    between atoms: C_4  and  C_5
REMARK    4  A    between atoms: C_5  and  C_6
REMARK    5  A    between atoms: C_15  and  C_16
REMARK    6  A    between atoms: C_16  and  N_17
REMARK                            x       y       z     vdW  Elec       q    Type
REMARK                         _______ _______ _______ _____ _____    ______ ____
ROOT
ATOM      1  O   UNL     1       8.007   6.258  18.806  0.00  0.00    +0.000 OA
ATOM      2  C   UNL     1       7.152   6.743  18.070  0.00  0.00    +0.000 C 
ATOM      3  N   UNL     1       7.351   7.976  17.476  0.00  0.00    +0.000 N 
ATOM      4  H   UNL     1       6.550   8.427  17.048  0.00  0.00    +0.000 HD
ENDROOT
BRANCH   2   5
ATOM      5  C   UNL     1       5.905   6.067  17.790  0.00  0.00    +0.000 A 
ATOM      6  C   UNL     1       4.702   6.683  17.517  0.00  0.00    +0.000 A 
ATOM      7  N   UNL     1       3.613   5.854  17.363  0.00  0.00    +0.000 NA
ATOM      8  C   UNL     1       3.981   4.600  17.520  0.00  0.00    +0.000 A 
ATOM      9  S   UNL     1       5.673   4.371  17.799  0.00  0.00    +0.000 S 
BRANCH   8  10
ATOM     10  C   UNL     1       3.020   3.432  17.558  0.00  0.00    +0.000 C 
BRANCH  10  11
ATOM     11  N   UNL     1       2.800   2.762  18.852  0.00  0.00    +0.000 NA
ATOM     12  C   UNL     1       1.534   2.042  18.965  0.00  0.00    +0.000 C 
ATOM     13  C   UNL     1       0.588   2.957  19.718  0.00  0.00    +0.000 C 
ATOM     14  C   UNL     1       1.490   3.823  20.578  0.00  0.00    +0.000 C 
ATOM     15  C   UNL     1       2.894   3.654  20.012  0.00  0.00    +0.000 C 
ENDBRANCH  10  11
ENDBRANCH   8  10
ENDBRANCH   2   5
BRANCH   3  16
ATOM     16  C   UNL     1       8.539   8.751  17.795  0.00  0.00    +0.000 C 
BRANCH  16  17
ATOM     17  C   UNL     1       8.226  10.214  18.074  0.00  0.00    +0.000 C 
BRANCH  17  18
ATOM     18  C   UNL     1       9.392  10.918  18.716  0.00  0.00    +0.000 A 
ATOM     19  C   UNL     1      10.451  11.390  17.943  0.00  0.00    +0.000 A 
ATOM     20  C   UNL     1      11.498  12.056  18.574  0.00  0.00    +0.000 A 
ATOM     21  C   UNL     1      11.469  12.223  19.952  0.00  0.00    +0.000 A 
ATOM     22  C   UNL     1      10.390  11.706  20.648  0.00  0.00    +0.000 A 
ATOM     23  N   UNL     1       9.356  11.060  20.063  0.00  0.00    +0.000 NA
ENDBRANCH  17  18
ENDBRANCH  16  17
ENDBRANCH   3  16
TORSDOF 6
ENDMDL
MODEL 8
REMARK VINA RESULT:      -7.0      1.039      1.435
REMARK  Name = 
REMARK  6 active torsions:
REMARK  status: ('A' for Active; 'I' for Inactive)
REMARK    1  A    between atoms: C_2  and  C_12
REMARK    2  A    between atoms: N_3  and  C_4
REMARK    3  A    between atoms: C_4  and  C_5
REMARK    4  A    between atoms: C_5  and  C_6
REMARK    5  A    between atoms: C_15  and  C_16
REMARK    6  A    between atoms: C_16  and  N_17
REMARK                            x       y       z     vdW  Elec       q    Type
REMARK                         _______ _______ _______ _____ _____    ______ ____
ROOT
ATOM      1  O   UNL     1       8.003   5.636  19.362  0.00  0.00    +0.000 OA
ATOM      2  C   UNL     1       7.217   5.994  18.489  0.00  0.00    +0.000 C 
ATOM      3  N   UNL     1       7.353   7.229  17.881  0.00  0.00    +0.000 N 
ATOM      4  H   UNL     1       6.578   7.566  17.322  0.00  0.00    +0.000 HD
ENDROOT
BRANCH   2   5
ATOM      5  C   UNL     1       6.118   5.160  18.055  0.00  0.00    +0.000 A 
ATOM      6  C   UNL     1       6.152   4.275  16.999  0.00  0.00    +0.000 A 
ATOM      7  N   UNL     1       4.968   3.639  16.696  0.00  0.00    +0.000 NA
ATOM      8  C   UNL     1       4.024   4.039  17.522  0.00  0.00    +0.000 A 
ATOM      9  S   UNL     1       4.548   5.155  18.736  0.00  0.00    +0.000 S 
BRANCH   8  10
ATOM     10  C   UNL     1       2.566   3.655  17.394  0.00  0.00    +0.000 C 
BRANCH  10  11
ATOM     11  N   UNL     1       2.081   2.517  18.196  0.00  0.00    +0.000 NA
ATOM     12  C   UNL     1       0.748   2.691  18.769  0.00  0.00    +0.000 C 
ATOM     13  C   UNL     1       0.954   3.117  20.209  0.00  0.00    +0.000 C 
ATOM     14  C   UNL     1       2.297   2.525  20.599  0.00  0.00    +0.000 C 
ATOM     15  C   UNL     1       2.975   2.131  19.292  0.00  0.00    +0.000 C 
ENDBRANCH  10  11
ENDBRANCH   8  10
ENDBRANCH   2   5
BRANCH   3  16
ATOM     16  C   UNL     1       8.376   8.154  18.341  0.00  0.00    +0.000 C 
BRANCH  16  17
ATOM     17  C   UNL     1       8.260   9.525  17.691  0.00  0.00    +0.000 C 
BRANCH  17  18
ATOM     18  C   UNL     1       8.982  10.579  18.488  0.00  0.00    +0.000 A 
ATOM     19  C   UNL     1       9.249  11.830  17.935  0.00  0.00    +0.000 A 
ATOM     20  C   UNL     1       9.898  12.784  18.713  0.00  0.00    +0.000 A 
ATOM     21  C   UNL     1      10.271  12.465  20.012  0.00  0.00    +0.000 A 
ATOM     22  C   UNL     1       9.985  11.194  20.479  0.00  0.00    +0.000 A 
ATOM     23  N   UNL     1       9.352  10.249  19.749  0.00  0.00    +0.000 NA
ENDBRANCH  17  18
ENDBRANCH  16  17
ENDBRANCH   3  16
TORSDOF 6
ENDMDL
MODEL 9
REMARK VINA RESULT:      -6.8      5.153      8.411
REMARK  Name = 
REMARK  6 active torsions:
REMARK  status: ('A' for Active; 'I' for Inactive)
REMARK    1  A    between atoms: C_2  and  C_12
REMARK    2  A    between atoms: N_3  and  C_4
REMARK    3  A    between atoms: C_4  and  C_5
REMARK    4  A    between atoms: C_5  and  C_6
REMARK    5  A    between atoms: C_15  and  C_16
REMARK    6  A    between atoms: C_16  and  N_17
REMARK                            x       y       z     vdW  Elec       q    Type
REMARK                         _______ _______ _______ _____ _____    ______ ____
ROOT
ATOM      1  O   UNL     1       4.511   7.236  17.312  0.00  0.00    +0.000 OA
ATOM      2  C   UNL     1       3.508   6.831  17.894  0.00  0.00    +0.000 C 
ATOM      3  N   UNL     1       3.195   5.484  17.904  0.00  0.00    +0.000 N 
ATOM      4  H   UNL     1       2.267   5.219  18.214  0.00  0.00    +0.000 HD
ENDROOT
BRANCH   2   5
ATOM      5  C   UNL     1       2.607   7.726  18.587  0.00  0.00    +0.000 A 
ATOM      6  C   UNL     1       2.147   7.561  19.875  0.00  0.00    +0.000 A 
ATOM      7  N   UNL     1       1.226   8.484  20.318  0.00  0.00    +0.000 NA
ATOM      8  C   UNL     1       0.977   9.357  19.365  0.00  0.00    +0.000 A 
ATOM      9  S   UNL     1       1.896   9.131  17.917  0.00  0.00    +0.000 S 
BRANCH   8  10
ATOM     10  C   UNL     1      -0.090  10.427  19.452  0.00  0.00    +0.000 C 
BRANCH  10  11
ATOM     11  N   UNL     1      -0.725  10.871  18.199  0.00  0.00    +0.000 NA
ATOM     12  C   UNL     1      -1.531  12.084  18.313  0.00  0.00    +0.000 C 
ATOM     13  C   UNL     1      -2.973  11.630  18.429  0.00  0.00    +0.000 C 
ATOM     14  C   UNL     1      -3.016  10.294  17.711  0.00  0.00    +0.000 C 
ATOM     15  C   UNL     1      -1.565   9.853  17.559  0.00  0.00    +0.000 C 
ENDBRANCH  10  11
ENDBRANCH   8  10
ENDBRANCH   2   5
BRANCH   3  16
ATOM     16  C   UNL     1       4.005   4.546  17.144  0.00  0.00    +0.000 C 
BRANCH  16  17
ATOM     17  C   UNL     1       3.876   3.117  17.651  0.00  0.00    +0.000 C 
BRANCH  17  18
ATOM     18  C   UNL     1       2.906   3.022  18.800  0.00  0.00    +0.000 A 
ATOM     19  C   UNL     1       1.569   2.698  18.576  0.00  0.00    +0.000 A 
ATOM     20  C   UNL     1       0.710   2.597  19.667  0.00  0.00    +0.000 A 
ATOM     21  C   UNL     1       1.202   2.832  20.945  0.00  0.00    +0.000 A 
ATOM     22  C   UNL     1       2.538   3.168  21.078  0.00  0.00    +0.000 A 
ATOM     23  N   UNL     1       3.396   3.268  20.038  0.00  0.00    +0.000 NA
ENDBRANCH  17  18
ENDBRANCH  16  17
ENDBRANCH   3  16
TORSDOF 6
ENDMDL
