MODEL 1
REMARK VINA RESULT:      -6.8      0.000      0.000
REMARK  Name = 
REMARK  7 active torsions:
REMARK  status: ('A' for Active; 'I' for Inactive)
REMARK    1  A    between atoms: C_1  and  O_2
REMARK    2  A    between atoms: O_2  and  C_3
REMARK    3  A    between atoms: C_8  and  C_9
REMARK    4  A    between atoms: C_9  and  C_10
REMARK    5  A    between atoms: N_12  and  CA_13
REMARK    6  A    between atoms: CA_17  and  C_18
REMARK    7  A    between atoms: C_18  and  OXT_20
REMARK                            x       y       z     vdW  Elec       q    Type
REMARK                         _______ _______ _______ _____ _____    ______ ____
ROOT
ATOM      1  CA  UNL     1       1.461   8.966  21.503  0.00  0.00    +0.000 C 
ATOM      2  C   UNL     1       0.573   9.678  22.580  0.00  0.00    +0.000 C 
ATOM      3  O   UNL     1       0.328   9.584  23.761  0.00  0.00    +0.000 OA
ATOM      4  N   UNL     1       0.015  10.437  21.622  0.00  0.00    +0.000 N 
ATOM      5  CA  UNL     1      -0.908  11.426  21.497  0.00  0.00    +0.000 C 
ATOM      6  C   UNL     1      -1.417  11.650  20.267  0.00  0.00    +0.000 C 
ATOM      7 CL   UNL     1      -2.740  12.752  19.966  0.00  0.00    +0.000 Cl
ATOM      8  C   UNL     1      -1.063  10.891  19.010  0.00  0.00    +0.000 C 
ATOM      9  S   UNL     1       0.454   9.907  18.973  0.00  0.00    +0.000 S 
ATOM     10  C   UNL     1       1.051  10.203  20.631  0.00  0.00    +0.000 C 
ENDROOT
BRANCH   1  13
ATOM     11  C   UNL     1       1.729   6.707  20.317  0.00  0.00    +0.000 C 
ATOM     12  O   UNL     1       2.776   6.999  19.748  0.00  0.00    +0.000 OA
ATOM     13  N   UNL     1       1.046   7.561  21.173  0.00  0.00    +0.000 N 
ATOM     14  H   UNL     1       0.050   7.358  21.211  0.00  0.00    +0.000 HD
BRANCH  11  15
ATOM     15  C   UNL     1       1.086   5.335  20.198  0.00  0.00    +0.000 C 
BRANCH  15  21
ATOM     16  C   UNL     1       2.697   3.352  20.022  0.00  0.00    +0.000 A 
ATOM     17  C   UNL     1       3.534   2.549  19.231  0.00  0.00    +0.000 A 
ATOM     18  C   UNL     1       3.487   2.621  17.842  0.00  0.00    +0.000 A 
ATOM     19  C   UNL     1       2.618   3.515  17.227  0.00  0.00    +0.000 A 
ATOM     20  C   UNL     1       1.830   4.364  18.005  0.00  0.00    +0.000 A 
ATOM     21  C   UNL     1       1.867   4.307  19.411  0.00  0.00    +0.000 A 
BRANCH  16  23
ATOM     22  C   UNL     1       1.664   2.373  21.892  0.00  0.00    +0.000 C 
ATOM     23  O   UNL     1       2.669   3.266  21.392  0.00  0.00    +0.000 OA
ENDBRANCH  16  23
ENDBRANCH  15  21
ENDBRANCH  11  15
ENDBRANCH   1  13
BRANCH   5  24
ATOM     24  C   UNL     1      -1.390  12.192  22.700  0.00  0.00    +0.000 C 
ATOM     25  O   UNL     1      -0.974  13.307  22.998  0.00  0.00    +0.000 OA
BRANCH  24  26
ATOM     26  OXT UNL     1      -2.274  11.572  23.499  0.00  0.00    +0.000 OA
ATOM     27  HXT UNL     1      -3.140  11.311  23.113  0.00  0.00    +0.000 HD
ENDBRANCH  24  26
ENDBRANCH   5  24
TORSDOF 6
ENDMDL
MODEL 2
REMARK VINA RESULT:      -6.6      4.333      8.338
REMARK  Name = 
REMARK  7 active torsions:
REMARK  status: ('A' for Active; 'I' for Inactive)
REMARK    1  A    between atoms: C_1  and  O_2
REMARK    2  A    between atoms: O_2  and  C_3
REMARK    3  A    between atoms: C_8  and  C_9
REMARK    4  A    between atoms: C_9  and  C_10
REMARK    5  A    between atoms: N_12  and  CA_13
REMARK    6  A    between atoms: CA_17  and  C_18
REMARK    7  A    between atoms: C_18  and  OXT_20
REMARK                            x       y       z     vdW  Elec       q    Type
REMARK                         _______ _______ _______ _____ _____    ______ ____
ROOT
ATOM      1  CA  UNL     1       4.346   4.429  19.992  0.00  0.00    +0.000 C 
ATOM      2  C   UNL     1       5.730   4.880  19.412  0.00  0.00    +0.000 C 
ATOM      3  O   UNL     1       6.714   5.483  19.776  0.00  0.00    +0.000 OA
ATOM      4  N   UNL     1       5.370   4.431  18.198  0.00  0.00    +0.000 N 
ATOM      5  CA  UNL     1       5.880   4.335  16.942  0.00  0.00    +0.000 C 
ATOM      6  C   UNL     1       5.008   4.128  15.932  0.00  0.00    +0.000 C 
ATOM      7 CL   UNL     1       5.472   4.165  14.247  0.00  0.00    +0.000 Cl
ATOM      8  C   UNL     1       3.509   4.006  16.067  0.00  0.00    +0.000 C 
ATOM      9  S   UNL     1       2.797   3.653  17.691  0.00  0.00    +0.000 S 
ATOM     10  C   UNL     1       4.289   3.586  18.672  0.00  0.00    +0.000 C 
ENDROOT
BRANCH   1  13
ATOM     11  C   UNL     1       2.075   5.389  20.702  0.00  0.00    +0.000 C 
ATOM     12  O   UNL     1       1.547   4.300  20.901  0.00  0.00    +0.000 OA
ATOM     13  N   UNL     1       3.391   5.549  20.288  0.00  0.00    +0.000 N 
ATOM     14  H   UNL     1       3.535   6.419  19.779  0.00  0.00    +0.000 HD
BRANCH  11  15
ATOM     15  C   UNL     1       1.358   6.705  20.951  0.00  0.00    +0.000 C 
BRANCH  15  21
ATOM     16  C   UNL     1       1.104   9.099  20.077  0.00  0.00    +0.000 A 
ATOM     17  C   UNL     1       1.206  10.008  19.012  0.00  0.00    +0.000 A 
ATOM     18  C   UNL     1       1.877   9.662  17.841  0.00  0.00    +0.000 A 
ATOM     19  C   UNL     1       2.432   8.395  17.714  0.00  0.00    +0.000 A 
ATOM     20  C   UNL     1       2.279   7.462  18.741  0.00  0.00    +0.000 A 
ATOM     21  C   UNL     1       1.602   7.794  19.929  0.00  0.00    +0.000 A 
BRANCH  16  23
ATOM     22  C   UNL     1      -0.065  10.738  21.290  0.00  0.00    +0.000 C 
ATOM     23  O   UNL     1       0.507   9.423  21.270  0.00  0.00    +0.000 OA
ENDBRANCH  16  23
ENDBRANCH  15  21
ENDBRANCH  11  15
ENDBRANCH   1  13
BRANCH   5  24
ATOM     24  C   UNL     1       7.352   4.520  16.687  0.00  0.00    +0.000 C 
ATOM     25  O   UNL     1       7.797   5.062  15.680  0.00  0.00    +0.000 OA
BRANCH  24  26
ATOM     26  OXT UNL     1       8.194   4.003  17.596  0.00  0.00    +0.000 OA
ATOM     27  HXT UNL     1       8.824   4.613  18.042  0.00  0.00    +0.000 HD
ENDBRANCH  24  26
ENDBRANCH   5  24
TORSDOF 6
ENDMDL
MODEL 3
REMARK VINA RESULT:      -6.5      4.281      8.794
REMARK  Name = 
REMARK  7 active torsions:
REMARK  status: ('A' for Active; 'I' for Inactive)
REMARK    1  A    between atoms: C_1  and  O_2
REMARK    2  A    between atoms: O_2  and  C_3
REMARK    3  A    between atoms: C_8  and  C_9
REMARK    4  A    between atoms: C_9  and  C_10
REMARK    5  A    between atoms: N_12  and  CA_13
REMARK    6  A    between atoms: CA_17  and  C_18
REMARK    7  A    between atoms: C_18  and  OXT_20
REMARK                            x       y       z     vdW  Elec       q    Type
REMARK                         _______ _______ _______ _____ _____    ______ ____
ROOT
ATOM      1  CA  UNL     1       2.991   7.373  18.896  0.00  0.00    +0.000 C 
ATOM      2  C   UNL     1       3.898   6.809  17.750  0.00  0.00    +0.000 C 
ATOM      3  O   UNL     1       4.482   7.215  16.770  0.00  0.00    +0.000 OA
ATOM      4  N   UNL     1       3.690   5.559  18.196  0.00  0.00    +0.000 N 
ATOM      5  CA  UNL     1       4.049   4.284  17.895  0.00  0.00    +0.000 C 
ATOM      6  C   UNL     1       3.299   3.288  18.413  0.00  0.00    +0.000 C 
ATOM      7 CL   UNL     1       3.510   1.608  17.979  0.00  0.00    +0.000 Cl
ATOM      8  C   UNL     1       2.084   3.460  19.292  0.00  0.00    +0.000 C 
ATOM      9  S   UNL     1       1.811   5.046  20.118  0.00  0.00    +0.000 S 
ATOM     10  C   UNL     1       3.228   5.952  19.515  0.00  0.00    +0.000 C 
ENDROOT
BRANCH   1  13
ATOM     11  C   UNL     1       1.385   9.085  17.862  0.00  0.00    +0.000 C 
ATOM     12  O   UNL     1       2.250   9.918  17.610  0.00  0.00    +0.000 OA
ATOM     13  N   UNL     1       1.640   7.854  18.451  0.00  0.00    +0.000 N 
ATOM     14  H   UNL     1       0.836   7.493  18.959  0.00  0.00    +0.000 HD
BRANCH  11  15
ATOM     15  C   UNL     1      -0.075   9.285  17.492  0.00  0.00    +0.000 C 
BRANCH  15  21
ATOM     16  C   UNL     1      -2.143  10.695  18.037  0.00  0.00    +0.000 A 
ATOM     17  C   UNL     1      -2.732  11.727  18.784  0.00  0.00    +0.000 A 
ATOM     18  C   UNL     1      -2.091  12.252  19.903  0.00  0.00    +0.000 A 
ATOM     19  C   UNL     1      -0.842  11.769  20.272  0.00  0.00    +0.000 A 
ATOM     20  C   UNL     1      -0.219  10.790  19.497  0.00  0.00    +0.000 A 
ATOM     21  C   UNL     1      -0.851  10.249  18.362  0.00  0.00    +0.000 A 
BRANCH  16  23
ATOM     22  C   UNL     1      -2.879  10.962  15.821  0.00  0.00    +0.000 C 
ATOM     23  O   UNL     1      -2.770  10.107  16.966  0.00  0.00    +0.000 OA
ENDBRANCH  16  23
ENDBRANCH  15  21
ENDBRANCH  11  15
ENDBRANCH   1  13
BRANCH   5  24
ATOM     24  C   UNL     1       5.198   4.002  16.963  0.00  0.00    +0.000 C 
ATOM     25  O   UNL     1       5.057   3.816  15.759  0.00  0.00    +0.000 OA
BRANCH  24  26
ATOM     26  OXT UNL     1       6.416   3.896  17.519  0.00  0.00    +0.000 OA
ATOM     27  HXT UNL     1       6.563   3.176  18.173  0.00  0.00    +0.000 HD
ENDBRANCH  24  26
ENDBRANCH   5  24
TORSDOF 6
ENDMDL
MODEL 4
REMARK VINA RESULT:      -6.5      3.483      8.506
REMARK  Name = 
REMARK  7 active torsions:
REMARK  status: ('A' for Active; 'I' for Inactive)
REMARK    1  A    between atoms: C_1  and  O_2
REMARK    2  A    between atoms: O_2  and  C_3
REMARK    3  A    between atoms: C_8  and  C_9
REMARK    4  A    between atoms: C_9  and  C_10
REMARK    5  A    between atoms: N_12  and  CA_13
REMARK    6  A    between atoms: CA_17  and  C_18
REMARK    7  A    between atoms: C_18  and  OXT_20
REMARK                            x       y       z     vdW  Elec       q    Type
REMARK                         _______ _______ _______ _____ _____    ______ ____
ROOT
ATOM      1  CA  UNL     1       1.504   6.107  19.871  0.00  0.00    +0.000 C 
ATOM      2  C   UNL     1       2.217   4.828  20.429  0.00  0.00    +0.000 C 
ATOM      3  O   UNL     1       2.121   4.073  21.370  0.00  0.00    +0.000 OA
ATOM      4  N   UNL     1       3.154   4.930  19.473  0.00  0.00    +0.000 N 
ATOM      5  CA  UNL     1       4.271   4.281  19.050  0.00  0.00    +0.000 C 
ATOM      6  C   UNL     1       5.117   4.959  18.245  0.00  0.00    +0.000 C 
ATOM      7 CL   UNL     1       6.680   4.341  17.765  0.00  0.00    +0.000 Cl
ATOM      8  C   UNL     1       4.943   6.384  17.777  0.00  0.00    +0.000 C 
ATOM      9  S   UNL     1       3.310   7.154  17.887  0.00  0.00    +0.000 S 
ATOM     10  C   UNL     1       2.384   5.808  18.609  0.00  0.00    +0.000 C 
ENDROOT
BRANCH   1  13
ATOM     11  C   UNL     1       0.648   8.005  21.370  0.00  0.00    +0.000 C 
ATOM     12  O   UNL     1      -0.523   7.640  21.362  0.00  0.00    +0.000 OA
ATOM     13  N   UNL     1       1.674   7.340  20.712  0.00  0.00    +0.000 N 
ATOM     14  H   UNL     1       2.442   7.959  20.464  0.00  0.00    +0.000 HD
BRANCH  11  15
ATOM     15  C   UNL     1       1.125   9.208  22.167  0.00  0.00    +0.000 C 
BRANCH  15  21
ATOM     16  C   UNL     1       0.399  11.496  21.274  0.00  0.00    +0.000 A 
ATOM     17  C   UNL     1      -0.366  12.662  21.434  0.00  0.00    +0.000 A 
ATOM     18  C   UNL     1      -1.372  12.728  22.393  0.00  0.00    +0.000 A 
ATOM     19  C   UNL     1      -1.609  11.637  23.221  0.00  0.00    +0.000 A 
ATOM     20  C   UNL     1      -0.810  10.498  23.114  0.00  0.00    +0.000 A 
ATOM     21  C   UNL     1       0.214  10.414  22.151  0.00  0.00    +0.000 A 
BRANCH  16  23
ATOM     22  C   UNL     1       1.365  12.447  19.354  0.00  0.00    +0.000 C 
ATOM     23  O   UNL     1       1.357  11.368  20.298  0.00  0.00    +0.000 OA
ENDBRANCH  16  23
ENDBRANCH  15  21
ENDBRANCH  11  15
ENDBRANCH   1  13
BRANCH   5  24
ATOM     24  C   UNL     1       4.581   2.885  19.521  0.00  0.00    +0.000 C 
ATOM     25  O   UNL     1       5.167   2.644  20.571  0.00  0.00    +0.000 OA
BRANCH  24  26
ATOM     26  OXT UNL     1       4.238   1.879  18.699  0.00  0.00    +0.000 OA
ATOM     27  HXT UNL     1       4.300   2.034  17.730  0.00  0.00    +0.000 HD
ENDBRANCH  24  26
ENDBRANCH   5  24
TORSDOF 6
ENDMDL
MODEL 5
REMARK VINA RESULT:      -6.4      2.985      3.726
REMARK  Name = 
REMARK  7 active torsions:
REMARK  status: ('A' for Active; 'I' for Inactive)
REMARK    1  A    between atoms: C_1  and  O_2
REMARK    2  A    between atoms: O_2  and  C_3
REMARK    3  A    between atoms: C_8  and  C_9
REMARK    4  A    between atoms: C_9  and  C_10
REMARK    5  A    between atoms: N_12  and  CA_13
REMARK    6  A    between atoms: CA_17  and  C_18
REMARK    7  A    between atoms: C_18  and  OXT_20
REMARK                            x       y       z     vdW  Elec       q    Type
REMARK                         _______ _______ _______ _____ _____    ______ ____
ROOT
ATOM      1  CA  UNL     1       0.944   9.617  18.379  0.00  0.00    +0.000 C 
ATOM      2  C   UNL     1       1.766  10.939  18.210  0.00  0.00    +0.000 C 
ATOM      3  O   UNL     1       2.716  11.343  17.578  0.00  0.00    +0.000 OA
ATOM      4  N   UNL     1       1.063  11.507  19.203  0.00  0.00    +0.000 N 
ATOM      5  CA  UNL     1       0.984  12.692  19.864  0.00  0.00    +0.000 C 
ATOM      6  C   UNL     1       0.355  12.696  21.059  0.00  0.00    +0.000 C 
ATOM      7 CL   UNL     1       0.326  14.087  22.118  0.00  0.00    +0.000 Cl
ATOM      8  C   UNL     1      -0.262  11.498  21.740  0.00  0.00    +0.000 C 
ATOM      9  S   UNL     1      -0.621  10.018  20.764  0.00  0.00    +0.000 S 
ATOM     10  C   UNL     1      -0.035  10.557  19.165  0.00  0.00    +0.000 C 
ENDROOT
BRANCH   1  13
ATOM     11  C   UNL     1       2.620   7.675  18.396  0.00  0.00    +0.000 C 
ATOM     12  O   UNL     1       2.960   7.805  17.225  0.00  0.00    +0.000 OA
ATOM     13  N   UNL     1       1.691   8.489  19.030  0.00  0.00    +0.000 N 
ATOM     14  H   UNL     1       1.225   8.017  19.802  0.00  0.00    +0.000 HD
BRANCH  11  15
ATOM     15  C   UNL     1       3.235   6.634  19.316  0.00  0.00    +0.000 C 
BRANCH  15  21
ATOM     16  C   UNL     1       2.636   4.379  18.259  0.00  0.00    +0.000 A 
ATOM     17  C   UNL     1       1.835   3.226  18.259  0.00  0.00    +0.000 A 
ATOM     18  C   UNL     1       1.030   2.917  19.352  0.00  0.00    +0.000 A 
ATOM     19  C   UNL     1       0.997   3.771  20.447  0.00  0.00    +0.000 A 
ATOM     20  C   UNL     1       1.739   4.953  20.430  0.00  0.00    +0.000 A 
ATOM     21  C   UNL     1       2.556   5.283  19.332  0.00  0.00    +0.000 A 
BRANCH  16  23
ATOM     22  C   UNL     1       4.731   3.968  17.277  0.00  0.00    +0.000 C 
ATOM     23  O   UNL     1       3.491   4.686  17.229  0.00  0.00    +0.000 OA
ENDBRANCH  16  23
ENDBRANCH  15  21
ENDBRANCH  11  15
ENDBRANCH   1  13
BRANCH   5  24
ATOM     24  C   UNL     1       1.634  13.932  19.311  0.00  0.00    +0.000 C 
ATOM     25  O   UNL     1       1.000  14.861  18.822  0.00  0.00    +0.000 OA
BRANCH  24  26
ATOM     26  OXT UNL     1       2.976  13.965  19.313  0.00  0.00    +0.000 OA
ATOM     27  HXT UNL     1       3.432  14.247  18.489  0.00  0.00    +0.000 HD
ENDBRANCH  24  26
ENDBRANCH   5  24
TORSDOF 6
ENDMDL
MODEL 6
REMARK VINA RESULT:      -6.4      2.031      2.940
REMARK  Name = 
REMARK  7 active torsions:
REMARK  status: ('A' for Active; 'I' for Inactive)
REMARK    1  A    between atoms: C_1  and  O_2
REMARK    2  A    between atoms: O_2  and  C_3
REMARK    3  A    between atoms: C_8  and  C_9
REMARK    4  A    between atoms: C_9  and  C_10
REMARK    5  A    between atoms: N_12  and  CA_13
REMARK    6  A    between atoms: CA_17  and  C_18
REMARK    7  A    between atoms: C_18  and  OXT_20
REMARK                            x       y       z     vdW  Elec       q    Type
REMARK                         _______ _______ _______ _____ _____    ______ ____
ROOT
ATOM      1  CA  UNL     1       0.093  11.303  20.987  0.00  0.00    +0.000 C 
ATOM      2  C   UNL     1      -0.934  11.672  22.111  0.00  0.00    +0.000 C 
ATOM      3  O   UNL     1      -1.033  11.586  23.315  0.00  0.00    +0.000 OA
ATOM      4  N   UNL     1      -1.825  12.046  21.178  0.00  0.00    +0.000 N 
ATOM      5  CA  UNL     1      -3.085  12.549  21.099  0.00  0.00    +0.000 C 
ATOM      6  C   UNL     1      -3.726  12.435  19.916  0.00  0.00    +0.000 C 
ATOM      7 CL   UNL     1      -5.408  12.860  19.697  0.00  0.00    +0.000 Cl
ATOM      8  C   UNL     1      -3.175  11.787  18.669  0.00  0.00    +0.000 C 
ATOM      9  S   UNL     1      -1.392  11.521  18.528  0.00  0.00    +0.000 S 
ATOM     10  C   UNL     1      -0.859  12.179  20.102  0.00  0.00    +0.000 C 
ENDROOT
BRANCH   1  13
ATOM     11  C   UNL     1       1.137   9.017  21.504  0.00  0.00    +0.000 C 
ATOM     12  O   UNL     1       1.817   9.412  22.446  0.00  0.00    +0.000 OA
ATOM     13  N   UNL     1       0.285   9.830  20.768  0.00  0.00    +0.000 N 
ATOM     14  H   UNL     1       0.143   9.486  19.821  0.00  0.00    +0.000 HD
BRANCH  11  15
ATOM     15  C   UNL     1       1.103   7.561  21.072  0.00  0.00    +0.000 C 
BRANCH  15  21
ATOM     16  C   UNL     1       2.683   6.000  19.797  0.00  0.00    +0.000 A 
ATOM     17  C   UNL     1       3.605   5.811  18.756  0.00  0.00    +0.000 A 
ATOM     18  C   UNL     1       3.753   6.764  17.752  0.00  0.00    +0.000 A 
ATOM     19  C   UNL     1       2.996   7.929  17.791  0.00  0.00    +0.000 A 
ATOM     20  C   UNL     1       2.124   8.156  18.856  0.00  0.00    +0.000 A 
ATOM     21  C   UNL     1       1.965   7.204  19.882  0.00  0.00    +0.000 A 
BRANCH  16  23
ATOM     22  C   UNL     1       1.651   3.958  20.334  0.00  0.00    +0.000 C 
ATOM     23  O   UNL     1       2.462   5.056  20.770  0.00  0.00    +0.000 OA
ENDBRANCH  16  23
ENDBRANCH  15  21
ENDBRANCH  11  15
ENDBRANCH   1  13
BRANCH   5  24
ATOM     24  C   UNL     1      -3.758  13.146  22.306  0.00  0.00    +0.000 C 
ATOM     25  O   UNL     1      -4.494  12.506  23.050  0.00  0.00    +0.000 OA
BRANCH  24  26
ATOM     26  OXT UNL     1      -3.571  14.459  22.516  0.00  0.00    +0.000 OA
ATOM     27  HXT UNL     1      -4.195  14.923  23.118  0.00  0.00    +0.000 HD
ENDBRANCH  24  26
ENDBRANCH   5  24
TORSDOF 6
ENDMDL
MODEL 7
REMARK VINA RESULT:      -6.3      1.391      2.048
REMARK  Name = 
REMARK  7 active torsions:
REMARK  status: ('A' for Active; 'I' for Inactive)
REMARK    1  A    between atoms: C_1  and  O_2
REMARK    2  A    between atoms: O_2  and  C_3
REMARK    3  A    between atoms: C_8  and  C_9
REMARK    4  A    between atoms: C_9  and  C_10
REMARK    5  A    between atoms: N_12  and  CA_13
REMARK    6  A    between atoms: CA_17  and  C_18
REMARK    7  A    between atoms: C_18  and  OXT_20
REMARK                            x       y       z     vdW  Elec       q    Type
REMARK                         _______ _______ _______ _____ _____    ______ ____
ROOT
ATOM      1  CA  UNL     1       1.867   9.219  20.193  0.00  0.00    +0.000 C 
ATOM      2  C   UNL     1       1.140   9.599  21.528  0.00  0.00    +0.000 C 
ATOM      3  O   UNL     1       1.167   9.287  22.697  0.00  0.00    +0.000 OA
ATOM      4  N   UNL     1       0.294  10.388  20.845  0.00  0.00    +0.000 N 
ATOM      5  CA  UNL     1      -0.760  11.213  21.077  0.00  0.00    +0.000 C 
ATOM      6  C   UNL     1      -1.544  11.531  20.025  0.00  0.00    +0.000 C 
ATOM      7 CL   UNL     1      -3.038  12.425  20.183  0.00  0.00    +0.000 Cl
ATOM      8  C   UNL     1      -1.366  11.041  18.608  0.00  0.00    +0.000 C 
ATOM      9  S   UNL     1       0.228  10.346  18.110  0.00  0.00    +0.000 S 
ATOM     10  C   UNL     1       1.118  10.485  19.653  0.00  0.00    +0.000 C 
ENDROOT
BRANCH   1  13
ATOM     11  C   UNL     1       2.300   7.180  18.698  0.00  0.00    +0.000 C 
ATOM     12  O   UNL     1       3.270   7.662  18.123  0.00  0.00    +0.000 OA
ATOM     13  N   UNL     1       1.587   7.830  19.696  0.00  0.00    +0.000 N 
ATOM     14  H   UNL     1       0.623   7.509  19.756  0.00  0.00    +0.000 HD
BRANCH  11  15
ATOM     15  C   UNL     1       1.804   5.770  18.425  0.00  0.00    +0.000 C 
BRANCH  15  21
ATOM     16  C   UNL     1       3.419   4.055  19.430  0.00  0.00    +0.000 A 
ATOM     17  C   UNL     1       3.637   2.970  20.293  0.00  0.00    +0.000 A 
ATOM     18  C   UNL     1       2.680   2.606  21.236  0.00  0.00    +0.000 A 
ATOM     19  C   UNL     1       1.482   3.307  21.309  0.00  0.00    +0.000 A 
ATOM     20  C   UNL     1       1.229   4.345  20.411  0.00  0.00    +0.000 A 
ATOM     21  C   UNL     1       2.185   4.725  19.450  0.00  0.00    +0.000 A 
BRANCH  16  23
ATOM     22  C   UNL     1       5.579   4.936  19.143  0.00  0.00    +0.000 C 
ATOM     23  O   UNL     1       4.364   4.485  18.531  0.00  0.00    +0.000 OA
ENDBRANCH  16  23
ENDBRANCH  15  21
ENDBRANCH  11  15
ENDBRANCH   1  13
BRANCH   5  24
ATOM     24  C   UNL     1      -1.075  11.696  22.469  0.00  0.00    +0.000 C 
ATOM     25  O   UNL     1      -0.883  12.849  22.839  0.00  0.00    +0.000 OA
BRANCH  24  26
ATOM     26  OXT UNL     1      -1.530  10.779  23.339  0.00  0.00    +0.000 OA
ATOM     27  HXT UNL     1      -1.484   9.833  23.077  0.00  0.00    +0.000 HD
ENDBRANCH  24  26
ENDBRANCH   5  24
TORSDOF 6
ENDMDL
MODEL 8
REMARK VINA RESULT:      -6.2      3.890      8.501
REMARK  Name = 
REMARK  7 active torsions:
REMARK  status: ('A' for Active; 'I' for Inactive)
REMARK    1  A    between atoms: C_1  and  O_2
REMARK    2  A    between atoms: O_2  and  C_3
REMARK    3  A    between atoms: C_8  and  C_9
REMARK    4  A    between atoms: C_9  and  C_10
REMARK    5  A    between atoms: N_12  and  CA_13
REMARK    6  A    between atoms: CA_17  and  C_18
REMARK    7  A    between atoms: C_18  and  OXT_20
REMARK                            x       y       z     vdW  Elec       q    Type
REMARK                         _______ _______ _______ _____ _____    ______ ____
ROOT
ATOM      1  CA  UNL     1       3.346   7.418  18.792  0.00  0.00    +0.000 C 
ATOM      2  C   UNL     1       4.028   6.834  17.509  0.00  0.00    +0.000 C 
ATOM      3  O   UNL     1       4.451   7.228  16.445  0.00  0.00    +0.000 OA
ATOM      4  N   UNL     1       3.856   5.588  17.982  0.00  0.00    +0.000 N 
ATOM      5  CA  UNL     1       4.116   4.304  17.622  0.00  0.00    +0.000 C 
ATOM      6  C   UNL     1       3.432   3.329  18.258  0.00  0.00    +0.000 C 
ATOM      7 CL   UNL     1       3.511   1.646  17.792  0.00  0.00    +0.000 Cl
ATOM      8  C   UNL     1       2.389   3.534  19.330  0.00  0.00    +0.000 C 
ATOM      9  S   UNL     1       2.312   5.123  20.192  0.00  0.00    +0.000 S 
ATOM     10  C   UNL     1       3.637   5.986  19.361  0.00  0.00    +0.000 C 
ENDROOT
BRANCH   1  13
ATOM     11  C   UNL     1       1.646   9.173  18.011  0.00  0.00    +0.000 C 
ATOM     12  O   UNL     1       2.482   9.962  17.583  0.00  0.00    +0.000 OA
ATOM     13  N   UNL     1       1.956   7.947  18.583  0.00  0.00    +0.000 N 
ATOM     14  H   UNL     1       1.244   7.632  19.238  0.00  0.00    +0.000 HD
BRANCH  11  15
ATOM     15  C   UNL     1       0.151   9.427  17.905  0.00  0.00    +0.000 C 
BRANCH  15  21
ATOM     16  C   UNL     1      -0.391  10.270  20.262  0.00  0.00    +0.000 A 
ATOM     17  C   UNL     1      -1.096  11.158  21.088  0.00  0.00    +0.000 A 
ATOM     18  C   UNL     1      -1.746  12.267  20.553  0.00  0.00    +0.000 A 
ATOM     19  C   UNL     1      -1.720  12.486  19.181  0.00  0.00    +0.000 A 
ATOM     20  C   UNL     1      -1.077  11.572  18.344  0.00  0.00    +0.000 A 
ATOM     21  C   UNL     1      -0.417  10.445  18.868  0.00  0.00    +0.000 A 
BRANCH  16  23
ATOM     22  C   UNL     1       0.875   9.434  22.056  0.00  0.00    +0.000 C 
ATOM     23  O   UNL     1       0.316   9.202  20.757  0.00  0.00    +0.000 OA
ENDBRANCH  16  23
ENDBRANCH  15  21
ENDBRANCH  11  15
ENDBRANCH   1  13
BRANCH   5  24
ATOM     24  C   UNL     1       5.082   3.991  16.509  0.00  0.00    +0.000 C 
ATOM     25  O   UNL     1       4.764   3.990  15.325  0.00  0.00    +0.000 OA
BRANCH  24  26
ATOM     26  OXT UNL     1       6.328   3.643  16.869  0.00  0.00    +0.000 OA
ATOM     27  HXT UNL     1       6.762   4.159  17.585  0.00  0.00    +0.000 HD
ENDBRANCH  24  26
ENDBRANCH   5  24
TORSDOF 6
ENDMDL
MODEL 9
REMARK VINA RESULT:      -6.2      2.791      3.928
REMARK  Name = 
REMARK  7 active torsions:
REMARK  status: ('A' for Active; 'I' for Inactive)
REMARK    1  A    between atoms: C_1  and  O_2
REMARK    2  A    between atoms: O_2  and  C_3
REMARK    3  A    between atoms: C_8  and  C_9
REMARK    4  A    between atoms: C_9  and  C_10
REMARK    5  A    between atoms: N_12  and  CA_13
REMARK    6  A    between atoms: CA_17  and  C_18
REMARK    7  A    between atoms: C_18  and  OXT_20
REMARK                            x       y       z     vdW  Elec       q    Type
REMARK                         _______ _______ _______ _____ _____    ______ ____
ROOT
ATOM      1  CA  UNL     1      -0.869  11.653  19.621  0.00  0.00    +0.000 C 
ATOM      2  C   UNL     1      -2.013  12.156  20.565  0.00  0.00    +0.000 C 
ATOM      3  O   UNL     1      -2.159  12.482  21.722  0.00  0.00    +0.000 OA
ATOM      4  N   UNL     1      -2.910  11.969  19.583  0.00  0.00    +0.000 N 
ATOM      5  CA  UNL     1      -4.242  12.117  19.361  0.00  0.00    +0.000 C 
ATOM      6  C   UNL     1      -4.776  11.454  18.314  0.00  0.00    +0.000 C 
ATOM      7 CL   UNL     1      -6.494  11.387  17.999  0.00  0.00    +0.000 Cl
ATOM      8  C   UNL     1      -4.028  10.547  17.366  0.00  0.00    +0.000 C 
ATOM      9  S   UNL     1      -2.224  10.652  17.284  0.00  0.00    +0.000 S 
ATOM     10  C   UNL     1      -1.937  11.924  18.506  0.00  0.00    +0.000 C 
ENDROOT
BRANCH   1  13
ATOM     11  C   UNL     1       0.636   9.994  20.873  0.00  0.00    +0.000 C 
ATOM     12  O   UNL     1       1.180  10.840  21.575  0.00  0.00    +0.000 OA
ATOM     13  N   UNL     1      -0.350  10.280  19.937  0.00  0.00    +0.000 N 
ATOM     14  H   UNL     1      -0.381   9.595  19.186  0.00  0.00    +0.000 HD
BRANCH  11  15
ATOM     15  C   UNL     1       0.937   8.510  20.996  0.00  0.00    +0.000 C 
BRANCH  15  21
ATOM     16  C   UNL     1       2.211   6.582  19.891  0.00  0.00    +0.000 A 
ATOM     17  C   UNL     1       3.082   6.138  18.884  0.00  0.00    +0.000 A 
ATOM     18  C   UNL     1       3.391   6.952  17.797  0.00  0.00    +0.000 A 
ATOM     19  C   UNL     1       2.853   8.230  17.719  0.00  0.00    +0.000 A 
ATOM     20  C   UNL     1       2.038   8.706  18.748  0.00  0.00    +0.000 A 
ATOM     21  C   UNL     1       1.717   7.897  19.855  0.00  0.00    +0.000 A 
BRANCH  16  23
ATOM     22  C   UNL     1       1.666   4.407  20.594  0.00  0.00    +0.000 C 
ATOM     23  O   UNL     1       1.832   5.787  20.944  0.00  0.00    +0.000 OA
ENDBRANCH  16  23
ENDBRANCH  15  21
ENDBRANCH  11  15
ENDBRANCH   1  13
BRANCH   5  24
ATOM     24  C   UNL     1      -5.096  12.936  20.293  0.00  0.00    +0.000 C 
ATOM     25  O   UNL     1      -5.294  14.137  20.141  0.00  0.00    +0.000 OA
BRANCH  24  26
ATOM     26  OXT UNL     1      -5.602  12.304  21.364  0.00  0.00    +0.000 OA
ATOM     27  HXT UNL     1      -6.237  11.570  21.209  0.00  0.00    +0.000 HD
ENDBRANCH  24  26
ENDBRANCH   5  24
TORSDOF 6
ENDMDL
