MODEL 1
REMARK VINA RESULT:      -8.2      0.000      0.000
REMARK  Name = 
REMARK  13 active torsions:
REMARK  status: ('A' for Active; 'I' for Inactive)
REMARK    1  A    between atoms: C_1  and  C_2
REMARK    2  A    between atoms: C_2  and  C_3
REMARK    3  A    between atoms: C_3  and  C_4
REMARK    4  A    between atoms: C_4  and  C_5
REMARK    5  A    between atoms: C_5  and  C_6
REMARK    6  A    between atoms: C_6  and  O_8
REMARK    7  A    between atoms: O_8  and  C_9
REMARK    8  A    between atoms: C_12  and  O_13
REMARK    9  A    between atoms: C_15  and  O_16
REMARK   10  A    between atoms: C_20  and  C_21
REMARK   11  A    between atoms: C_23  and  O_24
REMARK   12  A    between atoms: C_25  and  O_26
REMARK   13  A    between atoms: C_27  and  O_28
REMARK                            x       y       z     vdW  Elec       q    Type
REMARK                         _______ _______ _______ _____ _____    ______ ____
ROOT
ATOM      1  C   UNL     1       5.297   5.644  17.378  0.00  0.00    +0.000 C 
ATOM      2  C   UNL     1       4.264   5.931  18.477  0.00  0.00    +0.000 C 
ATOM      3  C   UNL     1       3.246   4.832  18.636  0.00  0.00    +0.000 A 
ATOM      4  C   UNL     1       2.384   4.755  19.741  0.00  0.00    +0.000 A 
ATOM      5  C   UNL     1       1.426   3.741  19.849  0.00  0.00    +0.000 A 
ATOM      6  C   UNL     1       1.320   2.796  18.839  0.00  0.00    +0.000 A 
ATOM      7  C   UNL     1       2.154   2.850  17.738  0.00  0.00    +0.000 A 
ATOM      8  C   UNL     1       3.108   3.863  17.640  0.00  0.00    +0.000 A 
ATOM      9  O   UNL     1       3.901   3.789  16.537  0.00  0.00    +0.000 OA
ATOM     10  C   UNL     1       4.606   4.981  16.171  0.00  0.00    +0.000 C 
ENDROOT
BRANCH  10  11
ATOM     11  C   UNL     1       5.529   4.635  14.999  0.00  0.00    +0.000 A 
ATOM     12  C   UNL     1       5.167   3.653  14.045  0.00  0.00    +0.000 A 
ATOM     13  C   UNL     1       5.949   3.443  12.912  0.00  0.00    +0.000 A 
ATOM     14  C   UNL     1       7.076   4.217  12.694  0.00  0.00    +0.000 A 
ATOM     15  C   UNL     1       7.463   5.162  13.634  0.00  0.00    +0.000 A 
ATOM     16  C   UNL     1       6.713   5.365  14.789  0.00  0.00    +0.000 A 
BRANCH  13  17
ATOM     17  O   UNL     1       5.635   2.492  11.981  0.00  0.00    +0.000 OA
ATOM     18  H   UNL     1       6.430   2.330  11.443  0.00  0.00    +0.000 HD
ENDBRANCH  13  17
BRANCH  14  19
ATOM     19  O   UNL     1       7.806   4.073  11.545  0.00  0.00    +0.000 OA
ATOM     20  H   UNL     1       8.736   4.087  11.853  0.00  0.00    +0.000 HD
ENDBRANCH  14  19
BRANCH  15  21
ATOM     21  O   UNL     1       8.572   5.926  13.413  0.00  0.00    +0.000 OA
ATOM     22  H   UNL     1       8.321   6.816  13.733  0.00  0.00    +0.000 HD
ENDBRANCH  15  21
ENDBRANCH  10  11
BRANCH   4  23
ATOM     23  O   UNL     1       2.413   5.642  20.781  0.00  0.00    +0.000 OA
ATOM     24  H   UNL     1       2.918   6.432  20.536  0.00  0.00    +0.000 HD
ENDBRANCH   4  23
BRANCH   6  25
ATOM     25  O   UNL     1       0.403   1.788  18.891  0.00  0.00    +0.000 OA
ATOM     26  H   UNL     1      -0.474   2.157  18.690  0.00  0.00    +0.000 HD
ENDBRANCH   6  25
BRANCH   1  27
ATOM     27  O   UNL     1       6.325   4.780  17.910  0.00  0.00    +0.000 OA
BRANCH  27  28
ATOM     28  C   UNL     1       7.406   5.423  18.450  0.00  0.00    +0.000 C 
ATOM     29  O   UNL     1       8.123   4.956  19.327  0.00  0.00    +0.000 OA
BRANCH  28  30
ATOM     30  C   UNL     1       7.672   6.742  17.770  0.00  0.00    +0.000 C 
BRANCH  30  31
ATOM     31  C   UNL     1       8.365   7.787  18.645  0.00  0.00    +0.000 C 
BRANCH  31  32
ATOM     32  C   UNL     1       8.337   9.213  18.088  0.00  0.00    +0.000 C 
BRANCH  32  34
ATOM     33  C   UNL     1       9.823  11.243  18.052  0.00  0.00    +0.000 C 
ATOM     34  C   UNL     1       9.125  10.216  18.931  0.00  0.00    +0.000 C 
ENDBRANCH  32  34
ENDBRANCH  31  32
ENDBRANCH  30  31
ENDBRANCH  28  30
ENDBRANCH  27  28
ENDBRANCH   1  27
TORSDOF 12
ENDMDL
MODEL 2
REMARK VINA RESULT:      -7.8      3.186      6.068
REMARK  Name = 
REMARK  13 active torsions:
REMARK  status: ('A' for Active; 'I' for Inactive)
REMARK    1  A    between atoms: C_1  and  C_2
REMARK    2  A    between atoms: C_2  and  C_3
REMARK    3  A    between atoms: C_3  and  C_4
REMARK    4  A    between atoms: C_4  and  C_5
REMARK    5  A    between atoms: C_5  and  C_6
REMARK    6  A    between atoms: C_6  and  O_8
REMARK    7  A    between atoms: O_8  and  C_9
REMARK    8  A    between atoms: C_12  and  O_13
REMARK    9  A    between atoms: C_15  and  O_16
REMARK   10  A    between atoms: C_20  and  C_21
REMARK   11  A    between atoms: C_23  and  O_24
REMARK   12  A    between atoms: C_25  and  O_26
REMARK   13  A    between atoms: C_27  and  O_28
REMARK                            x       y       z     vdW  Elec       q    Type
REMARK                         _______ _______ _______ _____ _____    ______ ____
ROOT
ATOM      1  C   UNL     1       2.726   7.309  17.588  0.00  0.00    +0.000 C 
ATOM      2  C   UNL     1       2.023   8.662  17.766  0.00  0.00    +0.000 C 
ATOM      3  C   UNL     1       1.679   8.969  19.201  0.00  0.00    +0.000 A 
ATOM      4  C   UNL     1       1.284  10.246  19.627  0.00  0.00    +0.000 A 
ATOM      5  C   UNL     1       0.939  10.495  20.959  0.00  0.00    +0.000 A 
ATOM      6  C   UNL     1       0.981   9.457  21.879  0.00  0.00    +0.000 A 
ATOM      7  C   UNL     1       1.365   8.188  21.486  0.00  0.00    +0.000 A 
ATOM      8  C   UNL     1       1.709   7.949  20.155  0.00  0.00    +0.000 A 
ATOM      9  O   UNL     1       2.112   6.676  19.895  0.00  0.00    +0.000 OA
ATOM     10  C   UNL     1       2.090   6.263  18.524  0.00  0.00    +0.000 C 
ENDROOT
BRANCH  10  11
ATOM     11  C   UNL     1       2.705   4.862  18.450  0.00  0.00    +0.000 A 
ATOM     12  C   UNL     1       3.811   4.502  19.258  0.00  0.00    +0.000 A 
ATOM     13  C   UNL     1       4.275   3.190  19.282  0.00  0.00    +0.000 A 
ATOM     14  C   UNL     1       3.636   2.214  18.534  0.00  0.00    +0.000 A 
ATOM     15  C   UNL     1       2.572   2.556  17.711  0.00  0.00    +0.000 A 
ATOM     16  C   UNL     1       2.113   3.869  17.649  0.00  0.00    +0.000 A 
BRANCH  13  17
ATOM     17  O   UNL     1       5.349   2.814  20.039  0.00  0.00    +0.000 OA
ATOM     18  H   UNL     1       6.061   2.546  19.432  0.00  0.00    +0.000 HD
ENDBRANCH  13  17
BRANCH  14  19
ATOM     19  O   UNL     1       4.035   0.907  18.611  0.00  0.00    +0.000 OA
ATOM     20  H   UNL     1       4.654   0.894  19.369  0.00  0.00    +0.000 HD
ENDBRANCH  14  19
BRANCH  15  21
ATOM     21  O   UNL     1       1.943   1.592  16.979  0.00  0.00    +0.000 OA
ATOM     22  H   UNL     1       1.879   0.827  17.586  0.00  0.00    +0.000 HD
ENDBRANCH  15  21
ENDBRANCH  10  11
BRANCH   4  23
ATOM     23  O   UNL     1       1.209  11.327  18.794  0.00  0.00    +0.000 OA
ATOM     24  H   UNL     1       0.357  11.776  18.901  0.00  0.00    +0.000 HD
ENDBRANCH   4  23
BRANCH   6  25
ATOM     25  O   UNL     1       0.654   9.643  23.190  0.00  0.00    +0.000 OA
ATOM     26  H   UNL     1       1.473   9.662  23.713  0.00  0.00    +0.000 HD
ENDBRANCH   6  25
BRANCH   1  27
ATOM     27  O   UNL     1       4.132   7.464  17.884  0.00  0.00    +0.000 OA
BRANCH  27  28
ATOM     28  C   UNL     1       4.985   7.042  16.901  0.00  0.00    +0.000 C 
ATOM     29  O   UNL     1       4.685   6.949  15.716  0.00  0.00    +0.000 OA
BRANCH  28  30
ATOM     30  C   UNL     1       6.375   6.795  17.432  0.00  0.00    +0.000 C 
BRANCH  30  31
ATOM     31  C   UNL     1       6.767   5.321  17.537  0.00  0.00    +0.000 C 
BRANCH  31  32
ATOM     32  C   UNL     1       7.149   4.661  16.209  0.00  0.00    +0.000 C 
BRANCH  32  34
ATOM     33  C   UNL     1       5.909   3.995  14.124  0.00  0.00    +0.000 C 
ATOM     34  C   UNL     1       6.046   3.780  15.623  0.00  0.00    +0.000 C 
ENDBRANCH  32  34
ENDBRANCH  31  32
ENDBRANCH  30  31
ENDBRANCH  28  30
ENDBRANCH  27  28
ENDBRANCH   1  27
TORSDOF 12
ENDMDL
MODEL 3
REMARK VINA RESULT:      -7.8      3.192      6.102
REMARK  Name = 
REMARK  13 active torsions:
REMARK  status: ('A' for Active; 'I' for Inactive)
REMARK    1  A    between atoms: C_1  and  C_2
REMARK    2  A    between atoms: C_2  and  C_3
REMARK    3  A    between atoms: C_3  and  C_4
REMARK    4  A    between atoms: C_4  and  C_5
REMARK    5  A    between atoms: C_5  and  C_6
REMARK    6  A    between atoms: C_6  and  O_8
REMARK    7  A    between atoms: O_8  and  C_9
REMARK    8  A    between atoms: C_12  and  O_13
REMARK    9  A    between atoms: C_15  and  O_16
REMARK   10  A    between atoms: C_20  and  C_21
REMARK   11  A    between atoms: C_23  and  O_24
REMARK   12  A    between atoms: C_25  and  O_26
REMARK   13  A    between atoms: C_27  and  O_28
REMARK                            x       y       z     vdW  Elec       q    Type
REMARK                         _______ _______ _______ _____ _____    ______ ____
ROOT
ATOM      1  C   UNL     1       2.574   6.110  19.813  0.00  0.00    +0.000 C 
ATOM      2  C   UNL     1       1.668   6.987  20.688  0.00  0.00    +0.000 C 
ATOM      3  C   UNL     1       1.244   8.264  20.011  0.00  0.00    +0.000 A 
ATOM      4  C   UNL     1       0.215   9.079  20.508  0.00  0.00    +0.000 A 
ATOM      5  C   UNL     1      -0.136  10.276  19.877  0.00  0.00    +0.000 A 
ATOM      6  C   UNL     1       0.551  10.673  18.739  0.00  0.00    +0.000 A 
ATOM      7  C   UNL     1       1.572   9.892  18.229  0.00  0.00    +0.000 A 
ATOM      8  C   UNL     1       1.914   8.698  18.864  0.00  0.00    +0.000 A 
ATOM      9  O   UNL     1       2.901   7.992  18.248  0.00  0.00    +0.000 OA
ATOM     10  C   UNL     1       3.565   6.996  19.034  0.00  0.00    +0.000 C 
ENDROOT
BRANCH  10  11
ATOM     11  C   UNL     1       4.529   6.243  18.113  0.00  0.00    +0.000 A 
ATOM     12  C   UNL     1       4.494   6.423  16.709  0.00  0.00    +0.000 A 
ATOM     13  C   UNL     1       5.460   5.838  15.895  0.00  0.00    +0.000 A 
ATOM     14  C   UNL     1       6.487   5.098  16.457  0.00  0.00    +0.000 A 
ATOM     15  C   UNL     1       6.518   4.884  17.829  0.00  0.00    +0.000 A 
ATOM     16  C   UNL     1       5.543   5.433  18.657  0.00  0.00    +0.000 A 
BRANCH  13  17
ATOM     17  O   UNL     1       5.445   5.981  14.535  0.00  0.00    +0.000 OA
ATOM     18  H   UNL     1       6.047   6.711  14.307  0.00  0.00    +0.000 HD
ENDBRANCH  13  17
BRANCH  14  19
ATOM     19  O   UNL     1       7.485   4.586  15.674  0.00  0.00    +0.000 OA
ATOM     20  H   UNL     1       7.776   5.350  15.134  0.00  0.00    +0.000 HD
ENDBRANCH  14  19
BRANCH  15  21
ATOM     21  O   UNL     1       7.533   4.158  18.380  0.00  0.00    +0.000 OA
ATOM     22  H   UNL     1       8.294   4.314  17.786  0.00  0.00    +0.000 HD
ENDBRANCH  15  21
ENDBRANCH  10  11
BRANCH   4  23
ATOM     23  O   UNL     1      -0.515   8.772  21.623  0.00  0.00    +0.000 OA
ATOM     24  H   UNL     1      -1.043   9.536  21.900  0.00  0.00    +0.000 HD
ENDBRANCH   4  23
BRANCH   6  25
ATOM     25  O   UNL     1       0.252  11.832  18.085  0.00  0.00    +0.000 OA
ATOM     26  H   UNL     1      -0.714  11.905  18.013  0.00  0.00    +0.000 HD
ENDBRANCH   6  25
BRANCH   1  27
ATOM     27  O   UNL     1       1.754   5.346  18.901  0.00  0.00    +0.000 OA
BRANCH  27  28
ATOM     28  C   UNL     1       1.336   4.130  19.371  0.00  0.00    +0.000 C 
ATOM     29  O   UNL     1       0.906   3.935  20.501  0.00  0.00    +0.000 OA
BRANCH  28  30
ATOM     30  C   UNL     1       1.377   3.070  18.299  0.00  0.00    +0.000 C 
BRANCH  30  31
ATOM     31  C   UNL     1       2.489   3.248  17.265  0.00  0.00    +0.000 C 
BRANCH  31  32
ATOM     32  C   UNL     1       3.756   2.431  17.535  0.00  0.00    +0.000 C 
BRANCH  32  34
ATOM     33  C   UNL     1       4.400   2.200  19.956  0.00  0.00    +0.000 C 
ATOM     34  C   UNL     1       3.668   1.559  18.787  0.00  0.00    +0.000 C 
ENDBRANCH  32  34
ENDBRANCH  31  32
ENDBRANCH  30  31
ENDBRANCH  28  30
ENDBRANCH  27  28
ENDBRANCH   1  27
TORSDOF 12
ENDMDL
MODEL 4
REMARK VINA RESULT:      -7.8      3.265      5.571
REMARK  Name = 
REMARK  13 active torsions:
REMARK  status: ('A' for Active; 'I' for Inactive)
REMARK    1  A    between atoms: C_1  and  C_2
REMARK    2  A    between atoms: C_2  and  C_3
REMARK    3  A    between atoms: C_3  and  C_4
REMARK    4  A    between atoms: C_4  and  C_5
REMARK    5  A    between atoms: C_5  and  C_6
REMARK    6  A    between atoms: C_6  and  O_8
REMARK    7  A    between atoms: O_8  and  C_9
REMARK    8  A    between atoms: C_12  and  O_13
REMARK    9  A    between atoms: C_15  and  O_16
REMARK   10  A    between atoms: C_20  and  C_21
REMARK   11  A    between atoms: C_23  and  O_24
REMARK   12  A    between atoms: C_25  and  O_26
REMARK   13  A    between atoms: C_27  and  O_28
REMARK                            x       y       z     vdW  Elec       q    Type
REMARK                         _______ _______ _______ _____ _____    ______ ____
ROOT
ATOM      1  C   UNL     1       2.596   7.245  17.696  0.00  0.00    +0.000 C 
ATOM      2  C   UNL     1       1.961   8.643  17.723  0.00  0.00    +0.000 C 
ATOM      3  C   UNL     1       1.594   9.101  19.110  0.00  0.00    +0.000 A 
ATOM      4  C   UNL     1       1.255  10.431  19.403  0.00  0.00    +0.000 A 
ATOM      5  C   UNL     1       0.886  10.823  20.693  0.00  0.00    +0.000 A 
ATOM      6  C   UNL     1       0.846   9.876  21.706  0.00  0.00    +0.000 A 
ATOM      7  C   UNL     1       1.172   8.557  21.446  0.00  0.00    +0.000 A 
ATOM      8  C   UNL     1       1.541   8.176  20.156  0.00  0.00    +0.000 A 
ATOM      9  O   UNL     1       1.883   6.865  20.029  0.00  0.00    +0.000 OA
ATOM     10  C   UNL     1       1.879   6.325  18.703  0.00  0.00    +0.000 C 
ENDROOT
BRANCH  10  11
ATOM     11  C   UNL     1       2.419   4.895  18.780  0.00  0.00    +0.000 A 
ATOM     12  C   UNL     1       1.889   3.865  17.965  0.00  0.00    +0.000 A 
ATOM     13  C   UNL     1       2.476   2.602  17.946  0.00  0.00    +0.000 A 
ATOM     14  C   UNL     1       3.608   2.352  18.704  0.00  0.00    +0.000 A 
ATOM     15  C   UNL     1       4.121   3.340  19.533  0.00  0.00    +0.000 A 
ATOM     16  C   UNL     1       3.530   4.599  19.591  0.00  0.00    +0.000 A 
BRANCH  13  17
ATOM     17  O   UNL     1       1.978   1.583  17.183  0.00  0.00    +0.000 OA
ATOM     18  H   UNL     1       1.032   1.491  17.392  0.00  0.00    +0.000 HD
ENDBRANCH  13  17
BRANCH  14  19
ATOM     19  O   UNL     1       4.238   1.139  18.632  0.00  0.00    +0.000 OA
ATOM     20  H   UNL     1       4.195   0.796  19.548  0.00  0.00    +0.000 HD
ENDBRANCH  14  19
BRANCH  15  21
ATOM     21  O   UNL     1       5.239   3.091  20.275  0.00  0.00    +0.000 OA
ATOM     22  H   UNL     1       5.638   3.973  20.418  0.00  0.00    +0.000 HD
ENDBRANCH  15  21
ENDBRANCH  10  11
BRANCH   4  23
ATOM     23  O   UNL     1       1.262  11.431  18.470  0.00  0.00    +0.000 OA
ATOM     24  H   UNL     1       0.561  11.286  17.816  0.00  0.00    +0.000 HD
ENDBRANCH   4  23
BRANCH   6  25
ATOM     25  O   UNL     1       0.492  10.201  22.982  0.00  0.00    +0.000 OA
ATOM     26  H   UNL     1       0.011   9.451  23.370  0.00  0.00    +0.000 HD
ENDBRANCH   6  25
BRANCH   1  27
ATOM     27  O   UNL     1       3.999   7.356  18.023  0.00  0.00    +0.000 OA
BRANCH  27  28
ATOM     28  C   UNL     1       4.858   6.837  17.092  0.00  0.00    +0.000 C 
ATOM     29  O   UNL     1       4.728   6.965  15.881  0.00  0.00    +0.000 OA
BRANCH  28  30
ATOM     30  C   UNL     1       6.044   6.164  17.738  0.00  0.00    +0.000 C 
BRANCH  30  31
ATOM     31  C   UNL     1       7.405   6.674  17.265  0.00  0.00    +0.000 C 
BRANCH  31  32
ATOM     32  C   UNL     1       8.148   7.556  18.274  0.00  0.00    +0.000 C 
BRANCH  32  34
ATOM     33  C   UNL     1       8.996   9.845  18.878  0.00  0.00    +0.000 C 
ATOM     34  C   UNL     1       8.136   9.041  17.915  0.00  0.00    +0.000 C 
ENDBRANCH  32  34
ENDBRANCH  31  32
ENDBRANCH  30  31
ENDBRANCH  28  30
ENDBRANCH  27  28
ENDBRANCH   1  27
TORSDOF 12
ENDMDL
MODEL 5
REMARK VINA RESULT:      -7.7      2.621      5.041
REMARK  Name = 
REMARK  13 active torsions:
REMARK  status: ('A' for Active; 'I' for Inactive)
REMARK    1  A    between atoms: C_1  and  C_2
REMARK    2  A    between atoms: C_2  and  C_3
REMARK    3  A    between atoms: C_3  and  C_4
REMARK    4  A    between atoms: C_4  and  C_5
REMARK    5  A    between atoms: C_5  and  C_6
REMARK    6  A    between atoms: C_6  and  O_8
REMARK    7  A    between atoms: O_8  and  C_9
REMARK    8  A    between atoms: C_12  and  O_13
REMARK    9  A    between atoms: C_15  and  O_16
REMARK   10  A    between atoms: C_20  and  C_21
REMARK   11  A    between atoms: C_23  and  O_24
REMARK   12  A    between atoms: C_25  and  O_26
REMARK   13  A    between atoms: C_27  and  O_28
REMARK                            x       y       z     vdW  Elec       q    Type
REMARK                         _______ _______ _______ _____ _____    ______ ____
ROOT
ATOM      1  C   UNL     1       4.808   4.200  17.751  0.00  0.00    +0.000 C 
ATOM      2  C   UNL     1       4.200   4.754  19.048  0.00  0.00    +0.000 C 
ATOM      3  C   UNL     1       3.456   6.048  18.849  0.00  0.00    +0.000 A 
ATOM      4  C   UNL     1       2.604   6.588  19.825  0.00  0.00    +0.000 A 
ATOM      5  C   UNL     1       1.950   7.808  19.628  0.00  0.00    +0.000 A 
ATOM      6  C   UNL     1       2.152   8.504  18.445  0.00  0.00    +0.000 A 
ATOM      7  C   UNL     1       2.988   7.998  17.467  0.00  0.00    +0.000 A 
ATOM      8  C   UNL     1       3.635   6.779  17.672  0.00  0.00    +0.000 A 
ATOM      9  O   UNL     1       4.395   6.358  16.625  0.00  0.00    +0.000 OA
ATOM     10  C   UNL     1       5.378   5.356  16.906  0.00  0.00    +0.000 C 
ENDROOT
BRANCH  10  11
ATOM     11  C   UNL     1       6.014   4.940  15.576  0.00  0.00    +0.000 A 
ATOM     12  C   UNL     1       5.381   4.005  14.721  0.00  0.00    +0.000 A 
ATOM     13  C   UNL     1       5.898   3.737  13.457  0.00  0.00    +0.000 A 
ATOM     14  C   UNL     1       7.025   4.409  13.012  0.00  0.00    +0.000 A 
ATOM     15  C   UNL     1       7.676   5.304  13.849  0.00  0.00    +0.000 A 
ATOM     16  C   UNL     1       7.193   5.562  15.129  0.00  0.00    +0.000 A 
BRANCH  13  17
ATOM     17  O   UNL     1       5.320   2.829  12.615  0.00  0.00    +0.000 OA
ATOM     18  H   UNL     1       4.649   3.299  12.088  0.00  0.00    +0.000 HD
ENDBRANCH  13  17
BRANCH  14  19
ATOM     19  O   UNL     1       7.495   4.211  11.742  0.00  0.00    +0.000 OA
ATOM     20  H   UNL     1       8.330   3.717  11.874  0.00  0.00    +0.000 HD
ENDBRANCH  14  19
BRANCH  15  21
ATOM     21  O   UNL     1       8.783   5.967  13.405  0.00  0.00    +0.000 OA
ATOM     22  H   UNL     1       8.942   6.656  14.082  0.00  0.00    +0.000 HD
ENDBRANCH  15  21
ENDBRANCH  10  11
BRANCH   4  23
ATOM     23  O   UNL     1       2.347   5.976  21.021  0.00  0.00    +0.000 OA
ATOM     24  H   UNL     1       2.928   5.209  21.138  0.00  0.00    +0.000 HD
ENDBRANCH   4  23
BRANCH   6  25
ATOM     25  O   UNL     1       1.541   9.699  18.200  0.00  0.00    +0.000 OA
ATOM     26  H   UNL     1       1.077   9.640  17.349  0.00  0.00    +0.000 HD
ENDBRANCH   6  25
BRANCH   1  27
ATOM     27  O   UNL     1       3.787   3.491  17.015  0.00  0.00    +0.000 OA
BRANCH  27  28
ATOM     28  C   UNL     1       3.129   2.519  17.720  0.00  0.00    +0.000 C 
ATOM     29  O   UNL     1       3.673   1.549  18.234  0.00  0.00    +0.000 OA
BRANCH  28  30
ATOM     30  C   UNL     1       1.662   2.831  17.871  0.00  0.00    +0.000 C 
BRANCH  30  31
ATOM     31  C   UNL     1       1.002   2.223  19.108  0.00  0.00    +0.000 C 
BRANCH  31  32
ATOM     32  C   UNL     1       0.769   3.205  20.261  0.00  0.00    +0.000 C 
BRANCH  32  34
ATOM     33  C   UNL     1       2.822   2.503  21.533  0.00  0.00    +0.000 C 
ATOM     34  C   UNL     1       1.318   2.718  21.601  0.00  0.00    +0.000 C 
ENDBRANCH  32  34
ENDBRANCH  31  32
ENDBRANCH  30  31
ENDBRANCH  28  30
ENDBRANCH  27  28
ENDBRANCH   1  27
TORSDOF 12
ENDMDL
MODEL 6
REMARK VINA RESULT:      -7.7      3.310      6.195
REMARK  Name = 
REMARK  13 active torsions:
REMARK  status: ('A' for Active; 'I' for Inactive)
REMARK    1  A    between atoms: C_1  and  C_2
REMARK    2  A    between atoms: C_2  and  C_3
REMARK    3  A    between atoms: C_3  and  C_4
REMARK    4  A    between atoms: C_4  and  C_5
REMARK    5  A    between atoms: C_5  and  C_6
REMARK    6  A    between atoms: C_6  and  O_8
REMARK    7  A    between atoms: O_8  and  C_9
REMARK    8  A    between atoms: C_12  and  O_13
REMARK    9  A    between atoms: C_15  and  O_16
REMARK   10  A    between atoms: C_20  and  C_21
REMARK   11  A    between atoms: C_23  and  O_24
REMARK   12  A    between atoms: C_25  and  O_26
REMARK   13  A    between atoms: C_27  and  O_28
REMARK                            x       y       z     vdW  Elec       q    Type
REMARK                         _______ _______ _______ _____ _____    ______ ____
ROOT
ATOM      1  C   UNL     1       2.632   7.024  17.839  0.00  0.00    +0.000 C 
ATOM      2  C   UNL     1       1.946   8.396  17.766  0.00  0.00    +0.000 C 
ATOM      3  C   UNL     1       1.571   8.945  19.118  0.00  0.00    +0.000 A 
ATOM      4  C   UNL     1       1.185  10.280  19.312  0.00  0.00    +0.000 A 
ATOM      5  C   UNL     1       0.811  10.755  20.572  0.00  0.00    +0.000 A 
ATOM      6  C   UNL     1       0.813   9.887  21.655  0.00  0.00    +0.000 A 
ATOM      7  C   UNL     1       1.186   8.566  21.492  0.00  0.00    +0.000 A 
ATOM      8  C   UNL     1       1.559   8.101  20.231  0.00  0.00    +0.000 A 
ATOM      9  O   UNL     1       1.949   6.797  20.201  0.00  0.00    +0.000 OA
ATOM     10  C   UNL     1       1.955   6.158  18.919  0.00  0.00    +0.000 C 
ENDROOT
BRANCH  10  11
ATOM     11  C   UNL     1       2.549   4.758  19.100  0.00  0.00    +0.000 A 
ATOM     12  C   UNL     1       3.219   4.103  18.038  0.00  0.00    +0.000 A 
ATOM     13  C   UNL     1       3.871   2.892  18.251  0.00  0.00    +0.000 A 
ATOM     14  C   UNL     1       3.895   2.330  19.517  0.00  0.00    +0.000 A 
ATOM     15  C   UNL     1       3.215   2.942  20.561  0.00  0.00    +0.000 A 
ATOM     16  C   UNL     1       2.531   4.138  20.362  0.00  0.00    +0.000 A 
BRANCH  13  17
ATOM     17  O   UNL     1       4.513   2.227  17.244  0.00  0.00    +0.000 OA
ATOM     18  H   UNL     1       4.962   1.457  17.636  0.00  0.00    +0.000 HD
ENDBRANCH  13  17
BRANCH  14  19
ATOM     19  O   UNL     1       4.599   1.180  19.754  0.00  0.00    +0.000 OA
ATOM     20  H   UNL     1       4.193   0.526  19.149  0.00  0.00    +0.000 HD
ENDBRANCH  14  19
BRANCH  15  21
ATOM     21  O   UNL     1       3.245   2.388  21.808  0.00  0.00    +0.000 OA
ATOM     22  H   UNL     1       3.777   3.014  22.340  0.00  0.00    +0.000 HD
ENDBRANCH  15  21
ENDBRANCH  10  11
BRANCH   4  23
ATOM     23  O   UNL     1       1.149  11.206  18.306  0.00  0.00    +0.000 OA
ATOM     24  H   UNL     1       1.872  11.843  18.409  0.00  0.00    +0.000 HD
ENDBRANCH   4  23
BRANCH   6  25
ATOM     25  O   UNL     1       0.455  10.296  22.906  0.00  0.00    +0.000 OA
ATOM     26  H   UNL     1       0.802  11.193  23.048  0.00  0.00    +0.000 HD
ENDBRANCH   6  25
BRANCH   1  27
ATOM     27  O   UNL     1       4.031   7.211  18.143  0.00  0.00    +0.000 OA
BRANCH  27  28
ATOM     28  C   UNL     1       4.888   7.017  17.093  0.00  0.00    +0.000 C 
ATOM     29  O   UNL     1       4.557   7.052  15.914  0.00  0.00    +0.000 OA
BRANCH  28  30
ATOM     30  C   UNL     1       6.313   6.847  17.555  0.00  0.00    +0.000 C 
BRANCH  30  31
ATOM     31  C   UNL     1       6.628   5.484  18.172  0.00  0.00    +0.000 C 
BRANCH  31  32
ATOM     32  C   UNL     1       7.322   4.496  17.228  0.00  0.00    +0.000 C 
BRANCH  32  34
ATOM     33  C   UNL     1       6.253   4.062  14.993  0.00  0.00    +0.000 C 
ATOM     34  C   UNL     1       7.260   4.907  15.758  0.00  0.00    +0.000 C 
ENDBRANCH  32  34
ENDBRANCH  31  32
ENDBRANCH  30  31
ENDBRANCH  28  30
ENDBRANCH  27  28
ENDBRANCH   1  27
TORSDOF 12
ENDMDL
MODEL 7
REMARK VINA RESULT:      -7.7      3.336      6.106
REMARK  Name = 
REMARK  13 active torsions:
REMARK  status: ('A' for Active; 'I' for Inactive)
REMARK    1  A    between atoms: C_1  and  C_2
REMARK    2  A    between atoms: C_2  and  C_3
REMARK    3  A    between atoms: C_3  and  C_4
REMARK    4  A    between atoms: C_4  and  C_5
REMARK    5  A    between atoms: C_5  and  C_6
REMARK    6  A    between atoms: C_6  and  O_8
REMARK    7  A    between atoms: O_8  and  C_9
REMARK    8  A    between atoms: C_12  and  O_13
REMARK    9  A    between atoms: C_15  and  O_16
REMARK   10  A    between atoms: C_20  and  C_21
REMARK   11  A    between atoms: C_23  and  O_24
REMARK   12  A    between atoms: C_25  and  O_26
REMARK   13  A    between atoms: C_27  and  O_28
REMARK                            x       y       z     vdW  Elec       q    Type
REMARK                         _______ _______ _______ _____ _____    ______ ____
ROOT
ATOM      1  C   UNL     1       2.595   7.284  17.715  0.00  0.00    +0.000 C 
ATOM      2  C   UNL     1       1.935   8.670  17.681  0.00  0.00    +0.000 C 
ATOM      3  C   UNL     1       1.564   9.185  19.047  0.00  0.00    +0.000 A 
ATOM      4  C   UNL     1       1.202  10.521  19.280  0.00  0.00    +0.000 A 
ATOM      5  C   UNL     1       0.830  10.964  20.553  0.00  0.00    +0.000 A 
ATOM      6  C   UNL     1       0.811  10.064  21.608  0.00  0.00    +0.000 A 
ATOM      7  C   UNL     1       1.159   8.741  21.408  0.00  0.00    +0.000 A 
ATOM      8  C   UNL     1       1.531   8.308  20.135  0.00  0.00    +0.000 A 
ATOM      9  O   UNL     1       1.896   6.999  20.066  0.00  0.00    +0.000 OA
ATOM     10  C   UNL     1       1.897   6.399  18.766  0.00  0.00    +0.000 C 
ENDROOT
BRANCH  10  11
ATOM     11  C   UNL     1       2.464   4.983  18.907  0.00  0.00    +0.000 A 
ATOM     12  C   UNL     1       1.680   3.845  18.598  0.00  0.00    +0.000 A 
ATOM     13  C   UNL     1       2.245   2.573  18.599  0.00  0.00    +0.000 A 
ATOM     14  C   UNL     1       3.593   2.413  18.875  0.00  0.00    +0.000 A 
ATOM     15  C   UNL     1       4.368   3.514  19.212  0.00  0.00    +0.000 A 
ATOM     16  C   UNL     1       3.815   4.791  19.247  0.00  0.00    +0.000 A 
BRANCH  13  17
ATOM     17  O   UNL     1       1.512   1.453  18.321  0.00  0.00    +0.000 OA
ATOM     18  H   UNL     1       1.089   1.585  17.453  0.00  0.00    +0.000 HD
ENDBRANCH  13  17
BRANCH  14  19
ATOM     19  O   UNL     1       4.176   1.176  18.802  0.00  0.00    +0.000 OA
ATOM     20  H   UNL     1       4.711   1.119  19.619  0.00  0.00    +0.000 HD
ENDBRANCH  14  19
BRANCH  15  21
ATOM     21  O   UNL     1       5.697   3.353  19.479  0.00  0.00    +0.000 OA
ATOM     22  H   UNL     1       5.761   2.456  19.866  0.00  0.00    +0.000 HD
ENDBRANCH  15  21
ENDBRANCH  10  11
BRANCH   4  23
ATOM     23  O   UNL     1       1.188  11.477  18.302  0.00  0.00    +0.000 OA
ATOM     24  H   UNL     1       1.407  12.343  18.676  0.00  0.00    +0.000 HD
ENDBRANCH   4  23
BRANCH   6  25
ATOM     25  O   UNL     1       0.454  10.442  22.869  0.00  0.00    +0.000 OA
ATOM     26  H   UNL     1       0.030  11.315  22.822  0.00  0.00    +0.000 HD
ENDBRANCH   6  25
BRANCH   1  27
ATOM     27  O   UNL     1       3.996   7.435  18.031  0.00  0.00    +0.000 OA
BRANCH  27  28
ATOM     28  C   UNL     1       4.862   7.070  17.036  0.00  0.00    +0.000 C 
ATOM     29  O   UNL     1       4.574   7.035  15.845  0.00  0.00    +0.000 OA
BRANCH  28  30
ATOM     30  C   UNL     1       6.248   6.804  17.567  0.00  0.00    +0.000 C 
BRANCH  30  31
ATOM     31  C   UNL     1       7.164   6.036  16.613  0.00  0.00    +0.000 C 
BRANCH  31  32
ATOM     32  C   UNL     1       7.079   4.511  16.729  0.00  0.00    +0.000 C 
BRANCH  32  34
ATOM     33  C   UNL     1       6.411   4.494  14.304  0.00  0.00    +0.000 C 
ATOM     34  C   UNL     1       6.186   3.865  15.670  0.00  0.00    +0.000 C 
ENDBRANCH  32  34
ENDBRANCH  31  32
ENDBRANCH  30  31
ENDBRANCH  28  30
ENDBRANCH  27  28
ENDBRANCH   1  27
TORSDOF 12
ENDMDL
MODEL 8
REMARK VINA RESULT:      -7.6      0.583      1.673
REMARK  Name = 
REMARK  13 active torsions:
REMARK  status: ('A' for Active; 'I' for Inactive)
REMARK    1  A    between atoms: C_1  and  C_2
REMARK    2  A    between atoms: C_2  and  C_3
REMARK    3  A    between atoms: C_3  and  C_4
REMARK    4  A    between atoms: C_4  and  C_5
REMARK    5  A    between atoms: C_5  and  C_6
REMARK    6  A    between atoms: C_6  and  O_8
REMARK    7  A    between atoms: O_8  and  C_9
REMARK    8  A    between atoms: C_12  and  O_13
REMARK    9  A    between atoms: C_15  and  O_16
REMARK   10  A    between atoms: C_20  and  C_21
REMARK   11  A    between atoms: C_23  and  O_24
REMARK   12  A    between atoms: C_25  and  O_26
REMARK   13  A    between atoms: C_27  and  O_28
REMARK                            x       y       z     vdW  Elec       q    Type
REMARK                         _______ _______ _______ _____ _____    ______ ____
ROOT
ATOM      1  C   UNL     1       5.364   5.421  17.734  0.00  0.00    +0.000 C 
ATOM      2  C   UNL     1       4.421   5.610  18.932  0.00  0.00    +0.000 C 
ATOM      3  C   UNL     1       3.280   4.628  18.950  0.00  0.00    +0.000 A 
ATOM      4  C   UNL     1       2.461   4.440  20.074  0.00  0.00    +0.000 A 
ATOM      5  C   UNL     1       1.387   3.545  20.052  0.00  0.00    +0.000 A 
ATOM      6  C   UNL     1       1.119   2.831  18.893  0.00  0.00    +0.000 A 
ATOM      7  C   UNL     1       1.907   2.999  17.769  0.00  0.00    +0.000 A 
ATOM      8  C   UNL     1       2.977   3.892  17.801  0.00  0.00    +0.000 A 
ATOM      9  O   UNL     1       3.709   3.940  16.654  0.00  0.00    +0.000 OA
ATOM     10  C   UNL     1       4.544   5.089  16.472  0.00  0.00    +0.000 C 
ENDROOT
BRANCH  10  11
ATOM     11  C   UNL     1       5.367   4.870  15.199  0.00  0.00    +0.000 A 
ATOM     12  C   UNL     1       6.598   5.540  14.997  0.00  0.00    +0.000 A 
ATOM     13  C   UNL     1       7.401   5.232  13.902  0.00  0.00    +0.000 A 
ATOM     14  C   UNL     1       7.014   4.243  13.014  0.00  0.00    +0.000 A 
ATOM     15  C   UNL     1       5.795   3.600  13.179  0.00  0.00    +0.000 A 
ATOM     16  C   UNL     1       4.963   3.915  14.249  0.00  0.00    +0.000 A 
BRANCH  13  17
ATOM     17  O   UNL     1       8.587   5.871  13.671  0.00  0.00    +0.000 OA
ATOM     18  H   UNL     1       8.965   6.116  14.534  0.00  0.00    +0.000 HD
ENDBRANCH  13  17
BRANCH  14  19
ATOM     19  O   UNL     1       7.833   3.878  11.979  0.00  0.00    +0.000 OA
ATOM     20  H   UNL     1       8.357   3.136  12.344  0.00  0.00    +0.000 HD
ENDBRANCH  14  19
BRANCH  15  21
ATOM     21  O   UNL     1       5.419   2.622  12.304  0.00  0.00    +0.000 OA
ATOM     22  H   UNL     1       4.446   2.572  12.399  0.00  0.00    +0.000 HD
ENDBRANCH  15  21
ENDBRANCH  10  11
BRANCH   4  23
ATOM     23  O   UNL     1       2.645   5.100  21.257  0.00  0.00    +0.000 OA
ATOM     24  H   UNL     1       2.334   6.015  21.184  0.00  0.00    +0.000 HD
ENDBRANCH   4  23
BRANCH   6  25
ATOM     25  O   UNL     1       0.083   1.947  18.815  0.00  0.00    +0.000 OA
ATOM     26  H   UNL     1      -0.687   2.406  18.441  0.00  0.00    +0.000 HD
ENDBRANCH   6  25
BRANCH   1  27
ATOM     27  O   UNL     1       6.294   4.355  18.028  0.00  0.00    +0.000 OA
BRANCH  27  28
ATOM     28  C   UNL     1       7.596   4.745  18.189  0.00  0.00    +0.000 C 
ATOM     29  O   UNL     1       8.562   4.131  17.752  0.00  0.00    +0.000 OA
BRANCH  28  30
ATOM     30  C   UNL     1       7.701   6.077  18.889  0.00  0.00    +0.000 C 
BRANCH  30  31
ATOM     31  C   UNL     1       7.896   7.275  17.960  0.00  0.00    +0.000 C 
BRANCH  31  32
ATOM     32  C   UNL     1       8.635   8.461  18.587  0.00  0.00    +0.000 C 
BRANCH  32  34
ATOM     33  C   UNL     1       9.321  10.862  18.285  0.00  0.00    +0.000 C 
ATOM     34  C   UNL     1       8.271   9.809  17.966  0.00  0.00    +0.000 C 
ENDBRANCH  32  34
ENDBRANCH  31  32
ENDBRANCH  30  31
ENDBRANCH  28  30
ENDBRANCH  27  28
ENDBRANCH   1  27
TORSDOF 12
ENDMDL
MODEL 9
REMARK VINA RESULT:      -7.6      3.145      6.091
REMARK  Name = 
REMARK  13 active torsions:
REMARK  status: ('A' for Active; 'I' for Inactive)
REMARK    1  A    between atoms: C_1  and  C_2
REMARK    2  A    between atoms: C_2  and  C_3
REMARK    3  A    between atoms: C_3  and  C_4
REMARK    4  A    between atoms: C_4  and  C_5
REMARK    5  A    between atoms: C_5  and  C_6
REMARK    6  A    between atoms: C_6  and  O_8
REMARK    7  A    between atoms: O_8  and  C_9
REMARK    8  A    between atoms: C_12  and  O_13
REMARK    9  A    between atoms: C_15  and  O_16
REMARK   10  A    between atoms: C_20  and  C_21
REMARK   11  A    between atoms: C_23  and  O_24
REMARK   12  A    between atoms: C_25  and  O_26
REMARK   13  A    between atoms: C_27  and  O_28
REMARK                            x       y       z     vdW  Elec       q    Type
REMARK                         _______ _______ _______ _____ _____    ______ ____
ROOT
ATOM      1  C   UNL     1       2.952   7.117  17.581  0.00  0.00    +0.000 C 
ATOM      2  C   UNL     1       2.381   8.543  17.578  0.00  0.00    +0.000 C 
ATOM      3  C   UNL     1       1.895   8.990  18.931  0.00  0.00    +0.000 A 
ATOM      4  C   UNL     1       1.589  10.329  19.220  0.00  0.00    +0.000 A 
ATOM      5  C   UNL     1       1.109  10.712  20.476  0.00  0.00    +0.000 A 
ATOM      6  C   UNL     1       0.923   9.749  21.457  0.00  0.00    +0.000 A 
ATOM      7  C   UNL     1       1.213   8.421  21.199  0.00  0.00    +0.000 A 
ATOM      8  C   UNL     1       1.694   8.049  19.944  0.00  0.00    +0.000 A 
ATOM      9  O   UNL     1       1.988   6.726  19.820  0.00  0.00    +0.000 OA
ATOM     10  C   UNL     1       2.094   6.213  18.487  0.00  0.00    +0.000 C 
ENDROOT
BRANCH  10  11
ATOM     11  C   UNL     1       2.559   4.757  18.584  0.00  0.00    +0.000 A 
ATOM     12  C   UNL     1       2.005   3.753  17.752  0.00  0.00    +0.000 A 
ATOM     13  C   UNL     1       2.528   2.463  17.754  0.00  0.00    +0.000 A 
ATOM     14  C   UNL     1       3.619   2.157  18.550  0.00  0.00    +0.000 A 
ATOM     15  C   UNL     1       4.153   3.120  19.396  0.00  0.00    +0.000 A 
ATOM     16  C   UNL     1       3.624   4.407  19.433  0.00  0.00    +0.000 A 
BRANCH  13  17
ATOM     17  O   UNL     1       2.006   1.469  16.974  0.00  0.00    +0.000 OA
ATOM     18  H   UNL     1       2.750   0.977  16.584  0.00  0.00    +0.000 HD
ENDBRANCH  13  17
BRANCH  14  19
ATOM     19  O   UNL     1       4.189   0.914  18.500  0.00  0.00    +0.000 OA
ATOM     20  H   UNL     1       3.833   0.524  17.675  0.00  0.00    +0.000 HD
ENDBRANCH  14  19
BRANCH  15  21
ATOM     21  O   UNL     1       5.230   2.816  20.176  0.00  0.00    +0.000 OA
ATOM     22  H   UNL     1       5.270   3.543  20.829  0.00  0.00    +0.000 HD
ENDBRANCH  15  21
ENDBRANCH  10  11
BRANCH   4  23
ATOM     23  O   UNL     1       1.737  11.346  18.318  0.00  0.00    +0.000 OA
ATOM     24  H   UNL     1       0.875  11.738  18.109  0.00  0.00    +0.000 HD
ENDBRANCH   4  23
BRANCH   6  25
ATOM     25  O   UNL     1       0.455  10.066  22.698  0.00  0.00    +0.000 OA
ATOM     26  H   UNL     1       0.782   9.403  23.330  0.00  0.00    +0.000 HD
ENDBRANCH   6  25
BRANCH   1  27
ATOM     27  O   UNL     1       4.317   7.155  18.050  0.00  0.00    +0.000 OA
BRANCH  27  28
ATOM     28  C   UNL     1       5.271   6.944  17.091  0.00  0.00    +0.000 C 
ATOM     29  O   UNL     1       6.337   7.544  17.030  0.00  0.00    +0.000 OA
BRANCH  28  30
ATOM     30  C   UNL     1       4.896   5.812  16.167  0.00  0.00    +0.000 C 
BRANCH  30  31
ATOM     31  C   UNL     1       5.686   4.521  16.383  0.00  0.00    +0.000 C 
BRANCH  31  32
ATOM     32  C   UNL     1       6.355   3.959  15.125  0.00  0.00    +0.000 C 
BRANCH  32  34
ATOM     33  C   UNL     1       6.251   3.589  12.640  0.00  0.00    +0.000 C 
ATOM     34  C   UNL     1       5.508   4.106  13.862  0.00  0.00    +0.000 C 
ENDBRANCH  32  34
ENDBRANCH  31  32
ENDBRANCH  30  31
ENDBRANCH  28  30
ENDBRANCH  27  28
ENDBRANCH   1  27
TORSDOF 12
ENDMDL
