MODEL 1
REMARK VINA RESULT:      -6.5      0.000      0.000
REMARK  Name = 
REMARK  7 active torsions:
REMARK  status: ('A' for Active; 'I' for Inactive)
REMARK    1  A    between atoms: C_1  and  S_2
REMARK    2  A    between atoms: S_2  and  C_3
REMARK    3  A    between atoms: C_6  and  C_7
REMARK    4  A    between atoms: C_7  and  N_8
REMARK    5  A    between atoms: N_8  and  S_9
REMARK    6  A    between atoms: S_9  and  C_12
REMARK    7  A    between atoms: N_19  and  C_20
REMARK                            x       y       z     vdW  Elec       q    Type
REMARK                         _______ _______ _______ _____ _____    ______ ____
ROOT
ATOM      1  N   UNL     1       5.692   5.903  17.748  0.00  0.00    +0.000 NA
ATOM      2  H   UNL     1       5.330   6.822  17.481  0.00  0.00    +0.000 HD
ENDROOT
BRANCH   1   3
ATOM      3  S   UNL     1       7.143   5.609  16.928  0.00  0.00    +0.000 S 
ATOM      4  O   UNL     1       7.682   6.903  16.583  0.00  0.00    +0.000 OA
ATOM      5  O   UNL     1       7.900   4.640  17.689  0.00  0.00    +0.000 OA
BRANCH   3   6
ATOM      6  C   UNL     1       6.596   4.848  15.423  0.00  0.00    +0.000 A 
ATOM      7  C   UNL     1       5.346   4.222  15.390  0.00  0.00    +0.000 A 
ATOM      8  C   UNL     1       4.893   3.648  14.200  0.00  0.00    +0.000 A 
ATOM      9  C   UNL     1       5.687   3.712  13.052  0.00  0.00    +0.000 A 
ATOM     10 BR   UNL     1       5.068   2.942  11.443  0.00  0.00    +0.000 Br
ATOM     11  C   UNL     1       6.928   4.351  13.082  0.00  0.00    +0.000 A 
ATOM     12  C   UNL     1       7.387   4.923  14.271  0.00  0.00    +0.000 A 
ENDBRANCH   3   6
ENDBRANCH   1   3
BRANCH   1  13
ATOM     13  C   UNL     1       5.717   5.628  19.191  0.00  0.00    +0.000 C 
BRANCH  13  17
ATOM     14  C   UNL     1       3.007   3.321  19.970  0.00  0.00    +0.000 A 
ATOM     15  N   UNL     1       4.009   2.490  19.809  0.00  0.00    +0.000 NA
ATOM     16  N   UNL     1       5.127   3.234  19.536  0.00  0.00    +0.000 NA
ATOM     17  C   UNL     1       4.785   4.510  19.519  0.00  0.00    +0.000 A 
ATOM     18  N   UNL     1       3.441   4.608  19.799  0.00  0.00    +0.000 N 
ATOM     19  C   UNL     1       2.642   5.800  19.901  0.00  0.00    +0.000 C 
BRANCH  14  21
ATOM     20  C   UNL     1       0.787   2.382  18.708  0.00  0.00    +0.000 C 
ATOM     21  S   UNL     1       1.376   2.889  20.344  0.00  0.00    +0.000 S 
ENDBRANCH  14  21
ENDBRANCH  13  17
ENDBRANCH   1  13
TORSDOF 5
ENDMDL
MODEL 2
REMARK VINA RESULT:      -6.5      0.150      1.094
REMARK  Name = 
REMARK  7 active torsions:
REMARK  status: ('A' for Active; 'I' for Inactive)
REMARK    1  A    between atoms: C_1  and  S_2
REMARK    2  A    between atoms: S_2  and  C_3
REMARK    3  A    between atoms: C_6  and  C_7
REMARK    4  A    between atoms: C_7  and  N_8
REMARK    5  A    between atoms: N_8  and  S_9
REMARK    6  A    between atoms: S_9  and  C_12
REMARK    7  A    between atoms: N_19  and  C_20
REMARK                            x       y       z     vdW  Elec       q    Type
REMARK                         _______ _______ _______ _____ _____    ______ ____
ROOT
ATOM      1  N   UNL     1       5.703   5.979  17.723  0.00  0.00    +0.000 NA
ATOM      2  H   UNL     1       5.332   6.889  17.440  0.00  0.00    +0.000 HD
ENDROOT
BRANCH   1   3
ATOM      3  S   UNL     1       7.163   5.692  16.916  0.00  0.00    +0.000 S 
ATOM      4  O   UNL     1       7.694   6.988  16.568  0.00  0.00    +0.000 OA
ATOM      5  O   UNL     1       7.922   4.734  17.689  0.00  0.00    +0.000 OA
BRANCH   3   6
ATOM      6  C   UNL     1       6.634   4.916  15.411  0.00  0.00    +0.000 A 
ATOM      7  C   UNL     1       7.419   5.051  14.262  0.00  0.00    +0.000 A 
ATOM      8  C   UNL     1       7.027   4.416  13.081  0.00  0.00    +0.000 A 
ATOM      9  C   UNL     1       5.861   3.647  13.061  0.00  0.00    +0.000 A 
ATOM     10 BR   UNL     1       5.338   2.785  11.464  0.00  0.00    +0.000 Br
ATOM     11  C   UNL     1       5.086   3.501  14.213  0.00  0.00    +0.000 A 
ATOM     12  C   UNL     1       5.472   4.137  15.396  0.00  0.00    +0.000 A 
ENDBRANCH   3   6
ENDBRANCH   1   3
BRANCH   1  13
ATOM     13  C   UNL     1       5.722   5.724  19.169  0.00  0.00    +0.000 C 
BRANCH  13  17
ATOM     14  C   UNL     1       3.136   3.285  19.968  0.00  0.00    +0.000 A 
ATOM     15  N   UNL     1       4.171   2.503  19.777  0.00  0.00    +0.000 NA
ATOM     16  N   UNL     1       5.249   3.301  19.493  0.00  0.00    +0.000 NA
ATOM     17  C   UNL     1       4.849   4.561  19.500  0.00  0.00    +0.000 A 
ATOM     18  N   UNL     1       3.508   4.594  19.807  0.00  0.00    +0.000 N 
ATOM     19  C   UNL     1       2.657   5.747  19.939  0.00  0.00    +0.000 C 
BRANCH  14  21
ATOM     20  C   UNL     1       0.836   2.559  18.710  0.00  0.00    +0.000 C 
ATOM     21  S   UNL     1       1.533   2.775  20.367  0.00  0.00    +0.000 S 
ENDBRANCH  14  21
ENDBRANCH  13  17
ENDBRANCH   1  13
TORSDOF 5
ENDMDL
MODEL 3
REMARK VINA RESULT:      -6.5      0.717      1.403
REMARK  Name = 
REMARK  7 active torsions:
REMARK  status: ('A' for Active; 'I' for Inactive)
REMARK    1  A    between atoms: C_1  and  S_2
REMARK    2  A    between atoms: S_2  and  C_3
REMARK    3  A    between atoms: C_6  and  C_7
REMARK    4  A    between atoms: C_7  and  N_8
REMARK    5  A    between atoms: N_8  and  S_9
REMARK    6  A    between atoms: S_9  and  C_12
REMARK    7  A    between atoms: N_19  and  C_20
REMARK                            x       y       z     vdW  Elec       q    Type
REMARK                         _______ _______ _______ _____ _____    ______ ____
ROOT
ATOM      1  N   UNL     1       5.738   6.014  17.797  0.00  0.00    +0.000 NA
ATOM      2  H   UNL     1       5.517   7.010  17.732  0.00  0.00    +0.000 HD
ENDROOT
BRANCH   1   3
ATOM      3  S   UNL     1       7.185   5.703  16.976  0.00  0.00    +0.000 S 
ATOM      4  O   UNL     1       7.731   6.990  16.618  0.00  0.00    +0.000 OA
ATOM      5  O   UNL     1       7.937   4.737  17.744  0.00  0.00    +0.000 OA
BRANCH   3   6
ATOM      6  C   UNL     1       6.629   4.931  15.479  0.00  0.00    +0.000 A 
ATOM      7  C   UNL     1       5.380   4.304  15.459  0.00  0.00    +0.000 A 
ATOM      8  C   UNL     1       4.920   3.722  14.275  0.00  0.00    +0.000 A 
ATOM      9  C   UNL     1       5.707   3.779  13.122  0.00  0.00    +0.000 A 
ATOM     10 BR   UNL     1       5.079   2.997  11.522  0.00  0.00    +0.000 Br
ATOM     11  C   UNL     1       6.948   4.418  13.140  0.00  0.00    +0.000 A 
ATOM     12  C   UNL     1       7.413   4.999  14.323  0.00  0.00    +0.000 A 
ENDBRANCH   3   6
ENDBRANCH   1   3
BRANCH   1  13
ATOM     13  C   UNL     1       5.637   5.429  19.141  0.00  0.00    +0.000 C 
BRANCH  13  17
ATOM     14  C   UNL     1       2.350   4.158  20.064  0.00  0.00    +0.000 A 
ATOM     15  N   UNL     1       2.103   5.441  19.954  0.00  0.00    +0.000 NA
ATOM     16  N   UNL     1       3.267   6.057  19.572  0.00  0.00    +0.000 NA
ATOM     17  C   UNL     1       4.212   5.139  19.471  0.00  0.00    +0.000 A 
ATOM     18  N   UNL     1       3.665   3.912  19.769  0.00  0.00    +0.000 N 
ATOM     19  C   UNL     1       4.316   2.629  19.773  0.00  0.00    +0.000 C 
BRANCH  14  21
ATOM     20  C   UNL     1       0.711   2.344  18.872  0.00  0.00    +0.000 C 
ATOM     21  S   UNL     1       1.211   2.936  20.509  0.00  0.00    +0.000 S 
ENDBRANCH  14  21
ENDBRANCH  13  17
ENDBRANCH   1  13
TORSDOF 5
ENDMDL
MODEL 4
REMARK VINA RESULT:      -6.4      0.761      1.789
REMARK  Name = 
REMARK  7 active torsions:
REMARK  status: ('A' for Active; 'I' for Inactive)
REMARK    1  A    between atoms: C_1  and  S_2
REMARK    2  A    between atoms: S_2  and  C_3
REMARK    3  A    between atoms: C_6  and  C_7
REMARK    4  A    between atoms: C_7  and  N_8
REMARK    5  A    between atoms: N_8  and  S_9
REMARK    6  A    between atoms: S_9  and  C_12
REMARK    7  A    between atoms: N_19  and  C_20
REMARK                            x       y       z     vdW  Elec       q    Type
REMARK                         _______ _______ _______ _____ _____    ______ ____
ROOT
ATOM      1  N   UNL     1       5.785   6.138  17.991  0.00  0.00    +0.000 NA
ATOM      2  H   UNL     1       5.642   7.145  18.100  0.00  0.00    +0.000 HD
ENDROOT
BRANCH   1   3
ATOM      3  S   UNL     1       7.210   5.863  17.121  0.00  0.00    +0.000 S 
ATOM      4  O   UNL     1       7.727   7.165  16.770  0.00  0.00    +0.000 OA
ATOM      5  O   UNL     1       7.999   4.894  17.848  0.00  0.00    +0.000 OA
BRANCH   3   6
ATOM      6  C   UNL     1       6.619   5.110  15.628  0.00  0.00    +0.000 A 
ATOM      7  C   UNL     1       7.459   5.060  14.511  0.00  0.00    +0.000 A 
ATOM      8  C   UNL     1       7.014   4.439  13.342  0.00  0.00    +0.000 A 
ATOM      9  C   UNL     1       5.739   3.868  13.300  0.00  0.00    +0.000 A 
ATOM     10 BR   UNL     1       5.143   3.024  11.719  0.00  0.00    +0.000 Br
ATOM     11  C   UNL     1       4.907   3.907  14.421  0.00  0.00    +0.000 A 
ATOM     12  C   UNL     1       5.347   4.529  15.592  0.00  0.00    +0.000 A 
ENDBRANCH   3   6
ENDBRANCH   1   3
BRANCH   1  13
ATOM     13  C   UNL     1       5.630   5.342  19.215  0.00  0.00    +0.000 C 
BRANCH  13  17
ATOM     14  C   UNL     1       2.278   4.160  20.016  0.00  0.00    +0.000 A 
ATOM     15  N   UNL     1       2.063   5.444  19.861  0.00  0.00    +0.000 NA
ATOM     16  N   UNL     1       3.256   6.027  19.519  0.00  0.00    +0.000 NA
ATOM     17  C   UNL     1       4.185   5.088  19.486  0.00  0.00    +0.000 A 
ATOM     18  N   UNL     1       3.599   3.880  19.790  0.00  0.00    +0.000 N 
ATOM     19  C   UNL     1       4.223   2.585  19.857  0.00  0.00    +0.000 C 
BRANCH  14  21
ATOM     20  C   UNL     1       0.686   2.321  18.798  0.00  0.00    +0.000 C 
ATOM     21  S   UNL     1       1.094   2.973  20.438  0.00  0.00    +0.000 S 
ENDBRANCH  14  21
ENDBRANCH  13  17
ENDBRANCH   1  13
TORSDOF 5
ENDMDL
MODEL 5
REMARK VINA RESULT:      -6.3      0.996      1.586
REMARK  Name = 
REMARK  7 active torsions:
REMARK  status: ('A' for Active; 'I' for Inactive)
REMARK    1  A    between atoms: C_1  and  S_2
REMARK    2  A    between atoms: S_2  and  C_3
REMARK    3  A    between atoms: C_6  and  C_7
REMARK    4  A    between atoms: C_7  and  N_8
REMARK    5  A    between atoms: N_8  and  S_9
REMARK    6  A    between atoms: S_9  and  C_12
REMARK    7  A    between atoms: N_19  and  C_20
REMARK                            x       y       z     vdW  Elec       q    Type
REMARK                         _______ _______ _______ _____ _____    ______ ____
ROOT
ATOM      1  N   UNL     1       6.849   5.217  18.105  0.00  0.00    +0.000 NA
ATOM      2  H   UNL     1       6.816   4.276  17.706  0.00  0.00    +0.000 HD
ENDROOT
BRANCH   1   3
ATOM      3  S   UNL     1       6.615   6.358  16.877  0.00  0.00    +0.000 S 
ATOM      4  O   UNL     1       5.355   7.004  17.161  0.00  0.00    +0.000 OA
ATOM      5  O   UNL     1       7.842   7.106  16.719  0.00  0.00    +0.000 OA
BRANCH   3   6
ATOM      6  C   UNL     1       6.376   5.346  15.440  0.00  0.00    +0.000 A 
ATOM      7  C   UNL     1       7.348   5.348  14.436  0.00  0.00    +0.000 A 
ATOM      8  C   UNL     1       7.184   4.528  13.317  0.00  0.00    +0.000 A 
ATOM      9  C   UNL     1       6.057   3.709  13.214  0.00  0.00    +0.000 A 
ATOM     10 BR   UNL     1       5.842   2.597  11.703  0.00  0.00    +0.000 Br
ATOM     11  C   UNL     1       5.094   3.698  14.226  0.00  0.00    +0.000 A 
ATOM     12  C   UNL     1       5.252   4.518  15.346  0.00  0.00    +0.000 A 
ENDBRANCH   3   6
ENDBRANCH   1   3
BRANCH   1  13
ATOM     13  C   UNL     1       6.043   5.420  19.316  0.00  0.00    +0.000 C 
BRANCH  13  17
ATOM     14  C   UNL     1       3.110   3.273  19.566  0.00  0.00    +0.000 A 
ATOM     15  N   UNL     1       4.064   2.383  19.431  0.00  0.00    +0.000 NA
ATOM     16  N   UNL     1       5.255   3.058  19.354  0.00  0.00    +0.000 NA
ATOM     17  C   UNL     1       5.005   4.354  19.428  0.00  0.00    +0.000 A 
ATOM     18  N   UNL     1       3.648   4.532  19.572  0.00  0.00    +0.000 N 
ATOM     19  C   UNL     1       2.926   5.769  19.707  0.00  0.00    +0.000 C 
BRANCH  14  21
ATOM     20  C   UNL     1       1.283   2.764  21.516  0.00  0.00    +0.000 C 
ATOM     21  S   UNL     1       1.421   2.939  19.719  0.00  0.00    +0.000 S 
ENDBRANCH  14  21
ENDBRANCH  13  17
ENDBRANCH   1  13
TORSDOF 5
ENDMDL
MODEL 6
REMARK VINA RESULT:      -6.1      4.286      7.067
REMARK  Name = 
REMARK  7 active torsions:
REMARK  status: ('A' for Active; 'I' for Inactive)
REMARK    1  A    between atoms: C_1  and  S_2
REMARK    2  A    between atoms: S_2  and  C_3
REMARK    3  A    between atoms: C_6  and  C_7
REMARK    4  A    between atoms: C_7  and  N_8
REMARK    5  A    between atoms: N_8  and  S_9
REMARK    6  A    between atoms: S_9  and  C_12
REMARK    7  A    between atoms: N_19  and  C_20
REMARK                            x       y       z     vdW  Elec       q    Type
REMARK                         _______ _______ _______ _____ _____    ______ ____
ROOT
ATOM      1  N   UNL     1       4.602   6.618  17.866  0.00  0.00    +0.000 NA
ATOM      2  H   UNL     1       4.324   6.874  16.915  0.00  0.00    +0.000 HD
ENDROOT
BRANCH   1   3
ATOM      3  S   UNL     1       3.265   5.991  18.693  0.00  0.00    +0.000 S 
ATOM      4  O   UNL     1       2.533   5.198  17.736  0.00  0.00    +0.000 OA
ATOM      5  O   UNL     1       3.731   5.444  19.948  0.00  0.00    +0.000 OA
BRANCH   3   6
ATOM      6  C   UNL     1       2.297   7.439  19.029  0.00  0.00    +0.000 A 
ATOM      7  C   UNL     1       1.823   7.657  20.326  0.00  0.00    +0.000 A 
ATOM      8  C   UNL     1       1.089   8.811  20.607  0.00  0.00    +0.000 A 
ATOM      9  C   UNL     1       0.840   9.740  19.593  0.00  0.00    +0.000 A 
ATOM     10 BR   UNL     1      -0.148  11.303  19.978  0.00  0.00    +0.000 Br
ATOM     11  C   UNL     1       1.327   9.528  18.301  0.00  0.00    +0.000 A 
ATOM     12  C   UNL     1       2.060   8.374  18.015  0.00  0.00    +0.000 A 
ENDBRANCH   3   6
ENDBRANCH   1   3
BRANCH   1  13
ATOM     13  C   UNL     1       5.836   5.830  17.974  0.00  0.00    +0.000 C 
BRANCH  13  17
ATOM     14  C   UNL     1       6.586   4.618  14.621  0.00  0.00    +0.000 A 
ATOM     15  N   UNL     1       7.499   5.549  14.763  0.00  0.00    +0.000 NA
ATOM     16  N   UNL     1       7.356   6.083  16.018  0.00  0.00    +0.000 NA
ATOM     17  C   UNL     1       6.344   5.479  16.616  0.00  0.00    +0.000 A 
ATOM     18  N   UNL     1       5.831   4.530  15.760  0.00  0.00    +0.000 N 
ATOM     19  C   UNL     1       4.737   3.626  15.994  0.00  0.00    +0.000 C 
BRANCH  14  21
ATOM     20  C   UNL     1       7.340   4.537  12.008  0.00  0.00    +0.000 C 
ATOM     21  S   UNL     1       6.347   3.631  13.222  0.00  0.00    +0.000 S 
ENDBRANCH  14  21
ENDBRANCH  13  17
ENDBRANCH   1  13
TORSDOF 5
ENDMDL
MODEL 7
REMARK VINA RESULT:      -6.1      3.531      4.690
REMARK  Name = 
REMARK  7 active torsions:
REMARK  status: ('A' for Active; 'I' for Inactive)
REMARK    1  A    between atoms: C_1  and  S_2
REMARK    2  A    between atoms: S_2  and  C_3
REMARK    3  A    between atoms: C_6  and  C_7
REMARK    4  A    between atoms: C_7  and  N_8
REMARK    5  A    between atoms: N_8  and  S_9
REMARK    6  A    between atoms: S_9  and  C_12
REMARK    7  A    between atoms: N_19  and  C_20
REMARK                            x       y       z     vdW  Elec       q    Type
REMARK                         _______ _______ _______ _____ _____    ______ ____
ROOT
ATOM      1  N   UNL     1       4.251   5.512  19.435  0.00  0.00    +0.000 NA
ATOM      2  H   UNL     1       4.949   5.642  20.172  0.00  0.00    +0.000 HD
ENDROOT
BRANCH   1   3
ATOM      3  S   UNL     1       4.437   3.976  18.749  0.00  0.00    +0.000 S 
ATOM      4  O   UNL     1       5.328   3.249  19.621  0.00  0.00    +0.000 OA
ATOM      5  O   UNL     1       3.124   3.477  18.404  0.00  0.00    +0.000 OA
BRANCH   3   6
ATOM      6  C   UNL     1       5.326   4.319  17.253  0.00  0.00    +0.000 A 
ATOM      7  C   UNL     1       6.684   4.640  17.326  0.00  0.00    +0.000 A 
ATOM      8  C   UNL     1       7.400   4.879  16.150  0.00  0.00    +0.000 A 
ATOM      9  C   UNL     1       6.755   4.788  14.914  0.00  0.00    +0.000 A 
ATOM     10 BR   UNL     1       7.727   5.106  13.327  0.00  0.00    +0.000 Br
ATOM     11  C   UNL     1       5.401   4.454  14.843  0.00  0.00    +0.000 A 
ATOM     12  C   UNL     1       4.681   4.217  16.016  0.00  0.00    +0.000 A 
ENDBRANCH   3   6
ENDBRANCH   1   3
BRANCH   1  13
ATOM     13  C   UNL     1       2.876   5.879  19.795  0.00  0.00    +0.000 C 
BRANCH  13  17
ATOM     14  C   UNL     1       1.712   9.130  18.631  0.00  0.00    +0.000 A 
ATOM     15  N   UNL     1       2.324   8.682  17.562  0.00  0.00    +0.000 NA
ATOM     16  N   UNL     1       2.796   7.427  17.847  0.00  0.00    +0.000 NA
ATOM     17  C   UNL     1       2.477   7.135  19.095  0.00  0.00    +0.000 A 
ATOM     18  N   UNL     1       1.777   8.193  19.629  0.00  0.00    +0.000 N 
ATOM     19  C   UNL     1       1.218   8.310  20.949  0.00  0.00    +0.000 C 
BRANCH  14  21
ATOM     20  C   UNL     1       2.245  11.765  18.217  0.00  0.00    +0.000 C 
ATOM     21  S   UNL     1       0.928  10.662  18.790  0.00  0.00    +0.000 S 
ENDBRANCH  14  21
ENDBRANCH  13  17
ENDBRANCH   1  13
TORSDOF 5
ENDMDL
MODEL 8
REMARK VINA RESULT:      -6.0      3.889      6.545
REMARK  Name = 
REMARK  7 active torsions:
REMARK  status: ('A' for Active; 'I' for Inactive)
REMARK    1  A    between atoms: C_1  and  S_2
REMARK    2  A    between atoms: S_2  and  C_3
REMARK    3  A    between atoms: C_6  and  C_7
REMARK    4  A    between atoms: C_7  and  N_8
REMARK    5  A    between atoms: N_8  and  S_9
REMARK    6  A    between atoms: S_9  and  C_12
REMARK    7  A    between atoms: N_19  and  C_20
REMARK                            x       y       z     vdW  Elec       q    Type
REMARK                         _______ _______ _______ _____ _____    ______ ____
ROOT
ATOM      1  N   UNL     1       4.545   3.186  17.757  0.00  0.00    +0.000 NA
ATOM      2  H   UNL     1       4.936   3.673  18.568  0.00  0.00    +0.000 HD
ENDROOT
BRANCH   1   3
ATOM      3  S   UNL     1       2.873   3.015  17.956  0.00  0.00    +0.000 S 
ATOM      4  O   UNL     1       2.299   3.088  16.634  0.00  0.00    +0.000 OA
ATOM      5  O   UNL     1       2.638   1.891  18.834  0.00  0.00    +0.000 OA
BRANCH   3   6
ATOM      6  C   UNL     1       2.425   4.505  18.808  0.00  0.00    +0.000 A 
ATOM      7  C   UNL     1       1.978   4.426  20.130  0.00  0.00    +0.000 A 
ATOM      8  C   UNL     1       1.655   5.597  20.820  0.00  0.00    +0.000 A 
ATOM      9  C   UNL     1       1.788   6.836  20.187  0.00  0.00    +0.000 A 
ATOM     10 BR   UNL     1       1.356   8.417  21.124  0.00  0.00    +0.000 Br
ATOM     11  C   UNL     1       2.248   6.913  18.870  0.00  0.00    +0.000 A 
ATOM     12  C   UNL     1       2.570   5.745  18.176  0.00  0.00    +0.000 A 
ENDBRANCH   3   6
ENDBRANCH   1   3
BRANCH   1  13
ATOM     13  C   UNL     1       4.976   3.692  16.447  0.00  0.00    +0.000 C 
BRANCH  13  17
ATOM     14  C   UNL     1       7.295   6.311  17.462  0.00  0.00    +0.000 A 
ATOM     15  N   UNL     1       7.432   6.344  16.158  0.00  0.00    +0.000 NA
ATOM     16  N   UNL     1       6.577   5.413  15.627  0.00  0.00    +0.000 NA
ATOM     17  C   UNL     1       5.944   4.814  16.620  0.00  0.00    +0.000 A 
ATOM     18  N   UNL     1       6.368   5.365  17.808  0.00  0.00    +0.000 N 
ATOM     19  C   UNL     1       5.939   5.035  19.141  0.00  0.00    +0.000 C 
BRANCH  14  21
ATOM     20  C   UNL     1       8.020   8.914  17.784  0.00  0.00    +0.000 C 
ATOM     21  S   UNL     1       8.140   7.301  18.600  0.00  0.00    +0.000 S 
ENDBRANCH  14  21
ENDBRANCH  13  17
ENDBRANCH   1  13
TORSDOF 5
ENDMDL
MODEL 9
REMARK VINA RESULT:      -6.0      4.585      6.183
REMARK  Name = 
REMARK  7 active torsions:
REMARK  status: ('A' for Active; 'I' for Inactive)
REMARK    1  A    between atoms: C_1  and  S_2
REMARK    2  A    between atoms: S_2  and  C_3
REMARK    3  A    between atoms: C_6  and  C_7
REMARK    4  A    between atoms: C_7  and  N_8
REMARK    5  A    between atoms: N_8  and  S_9
REMARK    6  A    between atoms: S_9  and  C_12
REMARK    7  A    between atoms: N_19  and  C_20
REMARK                            x       y       z     vdW  Elec       q    Type
REMARK                         _______ _______ _______ _____ _____    ______ ____
ROOT
ATOM      1  N   UNL     1       2.167   6.006  21.024  0.00  0.00    +0.000 NA
ATOM      2  H   UNL     1       1.568   6.213  21.827  0.00  0.00    +0.000 HD
ENDROOT
BRANCH   1   3
ATOM      3  S   UNL     1       2.000   4.376  20.602  0.00  0.00    +0.000 S 
ATOM      4  O   UNL     1       2.555   3.616  21.696  0.00  0.00    +0.000 OA
ATOM      5  O   UNL     1       0.648   4.170  20.132  0.00  0.00    +0.000 OA
BRANCH   3   6
ATOM      6  C   UNL     1       3.110   4.211  19.228  0.00  0.00    +0.000 A 
ATOM      7  C   UNL     1       2.593   3.908  17.966  0.00  0.00    +0.000 A 
ATOM      8  C   UNL     1       3.456   3.809  16.872  0.00  0.00    +0.000 A 
ATOM      9  C   UNL     1       4.826   4.021  17.047  0.00  0.00    +0.000 A 
ATOM     10 BR   UNL     1       5.989   3.892  15.565  0.00  0.00    +0.000 Br
ATOM     11  C   UNL     1       5.340   4.337  18.307  0.00  0.00    +0.000 A 
ATOM     12  C   UNL     1       4.480   4.434  19.404  0.00  0.00    +0.000 A 
ENDBRANCH   3   6
ENDBRANCH   1   3
BRANCH   1  13
ATOM     13  C   UNL     1       2.080   6.958  19.909  0.00  0.00    +0.000 C 
BRANCH  13  17
ATOM     14  C   UNL     1       0.712  10.285  20.486  0.00  0.00    +0.000 A 
ATOM     15  N   UNL     1       0.705   9.794  21.702  0.00  0.00    +0.000 NA
ATOM     16  N   UNL     1       1.234   8.531  21.644  0.00  0.00    +0.000 NA
ATOM     17  C   UNL     1       1.540   8.264  20.386  0.00  0.00    +0.000 A 
ATOM     18  N   UNL     1       1.230   9.362  19.617  0.00  0.00    +0.000 N 
ATOM     19  C   UNL     1       1.407   9.529  18.199  0.00  0.00    +0.000 C 
BRANCH  14  21
ATOM     20  C   UNL     1      -1.538  11.472  19.522  0.00  0.00    +0.000 C 
ATOM     21  S   UNL     1       0.161  11.855  20.018  0.00  0.00    +0.000 S 
ENDBRANCH  14  21
ENDBRANCH  13  17
ENDBRANCH   1  13
TORSDOF 5
ENDMDL
