MODEL 1
REMARK VINA RESULT:      -6.9      0.000      0.000
REMARK  Name = 
REMARK  6 active torsions:
REMARK  status: ('A' for Active; 'I' for Inactive)
REMARK    1  A    between atoms: C_1  and  C_2
REMARK    2  A    between atoms: C_2  and  C_3
REMARK    3  A    between atoms: C_12  and  N_13
REMARK    4  A    between atoms: N_13  and  C_14
REMARK    5  A    between atoms: N_13  and  C_21
REMARK    6  A    between atoms: C_14  and  C_15
REMARK                            x       y       z     vdW  Elec       q    Type
REMARK                         _______ _______ _______ _____ _____    ______ ____
ROOT
ATOM      1  C   UNL     1       5.871   3.634  12.675  0.00  0.00    +0.000 C 
ATOM      2  O   UNL     1       4.734   3.323  12.347  0.00  0.00    +0.000 OA
ATOM      3  N   UNL     1       6.208   3.907  14.018  0.00  0.00    +0.000 N 
ATOM      4  C   UNL     1       5.094   3.740  14.926  0.00  0.00    +0.000 C 
ATOM      5  C   UNL     1       5.499   3.670  16.377  0.00  0.00    +0.000 C 
ATOM      6  C   UNL     1       6.413   4.803  16.863  0.00  0.00    +0.000 C 
ATOM      7  C   UNL     1       7.602   4.895  15.872  0.00  0.00    +0.000 C 
ATOM      8  C   UNL     1       7.197   4.924  14.388  0.00  0.00    +0.000 C 
ATOM      9  C   UNL     1       5.808   6.205  17.102  0.00  0.00    +0.000 C 
ATOM     10  C   UNL     1       4.632   6.225  18.109  0.00  0.00    +0.000 C 
ATOM     11  C   UNL     1       5.163   5.547  19.400  0.00  0.00    +0.000 C 
ATOM     12  C   UNL     1       5.953   4.264  19.173  0.00  0.00    +0.000 C 
ATOM     13  O   UNL     1       6.951   4.408  18.152  0.00  0.00    +0.000 OA
ENDROOT
BRANCH   1  15
ATOM     14  C   UNL     1       7.309   2.267  11.148  0.00  0.00    +0.000 C 
ATOM     15  C   UNL     1       7.008   3.665  11.676  0.00  0.00    +0.000 C 
ENDBRANCH   1  15
BRANCH  10  16
ATOM     16  N   UNL     1       3.327   5.716  17.601  0.00  0.00    +0.000 NA
BRANCH  16  17
ATOM     17  C   UNL     1       2.850   4.510  18.314  0.00  0.00    +0.000 C 
ATOM     18  C   UNL     1       1.392   4.129  18.352  0.00  0.00    +0.000 C 
ATOM     19  C   UNL     1       2.341   3.334  17.516  0.00  0.00    +0.000 C 
ENDBRANCH  16  17
BRANCH  16  20
ATOM     20  C   UNL     1       2.241   6.716  17.400  0.00  0.00    +0.000 C 
BRANCH  20  21
ATOM     21  C   UNL     1       1.964   7.838  18.383  0.00  0.00    +0.000 A 
ATOM     22  C   UNL     1       1.628   9.131  17.969  0.00  0.00    +0.000 A 
ATOM     23  C   UNL     1       1.288  10.120  18.882  0.00  0.00    +0.000 A 
ATOM     24  C   UNL     1       1.192   9.824  20.234  0.00  0.00    +0.000 A 
ATOM     25  C   UNL     1       1.435   8.527  20.672  0.00  0.00    +0.000 A 
ATOM     26  C   UNL     1       1.839   7.541  19.761  0.00  0.00    +0.000 A 
ENDBRANCH  20  21
ENDBRANCH  16  20
ENDBRANCH  10  16
TORSDOF 5
ENDMDL
MODEL 2
REMARK VINA RESULT:      -6.2      7.164     11.646
REMARK  Name = 
REMARK  6 active torsions:
REMARK  status: ('A' for Active; 'I' for Inactive)
REMARK    1  A    between atoms: C_1  and  C_2
REMARK    2  A    between atoms: C_2  and  C_3
REMARK    3  A    between atoms: C_12  and  N_13
REMARK    4  A    between atoms: N_13  and  C_14
REMARK    5  A    between atoms: N_13  and  C_21
REMARK    6  A    between atoms: C_14  and  C_15
REMARK                            x       y       z     vdW  Elec       q    Type
REMARK                         _______ _______ _______ _____ _____    ______ ____
ROOT
ATOM      1  C   UNL     1      -0.052  10.796  19.649  0.00  0.00    +0.000 C 
ATOM      2  O   UNL     1      -0.927   9.941  19.637  0.00  0.00    +0.000 OA
ATOM      3  N   UNL     1      -0.081  11.874  20.560  0.00  0.00    +0.000 N 
ATOM      4  C   UNL     1      -1.208  11.821  21.465  0.00  0.00    +0.000 C 
ATOM      5  C   UNL     1      -1.072  12.734  22.657  0.00  0.00    +0.000 C 
ATOM      6  C   UNL     1      -0.721  14.193  22.335  0.00  0.00    +0.000 C 
ATOM      7  C   UNL     1       0.516  14.175  21.401  0.00  0.00    +0.000 C 
ATOM      8  C   UNL     1       0.401  13.213  20.205  0.00  0.00    +0.000 C 
ATOM      9  C   UNL     1      -1.815  15.117  21.755  0.00  0.00    +0.000 C 
ATOM     10  C   UNL     1      -3.082  15.231  22.636  0.00  0.00    +0.000 C 
ATOM     11  C   UNL     1      -2.587  15.659  24.043  0.00  0.00    +0.000 C 
ATOM     12  C   UNL     1      -1.368  14.901  24.553  0.00  0.00    +0.000 C 
ATOM     13  O   UNL     1      -0.319  14.829  23.576  0.00  0.00    +0.000 OA
ENDROOT
BRANCH   1  15
ATOM     14  C   UNL     1       1.400   9.273  18.294  0.00  0.00    +0.000 C 
ATOM     15  C   UNL     1       1.160  10.708  18.747  0.00  0.00    +0.000 C 
ENDBRANCH   1  15
BRANCH  10  16
ATOM     16  N   UNL     1      -4.009  14.065  22.603  0.00  0.00    +0.000 NA
BRANCH  16  17
ATOM     17  C   UNL     1      -4.579  13.732  23.928  0.00  0.00    +0.000 C 
ATOM     18  C   UNL     1      -5.668  12.702  24.093  0.00  0.00    +0.000 C 
ATOM     19  C   UNL     1      -4.279  12.385  24.542  0.00  0.00    +0.000 C 
ENDBRANCH  16  17
BRANCH  16  20
ATOM     20  C   UNL     1      -5.040  14.048  21.528  0.00  0.00    +0.000 C 
BRANCH  20  21
ATOM     21  C   UNL     1      -5.206  12.885  20.567  0.00  0.00    +0.000 A 
ATOM     22  C   UNL     1      -6.406  12.176  20.449  0.00  0.00    +0.000 A 
ATOM     23  C   UNL     1      -6.568  11.177  19.499  0.00  0.00    +0.000 A 
ATOM     24  C   UNL     1      -5.563  10.911  18.581  0.00  0.00    +0.000 A 
ATOM     25  C   UNL     1      -4.389  11.656  18.614  0.00  0.00    +0.000 A 
ATOM     26  C   UNL     1      -4.197  12.623  19.610  0.00  0.00    +0.000 A 
ENDBRANCH  20  21
ENDBRANCH  16  20
ENDBRANCH  10  16
TORSDOF 5
ENDMDL
MODEL 3
REMARK VINA RESULT:      -6.2      4.931      9.022
REMARK  Name = 
REMARK  6 active torsions:
REMARK  status: ('A' for Active; 'I' for Inactive)
REMARK    1  A    between atoms: C_1  and  C_2
REMARK    2  A    between atoms: C_2  and  C_3
REMARK    3  A    between atoms: C_12  and  N_13
REMARK    4  A    between atoms: N_13  and  C_14
REMARK    5  A    between atoms: N_13  and  C_21
REMARK    6  A    between atoms: C_14  and  C_15
REMARK                            x       y       z     vdW  Elec       q    Type
REMARK                         _______ _______ _______ _____ _____    ______ ____
ROOT
ATOM      1  C   UNL     1       1.913   8.652  18.742  0.00  0.00    +0.000 C 
ATOM      2  O   UNL     1       1.176   7.890  19.352  0.00  0.00    +0.000 OA
ATOM      3  N   UNL     1       1.888  10.045  18.964  0.00  0.00    +0.000 N 
ATOM      4  C   UNL     1       0.947  10.438  19.990  0.00  0.00    +0.000 C 
ATOM      5  C   UNL     1       1.153  11.844  20.495  0.00  0.00    +0.000 C 
ATOM      6  C   UNL     1       1.240  12.929  19.413  0.00  0.00    +0.000 C 
ATOM      7  C   UNL     1       2.294  12.463  18.376  0.00  0.00    +0.000 C 
ATOM      8  C   UNL     1       2.115  11.014  17.888  0.00  0.00    +0.000 C 
ATOM      9  C   UNL     1      -0.053  13.378  18.695  0.00  0.00    +0.000 C 
ATOM     10  C   UNL     1      -1.158  13.897  19.646  0.00  0.00    +0.000 C 
ATOM     11  C   UNL     1      -0.500  15.013  20.500  0.00  0.00    +0.000 C 
ATOM     12  C   UNL     1       0.881  14.672  21.047  0.00  0.00    +0.000 C 
ATOM     13  O   UNL     1       1.752  14.133  20.042  0.00  0.00    +0.000 OA
ENDROOT
BRANCH   1  15
ATOM     14  C   UNL     1       3.335   6.699  18.085  0.00  0.00    +0.000 C 
ATOM     15  C   UNL     1       2.958   8.142  17.773  0.00  0.00    +0.000 C 
ENDBRANCH   1  15
BRANCH  10  16
ATOM     16  N   UNL     1      -1.908  12.858  20.407  0.00  0.00    +0.000 NA
BRANCH  16  17
ATOM     17  C   UNL     1      -2.128  13.216  21.826  0.00  0.00    +0.000 C 
ATOM     18  C   UNL     1      -3.037  12.412  22.721  0.00  0.00    +0.000 C 
ATOM     19  C   UNL     1      -1.557  12.331  22.908  0.00  0.00    +0.000 C 
ENDBRANCH  16  17
BRANCH  16  20
ATOM     20  C   UNL     1      -3.136  12.304  19.771  0.00  0.00    +0.000 C 
BRANCH  20  21
ATOM     21  C   UNL     1      -3.097  11.447  18.518  0.00  0.00    +0.000 A 
ATOM     22  C   UNL     1      -3.967  11.653  17.443  0.00  0.00    +0.000 A 
ATOM     23  C   UNL     1      -3.857  10.922  16.269  0.00  0.00    +0.000 A 
ATOM     24  C   UNL     1      -2.818  10.018  16.101  0.00  0.00    +0.000 A 
ATOM     25  C   UNL     1      -1.882   9.851  17.116  0.00  0.00    +0.000 A 
ATOM     26  C   UNL     1      -2.027  10.542  18.326  0.00  0.00    +0.000 A 
ENDBRANCH  20  21
ENDBRANCH  16  20
ENDBRANCH  10  16
TORSDOF 5
ENDMDL
MODEL 4
REMARK VINA RESULT:      -6.1      2.545      7.702
REMARK  Name = 
REMARK  6 active torsions:
REMARK  status: ('A' for Active; 'I' for Inactive)
REMARK    1  A    between atoms: C_1  and  C_2
REMARK    2  A    between atoms: C_2  and  C_3
REMARK    3  A    between atoms: C_12  and  N_13
REMARK    4  A    between atoms: N_13  and  C_14
REMARK    5  A    between atoms: N_13  and  C_21
REMARK    6  A    between atoms: C_14  and  C_15
REMARK                            x       y       z     vdW  Elec       q    Type
REMARK                         _______ _______ _______ _____ _____    ______ ____
ROOT
ATOM      1  C   UNL     1       1.231   7.784  20.912  0.00  0.00    +0.000 C 
ATOM      2  O   UNL     1       2.043   8.688  20.773  0.00  0.00    +0.000 OA
ATOM      3  N   UNL     1       1.551   6.445  20.600  0.00  0.00    +0.000 N 
ATOM      4  C   UNL     1       2.916   6.279  20.152  0.00  0.00    +0.000 C 
ATOM      5  C   UNL     1       3.387   4.847  20.160  0.00  0.00    +0.000 C 
ATOM      6  C   UNL     1       2.471   3.846  19.444  0.00  0.00    +0.000 C 
ATOM      7  C   UNL     1       1.039   4.049  20.003  0.00  0.00    +0.000 C 
ATOM      8  C   UNL     1       0.568   5.514  20.037  0.00  0.00    +0.000 C 
ATOM      9  C   UNL     1       2.444   3.825  17.899  0.00  0.00    +0.000 C 
ATOM     10  C   UNL     1       3.826   3.591  17.244  0.00  0.00    +0.000 C 
ATOM     11  C   UNL     1       4.382   2.286  17.874  0.00  0.00    +0.000 C 
ATOM     12  C   UNL     1       4.227   2.187  19.386  0.00  0.00    +0.000 C 
ATOM     13  O   UNL     1       2.899   2.512  19.824  0.00  0.00    +0.000 OA
ENDROOT
BRANCH   1  15
ATOM     14  C   UNL     1      -0.108   9.185  22.495  0.00  0.00    +0.000 C 
ATOM     15  C   UNL     1      -0.140   8.028  21.504  0.00  0.00    +0.000 C 
ENDBRANCH   1  15
BRANCH  10  16
ATOM     16  N   UNL     1       4.755   4.755  17.241  0.00  0.00    +0.000 NA
BRANCH  16  17
ATOM     17  C   UNL     1       6.040   4.482  17.924  0.00  0.00    +0.000 C 
ATOM     18  C   UNL     1       7.211   5.426  17.831  0.00  0.00    +0.000 C 
ATOM     19  C   UNL     1       6.440   5.329  19.108  0.00  0.00    +0.000 C 
ENDBRANCH  16  17
BRANCH  16  20
ATOM     20  C   UNL     1       4.949   5.466  15.946  0.00  0.00    +0.000 C 
BRANCH  20  21
ATOM     21  C   UNL     1       5.652   4.834  14.759  0.00  0.00    +0.000 A 
ATOM     22  C   UNL     1       5.004   3.955  13.885  0.00  0.00    +0.000 A 
ATOM     23  C   UNL     1       5.635   3.460  12.753  0.00  0.00    +0.000 A 
ATOM     24  C   UNL     1       6.907   3.894  12.412  0.00  0.00    +0.000 A 
ATOM     25  C   UNL     1       7.548   4.835  13.211  0.00  0.00    +0.000 A 
ATOM     26  C   UNL     1       6.939   5.290  14.388  0.00  0.00    +0.000 A 
ENDBRANCH  20  21
ENDBRANCH  16  20
ENDBRANCH  10  16
TORSDOF 5
ENDMDL
MODEL 5
REMARK VINA RESULT:      -6.1      8.490     11.886
REMARK  Name = 
REMARK  6 active torsions:
REMARK  status: ('A' for Active; 'I' for Inactive)
REMARK    1  A    between atoms: C_1  and  C_2
REMARK    2  A    between atoms: C_2  and  C_3
REMARK    3  A    between atoms: C_12  and  N_13
REMARK    4  A    between atoms: N_13  and  C_14
REMARK    5  A    between atoms: N_13  and  C_21
REMARK    6  A    between atoms: C_14  and  C_15
REMARK                            x       y       z     vdW  Elec       q    Type
REMARK                         _______ _______ _______ _____ _____    ______ ____
ROOT
ATOM      1  C   UNL     1      -2.579  10.661  17.556  0.00  0.00    +0.000 C 
ATOM      2  O   UNL     1      -1.383  10.643  17.814  0.00  0.00    +0.000 OA
ATOM      3  N   UNL     1      -3.475  11.504  18.247  0.00  0.00    +0.000 N 
ATOM      4  C   UNL     1      -2.822  12.338  19.232  0.00  0.00    +0.000 C 
ATOM      5  C   UNL     1      -3.675  13.481  19.720  0.00  0.00    +0.000 C 
ATOM      6  C   UNL     1      -5.082  13.099  20.200  0.00  0.00    +0.000 C 
ATOM      7  C   UNL     1      -5.735  12.247  19.081  0.00  0.00    +0.000 C 
ATOM      8  C   UNL     1      -4.853  11.104  18.549  0.00  0.00    +0.000 C 
ATOM      9  C   UNL     1      -5.243  12.398  21.568  0.00  0.00    +0.000 C 
ATOM     10  C   UNL     1      -4.652  13.190  22.759  0.00  0.00    +0.000 C 
ATOM     11  C   UNL     1      -5.300  14.598  22.701  0.00  0.00    +0.000 C 
ATOM     12  C   UNL     1      -5.347  15.227  21.313  0.00  0.00    +0.000 C 
ATOM     13  O   UNL     1      -5.851  14.324  20.319  0.00  0.00    +0.000 OA
ENDROOT
BRANCH   1  15
ATOM     14  C   UNL     1      -2.838  10.474  15.073  0.00  0.00    +0.000 C 
ATOM     15  C   UNL     1      -3.161   9.843  16.422  0.00  0.00    +0.000 C 
ENDBRANCH   1  15
BRANCH  10  16
ATOM     16  N   UNL     1      -3.168  13.166  22.889  0.00  0.00    +0.000 NA
BRANCH  16  17
ATOM     17  C   UNL     1      -2.615  14.388  23.515  0.00  0.00    +0.000 C 
ATOM     18  C   UNL     1      -1.175  14.479  23.954  0.00  0.00    +0.000 C 
ATOM     19  C   UNL     1      -1.626  15.229  22.743  0.00  0.00    +0.000 C 
ENDBRANCH  16  17
BRANCH  16  20
ATOM     20  C   UNL     1      -2.555  11.926  23.442  0.00  0.00    +0.000 C 
BRANCH  20  21
ATOM     21  C   UNL     1      -1.328  11.273  22.831  0.00  0.00    +0.000 A 
ATOM     22  C   UNL     1      -0.824  10.051  23.287  0.00  0.00    +0.000 A 
ATOM     23  C   UNL     1       0.241   9.424  22.657  0.00  0.00    +0.000 A 
ATOM     24  C   UNL     1       0.784   9.959  21.497  0.00  0.00    +0.000 A 
ATOM     25  C   UNL     1       0.251  11.128  20.966  0.00  0.00    +0.000 A 
ATOM     26  C   UNL     1      -0.784  11.796  21.634  0.00  0.00    +0.000 A 
ENDBRANCH  20  21
ENDBRANCH  16  20
ENDBRANCH  10  16
TORSDOF 5
ENDMDL
MODEL 6
REMARK VINA RESULT:      -6.0      9.601     12.927
REMARK  Name = 
REMARK  6 active torsions:
REMARK  status: ('A' for Active; 'I' for Inactive)
REMARK    1  A    between atoms: C_1  and  C_2
REMARK    2  A    between atoms: C_2  and  C_3
REMARK    3  A    between atoms: C_12  and  N_13
REMARK    4  A    between atoms: N_13  and  C_14
REMARK    5  A    between atoms: N_13  and  C_21
REMARK    6  A    between atoms: C_14  and  C_15
REMARK                            x       y       z     vdW  Elec       q    Type
REMARK                         _______ _______ _______ _____ _____    ______ ____
ROOT
ATOM      1  C   UNL     1      -3.386  11.222  17.750  0.00  0.00    +0.000 C 
ATOM      2  O   UNL     1      -2.284  11.693  17.995  0.00  0.00    +0.000 OA
ATOM      3  N   UNL     1      -4.549  11.670  18.411  0.00  0.00    +0.000 N 
ATOM      4  C   UNL     1      -4.290  12.741  19.349  0.00  0.00    +0.000 C 
ATOM      5  C   UNL     1      -5.532  13.472  19.792  0.00  0.00    +0.000 C 
ATOM      6  C   UNL     1      -6.674  12.585  20.305  0.00  0.00    +0.000 C 
ATOM      7  C   UNL     1      -6.925  11.491  19.235  0.00  0.00    +0.000 C 
ATOM      8  C   UNL     1      -5.656  10.770  18.747  0.00  0.00    +0.000 C 
ATOM      9  C   UNL     1      -6.554  11.944  21.706  0.00  0.00    +0.000 C 
ATOM     10  C   UNL     1      -6.337  12.961  22.852  0.00  0.00    +0.000 C 
ATOM     11  C   UNL     1      -7.492  13.990  22.735  0.00  0.00    +0.000 C 
ATOM     12  C   UNL     1      -7.773  14.482  21.320  0.00  0.00    +0.000 C 
ATOM     13  O   UNL     1      -7.868  13.406  20.375  0.00  0.00    +0.000 OA
ENDROOT
BRANCH   1  15
ATOM     14  C   UNL     1      -3.042  10.686  15.329  0.00  0.00    +0.000 C 
ATOM     15  C   UNL     1      -3.584  10.187  16.663  0.00  0.00    +0.000 C 
ENDBRANCH   1  15
BRANCH  10  16
ATOM     16  N   UNL     1      -4.967  13.535  22.966  0.00  0.00    +0.000 NA
BRANCH  16  17
ATOM     17  C   UNL     1      -4.950  14.900  23.542  0.00  0.00    +0.000 C 
ATOM     18  C   UNL     1      -3.704  15.497  24.144  0.00  0.00    +0.000 C 
ATOM     19  C   UNL     1      -4.196  15.993  22.824  0.00  0.00    +0.000 C 
ENDBRANCH  16  17
BRANCH  16  20
ATOM     20  C   UNL     1      -3.912  12.665  23.556  0.00  0.00    +0.000 C 
BRANCH  20  21
ATOM     21  C   UNL     1      -2.658  12.265  22.800  0.00  0.00    +0.000 A 
ATOM     22  C   UNL     1      -2.094  13.073  21.807  0.00  0.00    +0.000 A 
ATOM     23  C   UNL     1      -0.897  12.736  21.191  0.00  0.00    +0.000 A 
ATOM     24  C   UNL     1      -0.182  11.623  21.609  0.00  0.00    +0.000 A 
ATOM     25  C   UNL     1      -0.670  10.845  22.653  0.00  0.00    +0.000 A 
ATOM     26  C   UNL     1      -1.909  11.147  23.235  0.00  0.00    +0.000 A 
ENDBRANCH  20  21
ENDBRANCH  16  20
ENDBRANCH  10  16
TORSDOF 5
ENDMDL
MODEL 7
REMARK VINA RESULT:      -6.0      9.254     11.663
REMARK  Name = 
REMARK  6 active torsions:
REMARK  status: ('A' for Active; 'I' for Inactive)
REMARK    1  A    between atoms: C_1  and  C_2
REMARK    2  A    between atoms: C_2  and  C_3
REMARK    3  A    between atoms: C_12  and  N_13
REMARK    4  A    between atoms: N_13  and  C_14
REMARK    5  A    between atoms: N_13  and  C_21
REMARK    6  A    between atoms: C_14  and  C_15
REMARK                            x       y       z     vdW  Elec       q    Type
REMARK                         _______ _______ _______ _____ _____    ______ ____
ROOT
ATOM      1  C   UNL     1       4.532  15.528  18.868  0.00  0.00    +0.000 C 
ATOM      2  O   UNL     1       4.211  14.355  19.003  0.00  0.00    +0.000 OA
ATOM      3  N   UNL     1       5.859  15.905  18.571  0.00  0.00    +0.000 N 
ATOM      4  C   UNL     1       6.747  14.774  18.414  0.00  0.00    +0.000 C 
ATOM      5  C   UNL     1       8.057  15.118  17.754  0.00  0.00    +0.000 C 
ATOM      6  C   UNL     1       8.815  16.304  18.366  0.00  0.00    +0.000 C 
ATOM      7  C   UNL     1       7.818  17.488  18.464  0.00  0.00    +0.000 C 
ATOM      8  C   UNL     1       6.462  17.133  19.098  0.00  0.00    +0.000 C 
ATOM      9  C   UNL     1       9.548  16.111  19.713  0.00  0.00    +0.000 C 
ATOM     10  C   UNL     1      10.594  14.971  19.708  0.00  0.00    +0.000 C 
ATOM     11  C   UNL     1      11.546  15.269  18.519  0.00  0.00    +0.000 C 
ATOM     12  C   UNL     1      10.849  15.673  17.226  0.00  0.00    +0.000 C 
ATOM     13  O   UNL     1       9.856  16.688  17.431  0.00  0.00    +0.000 OA
ENDROOT
BRANCH   1  15
ATOM     14  C   UNL     1       2.818  16.821  17.582  0.00  0.00    +0.000 C 
ATOM     15  C   UNL     1       3.511  16.644  18.927  0.00  0.00    +0.000 C 
ENDBRANCH   1  15
BRANCH  10  16
ATOM     16  N   UNL     1      10.052  13.585  19.772  0.00  0.00    +0.000 NA
BRANCH  16  17
ATOM     17  C   UNL     1      10.500  12.728  18.650  0.00  0.00    +0.000 C 
ATOM     18  C   UNL     1      10.493  11.224  18.742  0.00  0.00    +0.000 C 
ATOM     19  C   UNL     1       9.480  11.916  17.889  0.00  0.00    +0.000 C 
ENDBRANCH  16  17
BRANCH  16  20
ATOM     20  C   UNL     1      10.136  12.882  21.082  0.00  0.00    +0.000 C 
BRANCH  20  21
ATOM     21  C   UNL     1       9.016  12.917  22.107  0.00  0.00    +0.000 A 
ATOM     22  C   UNL     1       8.288  11.776  22.459  0.00  0.00    +0.000 A 
ATOM     23  C   UNL     1       7.331  11.807  23.463  0.00  0.00    +0.000 A 
ATOM     24  C   UNL     1       7.131  12.962  24.206  0.00  0.00    +0.000 A 
ATOM     25  C   UNL     1       7.899  14.090  23.941  0.00  0.00    +0.000 A 
ATOM     26  C   UNL     1       8.822  14.081  22.887  0.00  0.00    +0.000 A 
ENDBRANCH  20  21
ENDBRANCH  16  20
ENDBRANCH  10  16
TORSDOF 5
ENDMDL
MODEL 8
REMARK VINA RESULT:      -6.0      6.984     11.441
REMARK  Name = 
REMARK  6 active torsions:
REMARK  status: ('A' for Active; 'I' for Inactive)
REMARK    1  A    between atoms: C_1  and  C_2
REMARK    2  A    between atoms: C_2  and  C_3
REMARK    3  A    between atoms: C_12  and  N_13
REMARK    4  A    between atoms: N_13  and  C_14
REMARK    5  A    between atoms: N_13  and  C_21
REMARK    6  A    between atoms: C_14  and  C_15
REMARK                            x       y       z     vdW  Elec       q    Type
REMARK                         _______ _______ _______ _____ _____    ______ ____
ROOT
ATOM      1  C   UNL     1       0.103   9.003  21.353  0.00  0.00    +0.000 C 
ATOM      2  O   UNL     1      -0.687   8.239  21.890  0.00  0.00    +0.000 OA
ATOM      3  N   UNL     1      -0.026  10.404  21.467  0.00  0.00    +0.000 N 
ATOM      4  C   UNL     1      -1.141  10.804  22.298  0.00  0.00    +0.000 C 
ATOM      5  C   UNL     1      -1.089  12.248  22.727  0.00  0.00    +0.000 C 
ATOM      6  C   UNL     1      -0.879  13.267  21.598  0.00  0.00    +0.000 C 
ATOM      7  C   UNL     1       0.352  12.800  20.779  0.00  0.00    +0.000 C 
ATOM      8  C   UNL     1       0.326  11.316  20.374  0.00  0.00    +0.000 C 
ATOM      9  C   UNL     1      -2.058  13.592  20.652  0.00  0.00    +0.000 C 
ATOM     10  C   UNL     1      -3.327  14.102  21.374  0.00  0.00    +0.000 C 
ATOM     11  C   UNL     1      -2.873  15.307  22.240  0.00  0.00    +0.000 C 
ATOM     12  C   UNL     1      -1.586  15.085  23.024  0.00  0.00    +0.000 C 
ATOM     13  O   UNL     1      -0.537  14.536  22.212  0.00  0.00    +0.000 OA
ENDROOT
BRANCH   1  15
ATOM     14  C   UNL     1       1.520   7.006  20.838  0.00  0.00    +0.000 C 
ATOM     15  C   UNL     1       1.316   8.497  20.602  0.00  0.00    +0.000 C 
ENDBRANCH   1  15
BRANCH  10  16
ATOM     16  N   UNL     1      -4.140  13.070  22.078  0.00  0.00    +0.000 NA
BRANCH  16  17
ATOM     17  C   UNL     1      -4.494  13.448  23.465  0.00  0.00    +0.000 C 
ATOM     18  C   UNL     1      -5.645  12.808  24.198  0.00  0.00    +0.000 C 
ATOM     19  C   UNL     1      -4.242  12.467  24.584  0.00  0.00    +0.000 C 
ENDBRANCH  16  17
BRANCH  16  20
ATOM     20  C   UNL     1      -5.300  12.499  21.339  0.00  0.00    +0.000 C 
BRANCH  20  21
ATOM     21  C   UNL     1      -5.499  12.691  19.846  0.00  0.00    +0.000 A 
ATOM     22  C   UNL     1      -4.939  11.828  18.899  0.00  0.00    +0.000 A 
ATOM     23  C   UNL     1      -5.207  11.964  17.544  0.00  0.00    +0.000 A 
ATOM     24  C   UNL     1      -6.112  12.917  17.100  0.00  0.00    +0.000 A 
ATOM     25  C   UNL     1      -6.754  13.736  18.023  0.00  0.00    +0.000 A 
ATOM     26  C   UNL     1      -6.439  13.642  19.386  0.00  0.00    +0.000 A 
ENDBRANCH  20  21
ENDBRANCH  16  20
ENDBRANCH  10  16
TORSDOF 5
ENDMDL
MODEL 9
REMARK VINA RESULT:      -6.0      9.657     12.281
REMARK  Name = 
REMARK  6 active torsions:
REMARK  status: ('A' for Active; 'I' for Inactive)
REMARK    1  A    between atoms: C_1  and  C_2
REMARK    2  A    between atoms: C_2  and  C_3
REMARK    3  A    between atoms: C_12  and  N_13
REMARK    4  A    between atoms: N_13  and  C_14
REMARK    5  A    between atoms: N_13  and  C_21
REMARK    6  A    between atoms: C_14  and  C_15
REMARK                            x       y       z     vdW  Elec       q    Type
REMARK                         _______ _______ _______ _____ _____    ______ ____
ROOT
ATOM      1  C   UNL     1       5.448  16.153  20.081  0.00  0.00    +0.000 C 
ATOM      2  O   UNL     1       5.114  14.992  20.278  0.00  0.00    +0.000 OA
ATOM      3  N   UNL     1       6.645  16.476  19.408  0.00  0.00    +0.000 N 
ATOM      4  C   UNL     1       7.378  15.311  18.964  0.00  0.00    +0.000 C 
ATOM      5  C   UNL     1       8.449  15.618  17.949  0.00  0.00    +0.000 C 
ATOM      6  C   UNL     1       9.423  16.740  18.334  0.00  0.00    +0.000 C 
ATOM      7  C   UNL     1       8.572  17.966  18.756  0.00  0.00    +0.000 C 
ATOM      8  C   UNL     1       7.449  17.651  19.760  0.00  0.00    +0.000 C 
ATOM      9  C   UNL     1      10.512  16.456  19.394  0.00  0.00    +0.000 C 
ATOM     10  C   UNL     1      11.440  15.268  19.046  0.00  0.00    +0.000 C 
ATOM     11  C   UNL     1      12.009  15.568  17.634  0.00  0.00    +0.000 C 
ATOM     12  C   UNL     1      10.983  16.058  16.620  0.00  0.00    +0.000 C 
ATOM     13  O   UNL     1      10.158  17.111  17.139  0.00  0.00    +0.000 OA
ENDROOT
BRANCH   1  15
ATOM     14  C   UNL     1       3.112  17.052  20.072  0.00  0.00    +0.000 C 
ATOM     15  C   UNL     1       4.559  17.314  20.471  0.00  0.00    +0.000 C 
ENDBRANCH   1  15
BRANCH  10  16
ATOM     16  N   UNL     1      10.862  13.908  19.235  0.00  0.00    +0.000 NA
BRANCH  16  17
ATOM     17  C   UNL     1      11.299  12.937  18.207  0.00  0.00    +0.000 C 
ATOM     18  C   UNL     1      11.148  11.449  18.398  0.00  0.00    +0.000 C 
ATOM     19  C   UNL     1      10.259  12.163  17.434  0.00  0.00    +0.000 C 
ENDBRANCH  16  17
BRANCH  16  20
ATOM     20  C   UNL     1      10.914  13.333  20.608  0.00  0.00    +0.000 C 
BRANCH  20  21
ATOM     21  C   UNL     1       9.699  13.261  21.516  0.00  0.00    +0.000 A 
ATOM     22  C   UNL     1       8.981  14.398  21.898  0.00  0.00    +0.000 A 
ATOM     23  C   UNL     1       7.819  14.304  22.651  0.00  0.00    +0.000 A 
ATOM     24  C   UNL     1       7.291  13.063  22.975  0.00  0.00    +0.000 A 
ATOM     25  C   UNL     1       7.932  11.909  22.537  0.00  0.00    +0.000 A 
ATOM     26  C   UNL     1       9.139  12.000  21.830  0.00  0.00    +0.000 A 
ENDBRANCH  20  21
ENDBRANCH  16  20
ENDBRANCH  10  16
TORSDOF 5
ENDMDL
