MODEL 1
REMARK VINA RESULT:      -8.3      0.000      0.000
REMARK  Name = 
REMARK  5 active torsions:
REMARK  status: ('A' for Active; 'I' for Inactive)
REMARK    1  A    between atoms: C_1  and  C_2
REMARK    2  A    between atoms: C_2  and  N_3
REMARK    3  A    between atoms: C_2  and  C_13
REMARK    4  A    between atoms: C_4  and  C_6
REMARK    5  A    between atoms: C_9  and  O_10
REMARK                            x       y       z     vdW  Elec       q    Type
REMARK                         _______ _______ _______ _____ _____    ______ ____
ROOT
ATOM      1  N   UNL     1       5.472   5.568  18.434  0.00  0.00    +0.000 N 
ATOM      2  C   UNL     1       4.143   5.864  18.653  0.00  0.00    +0.000 C 
ATOM      3  O   UNL     1       3.571   6.801  18.105  0.00  0.00    +0.000 OA
ATOM      4  H   UNL     1       5.913   4.761  18.853  0.00  0.00    +0.000 HD
ENDROOT
BRANCH   2   5
ATOM      5  C   UNL     1       3.383   4.976  19.563  0.00  0.00    +0.000 A 
ATOM      6  C   UNL     1       2.170   5.327  20.161  0.00  0.00    +0.000 A 
ATOM      7  C   UNL     1       1.525   4.405  20.990  0.00  0.00    +0.000 A 
ATOM      8  C   UNL     1       2.122   3.171  21.194  0.00  0.00    +0.000 A 
ATOM      9  N   UNL     1       3.284   2.800  20.636  0.00  0.00    +0.000 NA
ATOM     10  C   UNL     1       3.887   3.706  19.826  0.00  0.00    +0.000 A 
BRANCH   8  11
ATOM     11  O   UNL     1       1.542   2.226  21.988  0.00  0.00    +0.000 OA
ATOM     12  H   UNL     1       0.639   2.077  21.676  0.00  0.00    +0.000 HD
ENDBRANCH   8  11
ENDBRANCH   2   5
BRANCH   1  14
ATOM     13  C   UNL     1       7.690   6.556  17.960  0.00  0.00    +0.000 C 
ATOM     14  C   UNL     1       6.263   6.323  17.475  0.00  0.00    +0.000 C 
BRANCH  14  15
ATOM     15  C   UNL     1       6.241   5.599  16.166  0.00  0.00    +0.000 A 
ATOM     16  C   UNL     1       5.360   4.681  15.630  0.00  0.00    +0.000 A 
ATOM     17  C   UNL     1       5.853   4.339  14.345  0.00  0.00    +0.000 A 
ATOM     18  C   UNL     1       5.441   3.484  13.308  0.00  0.00    +0.000 A 
ATOM     19  C   UNL     1       6.216   3.416  12.141  0.00  0.00    +0.000 A 
ATOM     20  C   UNL     1       7.372   4.188  12.003  0.00  0.00    +0.000 A 
ATOM     21  C   UNL     1       7.799   5.046  13.024  0.00  0.00    +0.000 A 
ATOM     22  C   UNL     1       7.013   5.085  14.175  0.00  0.00    +0.000 A 
ATOM     23  O   UNL     1       7.258   5.842  15.284  0.00  0.00    +0.000 OA
ENDBRANCH  14  15
ENDBRANCH   1  14
TORSDOF 4
ENDMDL
MODEL 2
REMARK VINA RESULT:      -8.2      0.612      1.055
REMARK  Name = 
REMARK  5 active torsions:
REMARK  status: ('A' for Active; 'I' for Inactive)
REMARK    1  A    between atoms: C_1  and  C_2
REMARK    2  A    between atoms: C_2  and  N_3
REMARK    3  A    between atoms: C_2  and  C_13
REMARK    4  A    between atoms: C_4  and  C_6
REMARK    5  A    between atoms: C_9  and  O_10
REMARK                            x       y       z     vdW  Elec       q    Type
REMARK                         _______ _______ _______ _____ _____    ______ ____
ROOT
ATOM      1  N   UNL     1       5.500   5.497  18.369  0.00  0.00    +0.000 N 
ATOM      2  C   UNL     1       4.168   5.701  18.661  0.00  0.00    +0.000 C 
ATOM      3  O   UNL     1       3.510   6.612  18.166  0.00  0.00    +0.000 OA
ATOM      4  H   UNL     1       6.012   4.711  18.744  0.00  0.00    +0.000 HD
ENDROOT
BRANCH   2   5
ATOM      5  C   UNL     1       3.513   4.746  19.584  0.00  0.00    +0.000 A 
ATOM      6  C   UNL     1       3.896   3.410  19.724  0.00  0.00    +0.000 A 
ATOM      7  C   UNL     1       3.220   2.597  20.639  0.00  0.00    +0.000 A 
ATOM      8  C   UNL     1       2.184   3.152  21.373  0.00  0.00    +0.000 A 
ATOM      9  N   UNL     1       1.790   4.429  21.265  0.00  0.00    +0.000 NA
ATOM     10  C   UNL     1       2.467   5.202  20.379  0.00  0.00    +0.000 A 
BRANCH   8  11
ATOM     11  O   UNL     1       1.488   2.414  22.285  0.00  0.00    +0.000 OA
ATOM     12  H   UNL     1       0.891   3.005  22.765  0.00  0.00    +0.000 HD
ENDBRANCH   8  11
ENDBRANCH   2   5
BRANCH   1  14
ATOM     13  C   UNL     1       7.602   6.690  17.841  0.00  0.00    +0.000 C 
ATOM     14  C   UNL     1       6.191   6.323  17.392  0.00  0.00    +0.000 C 
BRANCH  14  15
ATOM     15  C   UNL     1       6.205   5.600  16.082  0.00  0.00    +0.000 A 
ATOM     16  C   UNL     1       5.330   4.696  15.514  0.00  0.00    +0.000 A 
ATOM     17  C   UNL     1       5.862   4.348  14.247  0.00  0.00    +0.000 A 
ATOM     18  C   UNL     1       5.474   3.499  13.195  0.00  0.00    +0.000 A 
ATOM     19  C   UNL     1       6.288   3.421  12.056  0.00  0.00    +0.000 A 
ATOM     20  C   UNL     1       7.459   4.176  11.959  0.00  0.00    +0.000 A 
ATOM     21  C   UNL     1       7.863   5.027  12.996  0.00  0.00    +0.000 A 
ATOM     22  C   UNL     1       7.038   5.076  14.118  0.00  0.00    +0.000 A 
ATOM     23  O   UNL     1       7.255   5.829  15.236  0.00  0.00    +0.000 OA
ENDBRANCH  14  15
ENDBRANCH   1  14
TORSDOF 4
ENDMDL
MODEL 3
REMARK VINA RESULT:      -7.8      1.222      1.233
REMARK  Name = 
REMARK  5 active torsions:
REMARK  status: ('A' for Active; 'I' for Inactive)
REMARK    1  A    between atoms: C_1  and  C_2
REMARK    2  A    between atoms: C_2  and  N_3
REMARK    3  A    between atoms: C_2  and  C_13
REMARK    4  A    between atoms: C_4  and  C_6
REMARK    5  A    between atoms: C_9  and  O_10
REMARK                            x       y       z     vdW  Elec       q    Type
REMARK                         _______ _______ _______ _____ _____    ______ ____
ROOT
ATOM      1  N   UNL     1       5.397   4.798  18.174  0.00  0.00    +0.000 N 
ATOM      2  C   UNL     1       4.205   5.484  18.274  0.00  0.00    +0.000 C 
ATOM      3  O   UNL     1       4.069   6.642  17.889  0.00  0.00    +0.000 OA
ATOM      4  H   UNL     1       5.476   3.829  18.447  0.00  0.00    +0.000 HD
ENDROOT
BRANCH   2   5
ATOM      5  C   UNL     1       3.041   4.762  18.838  0.00  0.00    +0.000 A 
ATOM      6  C   UNL     1       2.377   5.144  20.006  0.00  0.00    +0.000 A 
ATOM      7  C   UNL     1       1.276   4.401  20.441  0.00  0.00    +0.000 A 
ATOM      8  C   UNL     1       0.887   3.300  19.694  0.00  0.00    +0.000 A 
ATOM      9  N   UNL     1       1.500   2.905  18.569  0.00  0.00    +0.000 NA
ATOM     10  C   UNL     1       2.559   3.647  18.159  0.00  0.00    +0.000 A 
BRANCH   8  11
ATOM     11  O   UNL     1      -0.181   2.537  20.062  0.00  0.00    +0.000 OA
ATOM     12  H   UNL     1       0.149   1.748  20.515  0.00  0.00    +0.000 HD
ENDBRANCH   8  11
ENDBRANCH   2   5
BRANCH   1  14
ATOM     13  C   UNL     1       7.857   5.038  18.248  0.00  0.00    +0.000 C 
ATOM     14  C   UNL     1       6.558   5.396  17.535  0.00  0.00    +0.000 C 
BRANCH  14  15
ATOM     15  C   UNL     1       6.585   4.970  16.102  0.00  0.00    +0.000 A 
ATOM     16  C   UNL     1       5.877   4.009  15.407  0.00  0.00    +0.000 A 
ATOM     17  C   UNL     1       6.326   4.057  14.064  0.00  0.00    +0.000 A 
ATOM     18  C   UNL     1       6.022   3.362  12.879  0.00  0.00    +0.000 A 
ATOM     19  C   UNL     1       6.699   3.709  11.701  0.00  0.00    +0.000 A 
ATOM     20  C   UNL     1       7.653   4.730  11.696  0.00  0.00    +0.000 A 
ATOM     21  C   UNL     1       7.969   5.433  12.866  0.00  0.00    +0.000 A 
ATOM     22  C   UNL     1       7.286   5.060  14.022  0.00  0.00    +0.000 A 
ATOM     23  O   UNL     1       7.454   5.608  15.260  0.00  0.00    +0.000 OA
ENDBRANCH  14  15
ENDBRANCH   1  14
TORSDOF 4
ENDMDL
MODEL 4
REMARK VINA RESULT:      -7.6      1.022      1.045
REMARK  Name = 
REMARK  5 active torsions:
REMARK  status: ('A' for Active; 'I' for Inactive)
REMARK    1  A    between atoms: C_1  and  C_2
REMARK    2  A    between atoms: C_2  and  N_3
REMARK    3  A    between atoms: C_2  and  C_13
REMARK    4  A    between atoms: C_4  and  C_6
REMARK    5  A    between atoms: C_9  and  O_10
REMARK                            x       y       z     vdW  Elec       q    Type
REMARK                         _______ _______ _______ _____ _____    ______ ____
ROOT
ATOM      1  N   UNL     1       5.015   5.784  18.287  0.00  0.00    +0.000 N 
ATOM      2  C   UNL     1       5.114   4.570  18.934  0.00  0.00    +0.000 C 
ATOM      3  O   UNL     1       6.099   3.843  18.839  0.00  0.00    +0.000 OA
ATOM      4  H   UNL     1       4.220   6.393  18.419  0.00  0.00    +0.000 HD
ENDROOT
BRANCH   2   5
ATOM      5  C   UNL     1       3.989   4.164  19.808  0.00  0.00    +0.000 A 
ATOM      6  C   UNL     1       2.906   4.989  20.119  0.00  0.00    +0.000 A 
ATOM      7  C   UNL     1       1.887   4.499  20.941  0.00  0.00    +0.000 A 
ATOM      8  C   UNL     1       1.994   3.204  21.424  0.00  0.00    +0.000 A 
ATOM      9  N   UNL     1       3.019   2.385  21.145  0.00  0.00    +0.000 NA
ATOM     10  C   UNL     1       3.991   2.877  20.337  0.00  0.00    +0.000 A 
BRANCH   8  11
ATOM     11  O   UNL     1       1.033   2.666  22.226  0.00  0.00    +0.000 OA
ATOM     12  H   UNL     1       0.516   2.037  21.703  0.00  0.00    +0.000 HD
ENDBRANCH   8  11
ENDBRANCH   2   5
BRANCH   1  14
ATOM     13  C   UNL     1       7.455   6.181  18.219  0.00  0.00    +0.000 C 
ATOM     14  C   UNL     1       6.118   6.307  17.497  0.00  0.00    +0.000 C 
BRANCH  14  15
ATOM     15  C   UNL     1       6.139   5.598  16.180  0.00  0.00    +0.000 A 
ATOM     16  C   UNL     1       5.267   4.701  15.597  0.00  0.00    +0.000 A 
ATOM     17  C   UNL     1       5.806   4.366  14.329  0.00  0.00    +0.000 A 
ATOM     18  C   UNL     1       5.424   3.529  13.266  0.00  0.00    +0.000 A 
ATOM     19  C   UNL     1       6.244   3.462  12.131  0.00  0.00    +0.000 A 
ATOM     20  C   UNL     1       7.417   4.217  12.049  0.00  0.00    +0.000 A 
ATOM     21  C   UNL     1       7.815   5.056  13.097  0.00  0.00    +0.000 A 
ATOM     22  C   UNL     1       6.983   5.095  14.215  0.00  0.00    +0.000 A 
ATOM     23  O   UNL     1       7.194   5.835  15.342  0.00  0.00    +0.000 OA
ENDBRANCH  14  15
ENDBRANCH   1  14
TORSDOF 4
ENDMDL
MODEL 5
REMARK VINA RESULT:      -7.3      3.089      7.758
REMARK  Name = 
REMARK  5 active torsions:
REMARK  status: ('A' for Active; 'I' for Inactive)
REMARK    1  A    between atoms: C_1  and  C_2
REMARK    2  A    between atoms: C_2  and  N_3
REMARK    3  A    between atoms: C_2  and  C_13
REMARK    4  A    between atoms: C_4  and  C_6
REMARK    5  A    between atoms: C_9  and  O_10
REMARK                            x       y       z     vdW  Elec       q    Type
REMARK                         _______ _______ _______ _____ _____    ______ ____
ROOT
ATOM      1  N   UNL     1       3.967   5.600  17.775  0.00  0.00    +0.000 N 
ATOM      2  C   UNL     1       4.285   4.522  16.976  0.00  0.00    +0.000 C 
ATOM      3  O   UNL     1       3.703   3.444  17.049  0.00  0.00    +0.000 OA
ATOM      4  H   UNL     1       4.421   6.496  17.664  0.00  0.00    +0.000 HD
ENDROOT
BRANCH   2   5
ATOM      5  C   UNL     1       5.353   4.707  15.966  0.00  0.00    +0.000 A 
ATOM      6  C   UNL     1       5.349   4.105  14.706  0.00  0.00    +0.000 A 
ATOM      7  C   UNL     1       6.399   4.361  13.821  0.00  0.00    +0.000 A 
ATOM      8  C   UNL     1       7.417   5.206  14.234  0.00  0.00    +0.000 A 
ATOM      9  N   UNL     1       7.455   5.802  15.435  0.00  0.00    +0.000 NA
ATOM     10  C   UNL     1       6.419   5.548  16.273  0.00  0.00    +0.000 A 
BRANCH   8  11
ATOM     11  O   UNL     1       8.468   5.501  13.417  0.00  0.00    +0.000 OA
ATOM     12  H   UNL     1       8.624   6.455  13.450  0.00  0.00    +0.000 HD
ENDBRANCH   8  11
ENDBRANCH   2   5
BRANCH   1  14
ATOM     13  C   UNL     1       3.263   4.889  20.036  0.00  0.00    +0.000 C 
ATOM     14  C   UNL     1       2.860   5.538  18.716  0.00  0.00    +0.000 C 
BRANCH  14  15
ATOM     15  C   UNL     1       2.333   6.922  18.924  0.00  0.00    +0.000 A 
ATOM     16  C   UNL     1       2.187   7.996  18.069  0.00  0.00    +0.000 A 
ATOM     17  C   UNL     1       1.626   9.054  18.828  0.00  0.00    +0.000 A 
ATOM     18  C   UNL     1       1.240  10.380  18.567  0.00  0.00    +0.000 A 
ATOM     19  C   UNL     1       0.700  11.144  19.611  0.00  0.00    +0.000 A 
ATOM     20  C   UNL     1       0.537  10.599  20.888  0.00  0.00    +0.000 A 
ATOM     21  C   UNL     1       0.916   9.280  21.167  0.00  0.00    +0.000 A 
ATOM     22  C   UNL     1       1.458   8.550  20.111  0.00  0.00    +0.000 A 
ATOM     23  O   UNL     1       1.897   7.259  20.176  0.00  0.00    +0.000 OA
ENDBRANCH  14  15
ENDBRANCH   1  14
TORSDOF 4
ENDMDL
MODEL 6
REMARK VINA RESULT:      -7.1      2.687      3.945
REMARK  Name = 
REMARK  5 active torsions:
REMARK  status: ('A' for Active; 'I' for Inactive)
REMARK    1  A    between atoms: C_1  and  C_2
REMARK    2  A    between atoms: C_2  and  N_3
REMARK    3  A    between atoms: C_2  and  C_13
REMARK    4  A    between atoms: C_4  and  C_6
REMARK    5  A    between atoms: C_9  and  O_10
REMARK                            x       y       z     vdW  Elec       q    Type
REMARK                         _______ _______ _______ _____ _____    ______ ____
ROOT
ATOM      1  N   UNL     1       3.678   5.610  17.592  0.00  0.00    +0.000 N 
ATOM      2  C   UNL     1       3.316   6.100  18.829  0.00  0.00    +0.000 C 
ATOM      3  O   UNL     1       3.626   5.548  19.881  0.00  0.00    +0.000 OA
ATOM      4  H   UNL     1       3.460   6.106  16.740  0.00  0.00    +0.000 HD
ENDROOT
BRANCH   2   5
ATOM      5  C   UNL     1       2.553   7.369  18.869  0.00  0.00    +0.000 A 
ATOM      6  C   UNL     1       2.405   8.225  17.775  0.00  0.00    +0.000 A 
ATOM      7  C   UNL     1       1.648   9.391  17.917  0.00  0.00    +0.000 A 
ATOM      8  C   UNL     1       1.073   9.659  19.149  0.00  0.00    +0.000 A 
ATOM      9  N   UNL     1       1.193   8.860  20.220  0.00  0.00    +0.000 NA
ATOM     10  C   UNL     1       1.923   7.728  20.057  0.00  0.00    +0.000 A 
BRANCH   8  11
ATOM     11  O   UNL     1       0.320  10.777  19.351  0.00  0.00    +0.000 OA
ATOM     12  H   UNL     1       0.738  11.516  18.889  0.00  0.00    +0.000 HD
ENDBRANCH   8  11
ENDBRANCH   2   5
BRANCH   1  14
ATOM     13  C   UNL     1       3.706   3.139  17.494  0.00  0.00    +0.000 C 
ATOM     14  C   UNL     1       4.518   4.430  17.468  0.00  0.00    +0.000 C 
BRANCH  14  15
ATOM     15  C   UNL     1       5.320   4.547  16.211  0.00  0.00    +0.000 A 
ATOM     16  C   UNL     1       6.430   5.301  15.887  0.00  0.00    +0.000 A 
ATOM     17  C   UNL     1       6.757   4.996  14.541  0.00  0.00    +0.000 A 
ATOM     18  C   UNL     1       7.746   5.410  13.631  0.00  0.00    +0.000 A 
ATOM     19  C   UNL     1       7.749   4.859  12.342  0.00  0.00    +0.000 A 
ATOM     20  C   UNL     1       6.793   3.912  11.964  0.00  0.00    +0.000 A 
ATOM     21  C   UNL     1       5.800   3.488  12.856  0.00  0.00    +0.000 A 
ATOM     22  C   UNL     1       5.819   4.059  14.127  0.00  0.00    +0.000 A 
ATOM     23  O   UNL     1       4.937   3.793  15.135  0.00  0.00    +0.000 OA
ENDBRANCH  14  15
ENDBRANCH   1  14
TORSDOF 4
ENDMDL
MODEL 7
REMARK VINA RESULT:      -7.1      5.850      8.216
REMARK  Name = 
REMARK  5 active torsions:
REMARK  status: ('A' for Active; 'I' for Inactive)
REMARK    1  A    between atoms: C_1  and  C_2
REMARK    2  A    between atoms: C_2  and  N_3
REMARK    3  A    between atoms: C_2  and  C_13
REMARK    4  A    between atoms: C_4  and  C_6
REMARK    5  A    between atoms: C_9  and  O_10
REMARK                            x       y       z     vdW  Elec       q    Type
REMARK                         _______ _______ _______ _____ _____    ______ ____
ROOT
ATOM      1  N   UNL     1      -0.251   9.637  20.018  0.00  0.00    +0.000 N 
ATOM      2  C   UNL     1      -0.311  10.544  18.982  0.00  0.00    +0.000 C 
ATOM      3  O   UNL     1       0.660  11.202  18.616  0.00  0.00    +0.000 OA
ATOM      4  H   UNL     1      -1.045   9.066  20.270  0.00  0.00    +0.000 HD
ENDROOT
BRANCH   2   5
ATOM      5  C   UNL     1      -1.600  10.688  18.268  0.00  0.00    +0.000 A 
ATOM      6  C   UNL     1      -1.936   9.978  17.113  0.00  0.00    +0.000 A 
ATOM      7  C   UNL     1      -3.190  10.177  16.528  0.00  0.00    +0.000 A 
ATOM      8  C   UNL     1      -4.056  11.083  17.118  0.00  0.00    +0.000 A 
ATOM      9  N   UNL     1      -3.768  11.782  18.226  0.00  0.00    +0.000 NA
ATOM     10  C   UNL     1      -2.550  11.565  18.783  0.00  0.00    +0.000 A 
BRANCH   8  11
ATOM     11  O   UNL     1      -5.295  11.319  16.599  0.00  0.00    +0.000 OA
ATOM     12  H   UNL     1      -5.560  10.549  16.077  0.00  0.00    +0.000 HD
ENDBRANCH   8  11
ENDBRANCH   2   5
BRANCH   1  14
ATOM     13  C   UNL     1       0.819   9.226  22.210  0.00  0.00    +0.000 C 
ATOM     14  C   UNL     1       1.002   9.356  20.701  0.00  0.00    +0.000 C 
BRANCH  14  15
ATOM     15  C   UNL     1       1.597   8.117  20.113  0.00  0.00    +0.000 A 
ATOM     16  C   UNL     1       2.235   7.875  18.912  0.00  0.00    +0.000 A 
ATOM     17  C   UNL     1       2.589   6.502  18.903  0.00  0.00    +0.000 A 
ATOM     18  C   UNL     1       3.240   5.641  18.002  0.00  0.00    +0.000 A 
ATOM     19  C   UNL     1       3.416   4.297  18.361  0.00  0.00    +0.000 A 
ATOM     20  C   UNL     1       2.964   3.819  19.594  0.00  0.00    +0.000 A 
ATOM     21  C   UNL     1       2.314   4.662  20.504  0.00  0.00    +0.000 A 
ATOM     22  C   UNL     1       2.146   5.989  20.115  0.00  0.00    +0.000 A 
ATOM     23  O   UNL     1       1.532   6.965  20.847  0.00  0.00    +0.000 OA
ENDBRANCH  14  15
ENDBRANCH   1  14
TORSDOF 4
ENDMDL
MODEL 8
REMARK VINA RESULT:      -7.1      3.135      7.568
REMARK  Name = 
REMARK  5 active torsions:
REMARK  status: ('A' for Active; 'I' for Inactive)
REMARK    1  A    between atoms: C_1  and  C_2
REMARK    2  A    between atoms: C_2  and  N_3
REMARK    3  A    between atoms: C_2  and  C_13
REMARK    4  A    between atoms: C_4  and  C_6
REMARK    5  A    between atoms: C_9  and  O_10
REMARK                            x       y       z     vdW  Elec       q    Type
REMARK                         _______ _______ _______ _____ _____    ______ ____
ROOT
ATOM      1  N   UNL     1       3.402   5.428  18.907  0.00  0.00    +0.000 N 
ATOM      2  C   UNL     1       3.356   4.772  17.695  0.00  0.00    +0.000 C 
ATOM      3  O   UNL     1       2.360   4.176  17.297  0.00  0.00    +0.000 OA
ATOM      4  H   UNL     1       4.213   5.958  19.193  0.00  0.00    +0.000 HD
ENDROOT
BRANCH   2   5
ATOM      5  C   UNL     1       4.559   4.836  16.833  0.00  0.00    +0.000 A 
ATOM      6  C   UNL     1       5.160   3.719  16.248  0.00  0.00    +0.000 A 
ATOM      7  C   UNL     1       6.284   3.894  15.435  0.00  0.00    +0.000 A 
ATOM      8  C   UNL     1       6.767   5.179  15.245  0.00  0.00    +0.000 A 
ATOM      9  N   UNL     1       6.216   6.274  15.790  0.00  0.00    +0.000 NA
ATOM     10  C   UNL     1       5.119   6.082  16.566  0.00  0.00    +0.000 A 
BRANCH   8  11
ATOM     11  O   UNL     1       7.856   5.417  14.461  0.00  0.00    +0.000 OA
ATOM     12  H   UNL     1       8.239   4.568  14.202  0.00  0.00    +0.000 HD
ENDBRANCH   8  11
ENDBRANCH   2   5
BRANCH   1  14
ATOM     13  C   UNL     1       2.468   4.856  21.124  0.00  0.00    +0.000 C 
ATOM     14  C   UNL     1       2.231   5.505  19.765  0.00  0.00    +0.000 C 
BRANCH  14  15
ATOM     15  C   UNL     1       1.837   6.941  19.905  0.00  0.00    +0.000 A 
ATOM     16  C   UNL     1       1.337   7.665  20.969  0.00  0.00    +0.000 A 
ATOM     17  C   UNL     1       1.154   8.995  20.512  0.00  0.00    +0.000 A 
ATOM     18  C   UNL     1       0.688  10.195  21.079  0.00  0.00    +0.000 A 
ATOM     19  C   UNL     1       0.658  11.349  20.285  0.00  0.00    +0.000 A 
ATOM     20  C   UNL     1       1.088  11.317  18.956  0.00  0.00    +0.000 A 
ATOM     21  C   UNL     1       1.555  10.132  18.373  0.00  0.00    +0.000 A 
ATOM     22  C   UNL     1       1.566   8.999  19.186  0.00  0.00    +0.000 A 
ATOM     23  O   UNL     1       1.970   7.751  18.810  0.00  0.00    +0.000 OA
ENDBRANCH  14  15
ENDBRANCH   1  14
TORSDOF 4
ENDMDL
MODEL 9
REMARK VINA RESULT:      -7.1      2.622      4.028
REMARK  Name = 
REMARK  5 active torsions:
REMARK  status: ('A' for Active; 'I' for Inactive)
REMARK    1  A    between atoms: C_1  and  C_2
REMARK    2  A    between atoms: C_2  and  N_3
REMARK    3  A    between atoms: C_2  and  C_13
REMARK    4  A    between atoms: C_4  and  C_6
REMARK    5  A    between atoms: C_9  and  O_10
REMARK                            x       y       z     vdW  Elec       q    Type
REMARK                         _______ _______ _______ _____ _____    ______ ____
ROOT
ATOM      1  N   UNL     1       3.790   5.720  17.569  0.00  0.00    +0.000 N 
ATOM      2  C   UNL     1       3.344   6.194  18.785  0.00  0.00    +0.000 C 
ATOM      3  O   UNL     1       3.592   5.634  19.849  0.00  0.00    +0.000 OA
ATOM      4  H   UNL     1       3.621   6.223  16.709  0.00  0.00    +0.000 HD
ENDROOT
BRANCH   2   5
ATOM      5  C   UNL     1       2.567   7.455  18.788  0.00  0.00    +0.000 A 
ATOM      6  C   UNL     1       1.809   7.901  19.873  0.00  0.00    +0.000 A 
ATOM      7  C   UNL     1       1.127   9.117  19.777  0.00  0.00    +0.000 A 
ATOM      8  C   UNL     1       1.226   9.837  18.596  0.00  0.00    +0.000 A 
ATOM      9  N   UNL     1       1.944   9.440  17.536  0.00  0.00    +0.000 NA
ATOM     10  C   UNL     1       2.606   8.262  17.655  0.00  0.00    +0.000 A 
BRANCH   8  11
ATOM     11  O   UNL     1       0.589  11.032  18.440  0.00  0.00    +0.000 OA
ATOM     12  H   UNL     1       0.711  11.552  19.246  0.00  0.00    +0.000 HD
ENDBRANCH   8  11
ENDBRANCH   2   5
BRANCH   1  14
ATOM     13  C   UNL     1       3.863   3.248  17.613  0.00  0.00    +0.000 C 
ATOM     14  C   UNL     1       4.648   4.550  17.487  0.00  0.00    +0.000 C 
BRANCH  14  15
ATOM     15  C   UNL     1       5.409   4.606  16.201  0.00  0.00    +0.000 A 
ATOM     16  C   UNL     1       6.530   5.316  15.818  0.00  0.00    +0.000 A 
ATOM     17  C   UNL     1       6.800   4.964  14.471  0.00  0.00    +0.000 A 
ATOM     18  C   UNL     1       7.770   5.321  13.517  0.00  0.00    +0.000 A 
ATOM     19  C   UNL     1       7.711   4.736  12.244  0.00  0.00    +0.000 A 
ATOM     20  C   UNL     1       6.714   3.810  11.926  0.00  0.00    +0.000 A 
ATOM     21  C   UNL     1       5.739   3.443  12.863  0.00  0.00    +0.000 A 
ATOM     22  C   UNL     1       5.820   4.047  14.116  0.00  0.00    +0.000 A 
ATOM     23  O   UNL     1       4.966   3.836  15.160  0.00  0.00    +0.000 OA
ENDBRANCH  14  15
ENDBRANCH   1  14
TORSDOF 4
ENDMDL
