MODEL 1
REMARK VINA RESULT:      -8.1      0.000      0.000
REMARK  Name = 
REMARK  7 active torsions:
REMARK  status: ('A' for Active; 'I' for Inactive)
REMARK    1  A    between atoms: C_1  and  C_2
REMARK    2  A    between atoms: C_5  and  O_6
REMARK    3  A    between atoms: O_6  and  C_7
REMARK    4  A    between atoms: C_7  and  C_8
REMARK    5  A    between atoms: C_14  and  C_15
REMARK    6  A    between atoms: C_19  and  N_20
REMARK    7  A    between atoms: C_21  and  C_23
REMARK                            x       y       z     vdW  Elec       q    Type
REMARK                         _______ _______ _______ _____ _____    ______ ____
ROOT
ATOM      1  C   UNL     1       0.834   1.461  18.960  0.00  0.00    +0.000 C 
ATOM      2  C   UNL     1       1.527   2.791  18.909  0.00  0.00    +0.000 A 
ATOM      3  C   UNL     1       1.310   3.760  19.886  0.00  0.00    +0.000 A 
ATOM      4  C   UNL     1       1.993   4.978  19.825  0.00  0.00    +0.000 A 
ATOM      5  C   UNL     1       2.909   5.261  18.796  0.00  0.00    +0.000 A 
ATOM      6  C   UNL     1       3.146   4.278  17.820  0.00  0.00    +0.000 A 
ATOM      7  C   UNL     1       2.427   3.070  17.872  0.00  0.00    +0.000 A 
ENDROOT
BRANCH   6   8
ATOM      8  N   UNL     1       4.017   4.403  16.723  0.00  0.00    +0.000 N 
ATOM      9  C   UNL     1       5.388   4.589  16.784  0.00  0.00    +0.000 C 
ATOM     10  O   UNL     1       6.037   4.681  17.820  0.00  0.00    +0.000 OA
ATOM     11  H   UNL     1       3.684   4.065  15.826  0.00  0.00    +0.000 HD
BRANCH   9  12
ATOM     12  C   UNL     1       5.990   4.624  15.458  0.00  0.00    +0.000 A 
ATOM     13  C   UNL     1       5.611   4.076  14.248  0.00  0.00    +0.000 A 
ATOM     14  C   UNL     1       6.606   4.424  13.304  0.00  0.00    +0.000 A 
ATOM     15  C   UNL     1       7.542   5.167  13.992  0.00  0.00    +0.000 A 
ATOM     16  O   UNL     1       7.176   5.303  15.293  0.00  0.00    +0.000 OA
ENDBRANCH   9  12
ENDBRANCH   6   8
BRANCH   5  17
ATOM     17  O   UNL     1       3.414   6.531  18.887  0.00  0.00    +0.000 OA
BRANCH  17  18
ATOM     18  C   UNL     1       2.958   7.525  17.971  0.00  0.00    +0.000 C 
BRANCH  18  19
ATOM     19  C   UNL     1       1.942   8.467  18.600  0.00  0.00    +0.000 A 
ATOM     20  C   UNL     1       1.196   9.306  17.866  0.00  0.00    +0.000 A 
ATOM     21  C   UNL     1       0.229  10.196  18.540  0.00  0.00    +0.000 A 
ATOM     22  O   UNL     1      -0.461  10.965  17.879  0.00  0.00    +0.000 OA
ATOM     23  N   UNL     1       0.194  10.067  19.900  0.00  0.00    +0.000 N 
ATOM     24  C   UNL     1      -0.650  10.762  20.741  0.00  0.00    +0.000 A 
ATOM     25  C   UNL     1      -0.511  10.460  22.036  0.00  0.00    +0.000 A 
ATOM     26  C   UNL     1      -1.292  11.008  23.176  0.00  0.00    +0.000 C 
ATOM     27  S   UNL     1       0.744   9.261  22.272  0.00  0.00    +0.000 S 
ATOM     28  C   UNL     1       1.024   9.179  20.541  0.00  0.00    +0.000 A 
ATOM     29  N   UNL     1       1.875   8.392  19.977  0.00  0.00    +0.000 NA
ENDBRANCH  18  19
ENDBRANCH  17  18
ENDBRANCH   5  17
TORSDOF 5
ENDMDL
MODEL 2
REMARK VINA RESULT:      -7.9      2.100      4.825
REMARK  Name = 
REMARK  7 active torsions:
REMARK  status: ('A' for Active; 'I' for Inactive)
REMARK    1  A    between atoms: C_1  and  C_2
REMARK    2  A    between atoms: C_5  and  O_6
REMARK    3  A    between atoms: O_6  and  C_7
REMARK    4  A    between atoms: C_7  and  C_8
REMARK    5  A    between atoms: C_14  and  C_15
REMARK    6  A    between atoms: C_19  and  N_20
REMARK    7  A    between atoms: C_21  and  C_23
REMARK                            x       y       z     vdW  Elec       q    Type
REMARK                         _______ _______ _______ _____ _____    ______ ____
ROOT
ATOM      1  C   UNL     1       6.330   3.892  14.574  0.00  0.00    +0.000 C 
ATOM      2  C   UNL     1       5.624   4.868  15.468  0.00  0.00    +0.000 A 
ATOM      3  C   UNL     1       5.607   6.231  15.183  0.00  0.00    +0.000 A 
ATOM      4  C   UNL     1       4.917   7.111  16.022  0.00  0.00    +0.000 A 
ATOM      5  C   UNL     1       4.225   6.657  17.159  0.00  0.00    +0.000 A 
ATOM      6  C   UNL     1       4.223   5.281  17.439  0.00  0.00    +0.000 A 
ATOM      7  C   UNL     1       4.950   4.409  16.608  0.00  0.00    +0.000 A 
ENDROOT
BRANCH   6   8
ATOM      8  N   UNL     1       3.594   4.665  18.536  0.00  0.00    +0.000 N 
ATOM      9  C   UNL     1       2.272   4.258  18.598  0.00  0.00    +0.000 C 
ATOM     10  O   UNL     1       1.455   4.389  17.693  0.00  0.00    +0.000 OA
ATOM     11  H   UNL     1       4.193   4.235  19.233  0.00  0.00    +0.000 HD
BRANCH   9  12
ATOM     12  C   UNL     1       1.963   3.608  19.865  0.00  0.00    +0.000 A 
ATOM     13  C   UNL     1       0.972   2.723  20.240  0.00  0.00    +0.000 A 
ATOM     14  C   UNL     1       1.157   2.450  21.616  0.00  0.00    +0.000 A 
ATOM     15  C   UNL     1       2.255   3.187  22.007  0.00  0.00    +0.000 A 
ATOM     16  O   UNL     1       2.757   3.885  20.955  0.00  0.00    +0.000 OA
ENDBRANCH   9  12
ENDBRANCH   6   8
BRANCH   5  17
ATOM     17  O   UNL     1       3.676   7.688  17.876  0.00  0.00    +0.000 OA
BRANCH  17  18
ATOM     18  C   UNL     1       2.417   8.220  17.470  0.00  0.00    +0.000 C 
BRANCH  18  19
ATOM     19  C   UNL     1       1.648   8.833  18.632  0.00  0.00    +0.000 A 
ATOM     20  C   UNL     1       1.790   8.396  19.892  0.00  0.00    +0.000 A 
ATOM     21  C   UNL     1       1.011   9.035  20.973  0.00  0.00    +0.000 A 
ATOM     22  O   UNL     1       1.135   8.647  22.130  0.00  0.00    +0.000 OA
ATOM     23  N   UNL     1       0.190  10.046  20.558  0.00  0.00    +0.000 N 
ATOM     24  C   UNL     1      -0.604  10.812  21.385  0.00  0.00    +0.000 A 
ATOM     25  C   UNL     1      -1.315  11.752  20.753  0.00  0.00    +0.000 A 
ATOM     26  C   UNL     1      -2.230  12.751  21.364  0.00  0.00    +0.000 C 
ATOM     27  S   UNL     1      -1.024  11.706  19.026  0.00  0.00    +0.000 S 
ATOM     28  C   UNL     1       0.119  10.390  19.229  0.00  0.00    +0.000 A 
ATOM     29  N   UNL     1       0.788   9.850  18.268  0.00  0.00    +0.000 NA
ENDBRANCH  18  19
ENDBRANCH  17  18
ENDBRANCH   5  17
TORSDOF 5
ENDMDL
MODEL 3
REMARK VINA RESULT:      -7.9      2.341      2.733
REMARK  Name = 
REMARK  7 active torsions:
REMARK  status: ('A' for Active; 'I' for Inactive)
REMARK    1  A    between atoms: C_1  and  C_2
REMARK    2  A    between atoms: C_5  and  O_6
REMARK    3  A    between atoms: O_6  and  C_7
REMARK    4  A    between atoms: C_7  and  C_8
REMARK    5  A    between atoms: C_14  and  C_15
REMARK    6  A    between atoms: C_19  and  N_20
REMARK    7  A    between atoms: C_21  and  C_23
REMARK                            x       y       z     vdW  Elec       q    Type
REMARK                         _______ _______ _______ _____ _____    ______ ____
ROOT
ATOM      1  C   UNL     1       1.478   2.898  21.036  0.00  0.00    +0.000 C 
ATOM      2  C   UNL     1       1.869   4.180  20.363  0.00  0.00    +0.000 A 
ATOM      3  C   UNL     1       1.457   5.415  20.857  0.00  0.00    +0.000 A 
ATOM      4  C   UNL     1       1.862   6.593  20.222  0.00  0.00    +0.000 A 
ATOM      5  C   UNL     1       2.688   6.571  19.085  0.00  0.00    +0.000 A 
ATOM      6  C   UNL     1       3.124   5.329  18.595  0.00  0.00    +0.000 A 
ATOM      7  C   UNL     1       2.681   4.150  19.221  0.00  0.00    +0.000 A 
ENDROOT
BRANCH   6   8
ATOM      8  N   UNL     1       3.940   5.131  17.466  0.00  0.00    +0.000 N 
ATOM      9  C   UNL     1       5.316   5.281  17.415  0.00  0.00    +0.000 C 
ATOM     10  O   UNL     1       6.019   5.623  18.361  0.00  0.00    +0.000 OA
ATOM     11  H   UNL     1       3.555   4.579  16.708  0.00  0.00    +0.000 HD
BRANCH   9  12
ATOM     12  C   UNL     1       5.850   4.945  16.103  0.00  0.00    +0.000 A 
ATOM     13  C   UNL     1       7.079   5.167  15.513  0.00  0.00    +0.000 A 
ATOM     14  C   UNL     1       7.014   4.633  14.204  0.00  0.00    +0.000 A 
ATOM     15  C   UNL     1       5.744   4.113  14.066  0.00  0.00    +0.000 A 
ATOM     16  O   UNL     1       5.034   4.287  15.210  0.00  0.00    +0.000 OA
ENDBRANCH   9  12
ENDBRANCH   6   8
BRANCH   5  17
ATOM     17  O   UNL     1       2.910   7.827  18.583  0.00  0.00    +0.000 OA
BRANCH  17  18
ATOM     18  C   UNL     1       1.893   8.449  17.801  0.00  0.00    +0.000 C 
BRANCH  18  19
ATOM     19  C   UNL     1       1.433   9.772  18.398  0.00  0.00    +0.000 A 
ATOM     20  C   UNL     1       0.340   9.866  19.169  0.00  0.00    +0.000 A 
ATOM     21  C   UNL     1      -0.052  11.182  19.715  0.00  0.00    +0.000 A 
ATOM     22  O   UNL     1      -1.048  11.280  20.424  0.00  0.00    +0.000 OA
ATOM     23  N   UNL     1       0.776  12.211  19.361  0.00  0.00    +0.000 N 
ATOM     24  C   UNL     1       0.637  13.518  19.776  0.00  0.00    +0.000 A 
ATOM     25  C   UNL     1       1.576  14.349  19.310  0.00  0.00    +0.000 A 
ATOM     26  C   UNL     1       1.719  15.799  19.601  0.00  0.00    +0.000 C 
ATOM     27  S   UNL     1       2.707  13.502  18.274  0.00  0.00    +0.000 S 
ATOM     28  C   UNL     1       1.861  11.988  18.547  0.00  0.00    +0.000 A 
ATOM     29  N   UNL     1       2.224  10.851  18.059  0.00  0.00    +0.000 NA
ENDBRANCH  18  19
ENDBRANCH  17  18
ENDBRANCH   5  17
TORSDOF 5
ENDMDL
MODEL 4
REMARK VINA RESULT:      -7.8      1.734      1.993
REMARK  Name = 
REMARK  7 active torsions:
REMARK  status: ('A' for Active; 'I' for Inactive)
REMARK    1  A    between atoms: C_1  and  C_2
REMARK    2  A    between atoms: C_5  and  O_6
REMARK    3  A    between atoms: O_6  and  C_7
REMARK    4  A    between atoms: C_7  and  C_8
REMARK    5  A    between atoms: C_14  and  C_15
REMARK    6  A    between atoms: C_19  and  N_20
REMARK    7  A    between atoms: C_21  and  C_23
REMARK                            x       y       z     vdW  Elec       q    Type
REMARK                         _______ _______ _______ _____ _____    ______ ____
ROOT
ATOM      1  C   UNL     1       2.171   3.066  21.224  0.00  0.00    +0.000 C 
ATOM      2  C   UNL     1       2.380   4.309  20.412  0.00  0.00    +0.000 A 
ATOM      3  C   UNL     1       1.863   5.537  20.817  0.00  0.00    +0.000 A 
ATOM      4  C   UNL     1       2.099   6.682  20.050  0.00  0.00    +0.000 A 
ATOM      5  C   UNL     1       2.856   6.635  18.867  0.00  0.00    +0.000 A 
ATOM      6  C   UNL     1       3.397   5.402  18.465  0.00  0.00    +0.000 A 
ATOM      7  C   UNL     1       3.123   4.251  19.225  0.00  0.00    +0.000 A 
ENDROOT
BRANCH   6   8
ATOM      8  N   UNL     1       4.164   5.179  17.307  0.00  0.00    +0.000 N 
ATOM      9  C   UNL     1       5.506   4.840  17.268  0.00  0.00    +0.000 C 
ATOM     10  O   UNL     1       6.221   4.695  18.254  0.00  0.00    +0.000 OA
ATOM     11  H   UNL     1       3.661   4.980  16.449  0.00  0.00    +0.000 HD
BRANCH   9  12
ATOM     12  C   UNL     1       5.974   4.631  15.905  0.00  0.00    +0.000 A 
ATOM     13  C   UNL     1       5.706   3.652  14.968  0.00  0.00    +0.000 A 
ATOM     14  C   UNL     1       6.472   3.957  13.817  0.00  0.00    +0.000 A 
ATOM     15  C   UNL     1       7.168   5.109  14.116  0.00  0.00    +0.000 A 
ATOM     16  O   UNL     1       6.868   5.532  15.372  0.00  0.00    +0.000 OA
ENDBRANCH   9  12
ENDBRANCH   6   8
BRANCH   5  17
ATOM     17  O   UNL     1       2.909   7.850  18.238  0.00  0.00    +0.000 OA
BRANCH  17  18
ATOM     18  C   UNL     1       1.690   8.493  17.868  0.00  0.00    +0.000 C 
BRANCH  18  19
ATOM     19  C   UNL     1       1.555   9.876  18.489  0.00  0.00    +0.000 A 
ATOM     20  C   UNL     1       2.159  10.954  17.969  0.00  0.00    +0.000 A 
ATOM     21  C   UNL     1       1.989  12.268  18.623  0.00  0.00    +0.000 A 
ATOM     22  O   UNL     1       2.534  13.262  18.155  0.00  0.00    +0.000 OA
ATOM     23  N   UNL     1       1.199  12.246  19.740  0.00  0.00    +0.000 N 
ATOM     24  C   UNL     1       0.865  13.350  20.495  0.00  0.00    +0.000 A 
ATOM     25  C   UNL     1       0.069  13.085  21.537  0.00  0.00    +0.000 A 
ATOM     26  C   UNL     1      -0.489  14.058  22.513  0.00  0.00    +0.000 C 
ATOM     27  S   UNL     1      -0.295  11.374  21.632  0.00  0.00    +0.000 S 
ATOM     28  C   UNL     1       0.647  11.068  20.184  0.00  0.00    +0.000 A 
ATOM     29  N   UNL     1       0.780   9.911  19.631  0.00  0.00    +0.000 NA
ENDBRANCH  18  19
ENDBRANCH  17  18
ENDBRANCH   5  17
TORSDOF 5
ENDMDL
MODEL 5
REMARK VINA RESULT:      -7.7      1.191      1.340
REMARK  Name = 
REMARK  7 active torsions:
REMARK  status: ('A' for Active; 'I' for Inactive)
REMARK    1  A    between atoms: C_1  and  C_2
REMARK    2  A    between atoms: C_5  and  O_6
REMARK    3  A    between atoms: O_6  and  C_7
REMARK    4  A    between atoms: C_7  and  C_8
REMARK    5  A    between atoms: C_14  and  C_15
REMARK    6  A    between atoms: C_19  and  N_20
REMARK    7  A    between atoms: C_21  and  C_23
REMARK                            x       y       z     vdW  Elec       q    Type
REMARK                         _______ _______ _______ _____ _____    ______ ____
ROOT
ATOM      1  C   UNL     1       2.867   2.127  21.550  0.00  0.00    +0.000 C 
ATOM      2  C   UNL     1       2.647   3.297  20.637  0.00  0.00    +0.000 A 
ATOM      3  C   UNL     1       1.741   4.305  20.954  0.00  0.00    +0.000 A 
ATOM      4  C   UNL     1       1.580   5.396  20.095  0.00  0.00    +0.000 A 
ATOM      5  C   UNL     1       2.318   5.513  18.904  0.00  0.00    +0.000 A 
ATOM      6  C   UNL     1       3.249   4.508  18.590  0.00  0.00    +0.000 A 
ATOM      7  C   UNL     1       3.377   3.398  19.444  0.00  0.00    +0.000 A 
ENDROOT
BRANCH   6   8
ATOM      8  N   UNL     1       4.056   4.466  17.439  0.00  0.00    +0.000 N 
ATOM      9  C   UNL     1       5.250   5.143  17.251  0.00  0.00    +0.000 C 
ATOM     10  O   UNL     1       5.767   5.891  18.073  0.00  0.00    +0.000 OA
ATOM     11  H   UNL     1       3.918   3.687  16.804  0.00  0.00    +0.000 HD
BRANCH   9  12
ATOM     12  C   UNL     1       5.853   4.832  15.962  0.00  0.00    +0.000 A 
ATOM     13  C   UNL     1       7.078   5.145  15.408  0.00  0.00    +0.000 A 
ATOM     14  C   UNL     1       7.100   4.589  14.107  0.00  0.00    +0.000 A 
ATOM     15  C   UNL     1       5.882   3.967  13.937  0.00  0.00    +0.000 A 
ATOM     16  O   UNL     1       5.122   4.098  15.055  0.00  0.00    +0.000 OA
ENDBRANCH   9  12
ENDBRANCH   6   8
BRANCH   5  17
ATOM     17  O   UNL     1       1.960   6.619  18.180  0.00  0.00    +0.000 OA
BRANCH  17  18
ATOM     18  C   UNL     1       2.558   7.875  18.493  0.00  0.00    +0.000 C 
BRANCH  18  19
ATOM     19  C   UNL     1       1.546   8.878  19.029  0.00  0.00    +0.000 A 
ATOM     20  C   UNL     1       0.913   9.750  18.230  0.00  0.00    +0.000 A 
ATOM     21  C   UNL     1      -0.056  10.699  18.816  0.00  0.00    +0.000 A 
ATOM     22  O   UNL     1      -0.645  11.498  18.095  0.00  0.00    +0.000 OA
ATOM     23  N   UNL     1      -0.212  10.585  20.170  0.00  0.00    +0.000 N 
ATOM     24  C   UNL     1      -1.084  11.334  20.932  0.00  0.00    +0.000 A 
ATOM     25  C   UNL     1      -1.071  11.038  22.236  0.00  0.00    +0.000 A 
ATOM     26  C   UNL     1      -1.912  11.639  23.304  0.00  0.00    +0.000 C 
ATOM     27  S   UNL     1       0.092   9.774  22.583  0.00  0.00    +0.000 S 
ATOM     28  C   UNL     1       0.510   9.659  20.883  0.00  0.00    +0.000 A 
ATOM     29  N   UNL     1       1.360   8.820  20.396  0.00  0.00    +0.000 NA
ENDBRANCH  18  19
ENDBRANCH  17  18
ENDBRANCH   5  17
TORSDOF 5
ENDMDL
MODEL 6
REMARK VINA RESULT:      -7.7      1.629      1.847
REMARK  Name = 
REMARK  7 active torsions:
REMARK  status: ('A' for Active; 'I' for Inactive)
REMARK    1  A    between atoms: C_1  and  C_2
REMARK    2  A    between atoms: C_5  and  O_6
REMARK    3  A    between atoms: O_6  and  C_7
REMARK    4  A    between atoms: C_7  and  C_8
REMARK    5  A    between atoms: C_14  and  C_15
REMARK    6  A    between atoms: C_19  and  N_20
REMARK    7  A    between atoms: C_21  and  C_23
REMARK                            x       y       z     vdW  Elec       q    Type
REMARK                         _______ _______ _______ _____ _____    ______ ____
ROOT
ATOM      1  C   UNL     1       2.656   2.764  21.423  0.00  0.00    +0.000 C 
ATOM      2  C   UNL     1       2.567   3.952  20.512  0.00  0.00    +0.000 A 
ATOM      3  C   UNL     1       1.797   5.064  20.843  0.00  0.00    +0.000 A 
ATOM      4  C   UNL     1       1.758   6.167  19.984  0.00  0.00    +0.000 A 
ATOM      5  C   UNL     1       2.485   6.192  18.781  0.00  0.00    +0.000 A 
ATOM      6  C   UNL     1       3.280   5.081  18.453  0.00  0.00    +0.000 A 
ATOM      7  C   UNL     1       3.283   3.963  19.307  0.00  0.00    +0.000 A 
ENDROOT
BRANCH   6   8
ATOM      8  N   UNL     1       4.056   4.939  17.289  0.00  0.00    +0.000 N 
ATOM      9  C   UNL     1       5.423   5.134  17.189  0.00  0.00    +0.000 C 
ATOM     10  O   UNL     1       6.152   5.472  18.115  0.00  0.00    +0.000 OA
ATOM     11  H   UNL     1       3.658   4.396  16.530  0.00  0.00    +0.000 HD
BRANCH   9  12
ATOM     12  C   UNL     1       5.915   4.851  15.848  0.00  0.00    +0.000 A 
ATOM     13  C   UNL     1       5.457   4.020  14.844  0.00  0.00    +0.000 A 
ATOM     14  C   UNL     1       6.361   4.138  13.761  0.00  0.00    +0.000 A 
ATOM     15  C   UNL     1       7.326   5.036  14.166  0.00  0.00    +0.000 A 
ATOM     16  O   UNL     1       7.062   5.482  15.422  0.00  0.00    +0.000 OA
ENDBRANCH   9  12
ENDBRANCH   6   8
BRANCH   5  17
ATOM     17  O   UNL     1       2.254   7.334  18.061  0.00  0.00    +0.000 OA
BRANCH  17  18
ATOM     18  C   UNL     1       2.393   8.599  18.705  0.00  0.00    +0.000 C 
BRANCH  18  19
ATOM     19  C   UNL     1       1.098   9.399  18.690  0.00  0.00    +0.000 A 
ATOM     20  C   UNL     1       0.214   9.309  17.686  0.00  0.00    +0.000 A 
ATOM     21  C   UNL     1      -1.023  10.115  17.733  0.00  0.00    +0.000 A 
ATOM     22  O   UNL     1      -1.841  10.039  16.821  0.00  0.00    +0.000 OA
ATOM     23  N   UNL     1      -1.141  10.905  18.843  0.00  0.00    +0.000 N 
ATOM     24  C   UNL     1      -2.220  11.716  19.126  0.00  0.00    +0.000 A 
ATOM     25  C   UNL     1      -2.118  12.388  20.278  0.00  0.00    +0.000 A 
ATOM     26  C   UNL     1      -3.121  13.309  20.874  0.00  0.00    +0.000 C 
ATOM     27  S   UNL     1      -0.600  12.037  21.079  0.00  0.00    +0.000 S 
ATOM     28  C   UNL     1      -0.155  10.923  19.799  0.00  0.00    +0.000 A 
ATOM     29  N   UNL     1       0.932  10.229  19.781  0.00  0.00    +0.000 NA
ENDBRANCH  18  19
ENDBRANCH  17  18
ENDBRANCH   5  17
TORSDOF 5
ENDMDL
MODEL 7
REMARK VINA RESULT:      -7.7      2.542      3.079
REMARK  Name = 
REMARK  7 active torsions:
REMARK  status: ('A' for Active; 'I' for Inactive)
REMARK    1  A    between atoms: C_1  and  C_2
REMARK    2  A    between atoms: C_5  and  O_6
REMARK    3  A    between atoms: O_6  and  C_7
REMARK    4  A    between atoms: C_7  and  C_8
REMARK    5  A    between atoms: C_14  and  C_15
REMARK    6  A    between atoms: C_19  and  N_20
REMARK    7  A    between atoms: C_21  and  C_23
REMARK                            x       y       z     vdW  Elec       q    Type
REMARK                         _______ _______ _______ _____ _____    ______ ____
ROOT
ATOM      1  C   UNL     1       1.667   1.428  18.588  0.00  0.00    +0.000 C 
ATOM      2  C   UNL     1       1.795   2.805  19.167  0.00  0.00    +0.000 A 
ATOM      3  C   UNL     1       0.791   3.356  19.959  0.00  0.00    +0.000 A 
ATOM      4  C   UNL     1       0.953   4.632  20.506  0.00  0.00    +0.000 A 
ATOM      5  C   UNL     1       2.118   5.388  20.284  0.00  0.00    +0.000 A 
ATOM      6  C   UNL     1       3.143   4.828  19.503  0.00  0.00    +0.000 A 
ATOM      7  C   UNL     1       2.953   3.558  18.928  0.00  0.00    +0.000 A 
ENDROOT
BRANCH   6   8
ATOM      8  N   UNL     1       4.360   5.451  19.175  0.00  0.00    +0.000 N 
ATOM      9  C   UNL     1       4.843   5.680  17.897  0.00  0.00    +0.000 C 
ATOM     10  O   UNL     1       4.269   5.357  16.863  0.00  0.00    +0.000 OA
ATOM     11  H   UNL     1       4.798   6.019  19.891  0.00  0.00    +0.000 HD
BRANCH   9  12
ATOM     12  C   UNL     1       6.112   6.395  17.917  0.00  0.00    +0.000 A 
ATOM     13  C   UNL     1       6.608   7.432  17.152  0.00  0.00    +0.000 A 
ATOM     14  C   UNL     1       7.918   7.700  17.614  0.00  0.00    +0.000 A 
ATOM     15  C   UNL     1       8.152   6.807  18.639  0.00  0.00    +0.000 A 
ATOM     16  O   UNL     1       7.064   6.019  18.837  0.00  0.00    +0.000 OA
ENDBRANCH   9  12
ENDBRANCH   6   8
BRANCH   5  17
ATOM     17  O   UNL     1       2.044   6.632  20.853  0.00  0.00    +0.000 OA
BRANCH  17  18
ATOM     18  C   UNL     1       1.890   7.772  20.010  0.00  0.00    +0.000 C 
BRANCH  18  19
ATOM     19  C   UNL     1       1.001   8.837  20.636  0.00  0.00    +0.000 A 
ATOM     20  C   UNL     1       0.862   8.961  21.964  0.00  0.00    +0.000 A 
ATOM     21  C   UNL     1      -0.020  10.015  22.506  0.00  0.00    +0.000 A 
ATOM     22  O   UNL     1      -0.153  10.141  23.719  0.00  0.00    +0.000 OA
ATOM     23  N   UNL     1      -0.629  10.787  21.556  0.00  0.00    +0.000 N 
ATOM     24  C   UNL     1      -1.465  11.853  21.817  0.00  0.00    +0.000 A 
ATOM     25  C   UNL     1      -1.935  12.466  20.725  0.00  0.00    +0.000 A 
ATOM     26  C   UNL     1      -2.823  13.657  20.675  0.00  0.00    +0.000 C 
ATOM     27  S   UNL     1      -1.344  11.696  19.267  0.00  0.00    +0.000 S 
ATOM     28  C   UNL     1      -0.418  10.549  20.219  0.00  0.00    +0.000 A 
ATOM     29  N   UNL     1       0.346   9.637  19.721  0.00  0.00    +0.000 NA
ENDBRANCH  18  19
ENDBRANCH  17  18
ENDBRANCH   5  17
TORSDOF 5
ENDMDL
MODEL 8
REMARK VINA RESULT:      -7.7      2.262      2.858
REMARK  Name = 
REMARK  7 active torsions:
REMARK  status: ('A' for Active; 'I' for Inactive)
REMARK    1  A    between atoms: C_1  and  C_2
REMARK    2  A    between atoms: C_5  and  O_6
REMARK    3  A    between atoms: O_6  and  C_7
REMARK    4  A    between atoms: C_7  and  C_8
REMARK    5  A    between atoms: C_14  and  C_15
REMARK    6  A    between atoms: C_19  and  N_20
REMARK    7  A    between atoms: C_21  and  C_23
REMARK                            x       y       z     vdW  Elec       q    Type
REMARK                         _______ _______ _______ _____ _____    ______ ____
ROOT
ATOM      1  C   UNL     1       2.400   3.450  21.632  0.00  0.00    +0.000 C 
ATOM      2  C   UNL     1       2.355   4.570  20.636  0.00  0.00    +0.000 A 
ATOM      3  C   UNL     1       1.605   5.720  20.870  0.00  0.00    +0.000 A 
ATOM      4  C   UNL     1       1.606   6.758  19.933  0.00  0.00    +0.000 A 
ATOM      5  C   UNL     1       2.354   6.679  18.745  0.00  0.00    +0.000 A 
ATOM      6  C   UNL     1       3.128   5.530  18.514  0.00  0.00    +0.000 A 
ATOM      7  C   UNL     1       3.091   4.478  19.447  0.00  0.00    +0.000 A 
ENDROOT
BRANCH   6   8
ATOM      8  N   UNL     1       3.920   5.286  17.377  0.00  0.00    +0.000 N 
ATOM      9  C   UNL     1       5.301   5.362  17.311  0.00  0.00    +0.000 C 
ATOM     10  O   UNL     1       6.031   5.667  18.249  0.00  0.00    +0.000 OA
ATOM     11  H   UNL     1       3.498   4.755  16.623  0.00  0.00    +0.000 HD
BRANCH   9  12
ATOM     12  C   UNL     1       5.803   4.996  15.994  0.00  0.00    +0.000 A 
ATOM     13  C   UNL     1       5.431   4.015  15.096  0.00  0.00    +0.000 A 
ATOM     14  C   UNL     1       6.298   4.121  13.982  0.00  0.00    +0.000 A 
ATOM     15  C   UNL     1       7.155   5.163  14.264  0.00  0.00    +0.000 A 
ATOM     16  O   UNL     1       6.860   5.707  15.473  0.00  0.00    +0.000 OA
ENDBRANCH   9  12
ENDBRANCH   6   8
BRANCH   5  17
ATOM     17  O   UNL     1       2.162   7.770  17.939  0.00  0.00    +0.000 OA
BRANCH  17  18
ATOM     18  C   UNL     1       2.328   9.075  18.490  0.00  0.00    +0.000 C 
BRANCH  18  19
ATOM     19  C   UNL     1       1.002   9.802  18.663  0.00  0.00    +0.000 A 
ATOM     20  C   UNL     1       0.739  10.562  19.736  0.00  0.00    +0.000 A 
ATOM     21  C   UNL     1      -0.571  11.238  19.844  0.00  0.00    +0.000 A 
ATOM     22  O   UNL     1      -0.822  11.938  20.819  0.00  0.00    +0.000 OA
ATOM     23  N   UNL     1      -1.414  11.007  18.792  0.00  0.00    +0.000 N 
ATOM     24  C   UNL     1      -2.671  11.557  18.650  0.00  0.00    +0.000 A 
ATOM     25  C   UNL     1      -3.309  11.195  17.532  0.00  0.00    +0.000 A 
ATOM     26  C   UNL     1      -4.652  11.640  17.078  0.00  0.00    +0.000 C 
ATOM     27  S   UNL     1      -2.334  10.094  16.580  0.00  0.00    +0.000 S 
ATOM     28  C   UNL     1      -1.033  10.192  17.754  0.00  0.00    +0.000 A 
ATOM     29  N   UNL     1       0.102   9.592  17.637  0.00  0.00    +0.000 NA
ENDBRANCH  18  19
ENDBRANCH  17  18
ENDBRANCH   5  17
TORSDOF 5
ENDMDL
MODEL 9
REMARK VINA RESULT:      -7.7      1.790      2.170
REMARK  Name = 
REMARK  7 active torsions:
REMARK  status: ('A' for Active; 'I' for Inactive)
REMARK    1  A    between atoms: C_1  and  C_2
REMARK    2  A    between atoms: C_5  and  O_6
REMARK    3  A    between atoms: O_6  and  C_7
REMARK    4  A    between atoms: C_7  and  C_8
REMARK    5  A    between atoms: C_14  and  C_15
REMARK    6  A    between atoms: C_19  and  N_20
REMARK    7  A    between atoms: C_21  and  C_23
REMARK                            x       y       z     vdW  Elec       q    Type
REMARK                         _______ _______ _______ _____ _____    ______ ____
ROOT
ATOM      1  C   UNL     1       0.530   1.721  19.342  0.00  0.00    +0.000 C 
ATOM      2  C   UNL     1       1.173   3.075  19.386  0.00  0.00    +0.000 A 
ATOM      3  C   UNL     1       0.780   4.035  20.316  0.00  0.00    +0.000 A 
ATOM      4  C   UNL     1       1.419   5.278  20.348  0.00  0.00    +0.000 A 
ATOM      5  C   UNL     1       2.463   5.595  19.462  0.00  0.00    +0.000 A 
ATOM      6  C   UNL     1       2.877   4.623  18.536  0.00  0.00    +0.000 A 
ATOM      7  C   UNL     1       2.203   3.389  18.489  0.00  0.00    +0.000 A 
ENDROOT
BRANCH   6   8
ATOM      8  N   UNL     1       3.892   4.780  17.576  0.00  0.00    +0.000 N 
ATOM      9  C   UNL     1       5.225   4.438  17.732  0.00  0.00    +0.000 C 
ATOM     10  O   UNL     1       5.709   3.951  18.749  0.00  0.00    +0.000 OA
ATOM     11  H   UNL     1       3.604   4.894  16.611  0.00  0.00    +0.000 HD
BRANCH   9  12
ATOM     12  C   UNL     1       5.995   4.686  16.521  0.00  0.00    +0.000 A 
ATOM     13  C   UNL     1       6.884   5.683  16.171  0.00  0.00    +0.000 A 
ATOM     14  C   UNL     1       7.306   5.417  14.846  0.00  0.00    +0.000 A 
ATOM     15  C   UNL     1       6.646   4.270  14.459  0.00  0.00    +0.000 A 
ATOM     16  O   UNL     1       5.858   3.813  15.465  0.00  0.00    +0.000 OA
ENDBRANCH   9  12
ENDBRANCH   6   8
BRANCH   5  17
ATOM     17  O   UNL     1       2.902   6.883  19.619  0.00  0.00    +0.000 OA
BRANCH  17  18
ATOM     18  C   UNL     1       2.233   7.933  18.923  0.00  0.00    +0.000 C 
BRANCH  18  19
ATOM     19  C   UNL     1       1.422   8.821  19.857  0.00  0.00    +0.000 A 
ATOM     20  C   UNL     1       1.569   8.777  21.189  0.00  0.00    +0.000 A 
ATOM     21  C   UNL     1       0.748   9.664  22.039  0.00  0.00    +0.000 A 
ATOM     22  O   UNL     1       0.875   9.636  23.259  0.00  0.00    +0.000 OA
ATOM     23  N   UNL     1      -0.112  10.472  21.348  0.00  0.00    +0.000 N 
ATOM     24  C   UNL     1      -0.950  11.408  21.918  0.00  0.00    +0.000 A 
ATOM     25  C   UNL     1      -1.694  12.089  21.040  0.00  0.00    +0.000 A 
ATOM     26  C   UNL     1      -2.661  13.179  21.335  0.00  0.00    +0.000 C 
ATOM     27  S   UNL     1      -1.380  11.557  19.401  0.00  0.00    +0.000 S 
ATOM     28  C   UNL     1      -0.182  10.412  19.977  0.00  0.00    +0.000 A 
ATOM     29  N   UNL     1       0.523   9.647  19.214  0.00  0.00    +0.000 NA
ENDBRANCH  18  19
ENDBRANCH  17  18
ENDBRANCH   5  17
TORSDOF 5
ENDMDL
