MODEL 1
REMARK VINA RESULT:      -7.3      0.000      0.000
REMARK  Name = 
REMARK  2 active torsions:
REMARK  status: ('A' for Active; 'I' for Inactive)
REMARK    1  A    between atoms: O_1  and  C_2
REMARK    2  A    between atoms: C_4  and  C_5
REMARK                            x       y       z     vdW  Elec       q    Type
REMARK                         _______ _______ _______ _____ _____    ______ ____
ROOT
ATOM      1  C   UNL     1       4.595   2.320  20.109  0.00  0.00    +0.000 A 
ATOM      2  N   UNL     1       5.015   2.954  18.963  0.00  0.00    +0.000 N 
ATOM      3  C   UNL     1       4.295   4.009  18.418  0.00  0.00    +0.000 A 
ATOM      4  N   UNL     1       3.187   4.462  18.942  0.00  0.00    +0.000 NA
ATOM      5  C   UNL     1       2.745   3.826  20.065  0.00  0.00    +0.000 A 
ATOM      6  N   UNL     1       1.671   4.087  20.742  0.00  0.00    +0.000 NA
ATOM      7  C   UNL     1       1.726   3.145  21.763  0.00  0.00    +0.000 A 
ATOM      8  N   UNL     1       2.742   2.326  21.783  0.00  0.00    +0.000 NA
ATOM      9  C   UNL     1       3.458   2.714  20.686  0.00  0.00    +0.000 A 
ATOM     10  H   UNL     1       5.943   2.752  18.625  0.00  0.00    +0.000 HD
ENDROOT
BRANCH   3  11
ATOM     11  C   UNL     1       4.797   4.664  17.174  0.00  0.00    +0.000 A 
ATOM     12  C   UNL     1       4.632   6.035  16.975  0.00  0.00    +0.000 A 
ATOM     13  C   UNL     1       5.138   6.585  15.810  0.00  0.00    +0.000 A 
ATOM     14  N   UNL     1       5.774   5.871  14.860  0.00  0.00    +0.000 NA
ATOM     15  C   UNL     1       5.932   4.549  15.086  0.00  0.00    +0.000 A 
ATOM     16  C   UNL     1       5.469   3.903  16.218  0.00  0.00    +0.000 A 
ENDBRANCH   3  11
BRANCH   1  17
ATOM     17  O   UNL     1       5.356   1.303  20.626  0.00  0.00    +0.000 OA
ATOM     18  H   UNL     1       6.218   1.309  20.190  0.00  0.00    +0.000 HD
ENDBRANCH   1  17
TORSDOF 2
ENDMDL
MODEL 2
REMARK VINA RESULT:      -7.3      0.241      1.203
REMARK  Name = 
REMARK  2 active torsions:
REMARK  status: ('A' for Active; 'I' for Inactive)
REMARK    1  A    between atoms: O_1  and  C_2
REMARK    2  A    between atoms: C_4  and  C_5
REMARK                            x       y       z     vdW  Elec       q    Type
REMARK                         _______ _______ _______ _____ _____    ______ ____
ROOT
ATOM      1  C   UNL     1       4.467   2.405  20.267  0.00  0.00    +0.000 A 
ATOM      2  N   UNL     1       4.937   3.027  19.134  0.00  0.00    +0.000 N 
ATOM      3  C   UNL     1       4.179   3.981  18.468  0.00  0.00    +0.000 A 
ATOM      4  N   UNL     1       2.986   4.343  18.859  0.00  0.00    +0.000 NA
ATOM      5  C   UNL     1       2.495   3.715  19.966  0.00  0.00    +0.000 A 
ATOM      6  N   UNL     1       1.340   3.897  20.523  0.00  0.00    +0.000 NA
ATOM      7  C   UNL     1       1.381   3.011  21.593  0.00  0.00    +0.000 A 
ATOM      8  N   UNL     1       2.463   2.298  21.753  0.00  0.00    +0.000 NA
ATOM      9  C   UNL     1       3.246   2.708  20.711  0.00  0.00    +0.000 A 
ATOM     10  H   UNL     1       5.910   2.904  18.897  0.00  0.00    +0.000 HD
ENDROOT
BRANCH   3  11
ATOM     11  C   UNL     1       4.739   4.628  17.244  0.00  0.00    +0.000 A 
ATOM     12  C   UNL     1       5.360   3.864  16.256  0.00  0.00    +0.000 A 
ATOM     13  C   UNL     1       5.841   4.520  15.137  0.00  0.00    +0.000 A 
ATOM     14  N   UNL     1       5.746   5.853  14.952  0.00  0.00    +0.000 NA
ATOM     15  C   UNL     1       5.127   6.566  15.919  0.00  0.00    +0.000 A 
ATOM     16  C   UNL     1       4.608   6.006  17.072  0.00  0.00    +0.000 A 
ENDBRANCH   3  11
BRANCH   1  17
ATOM     17  O   UNL     1       5.266   1.493  20.907  0.00  0.00    +0.000 OA
ATOM     18  H   UNL     1       4.744   1.047  21.587  0.00  0.00    +0.000 HD
ENDBRANCH   1  17
TORSDOF 2
ENDMDL
MODEL 3
REMARK VINA RESULT:      -7.3      1.997      5.625
REMARK  Name = 
REMARK  2 active torsions:
REMARK  status: ('A' for Active; 'I' for Inactive)
REMARK    1  A    between atoms: O_1  and  C_2
REMARK    2  A    between atoms: C_4  and  C_5
REMARK                            x       y       z     vdW  Elec       q    Type
REMARK                         _______ _______ _______ _____ _____    ______ ____
ROOT
ATOM      1  C   UNL     1       6.833   4.395  17.741  0.00  0.00    +0.000 A 
ATOM      2  N   UNL     1       5.705   4.053  18.449  0.00  0.00    +0.000 N 
ATOM      3  C   UNL     1       4.491   3.833  17.810  0.00  0.00    +0.000 A 
ATOM      4  N   UNL     1       4.338   3.940  16.517  0.00  0.00    +0.000 NA
ATOM      5  C   UNL     1       5.442   4.305  15.804  0.00  0.00    +0.000 A 
ATOM      6  N   UNL     1       5.523   4.488  14.524  0.00  0.00    +0.000 NA
ATOM      7  C   UNL     1       6.858   4.839  14.357  0.00  0.00    +0.000 A 
ATOM      8  N   UNL     1       7.614   4.884  15.420  0.00  0.00    +0.000 NA
ATOM      9  C   UNL     1       6.744   4.546  16.418  0.00  0.00    +0.000 A 
ATOM     10  H   UNL     1       5.816   3.795  19.418  0.00  0.00    +0.000 HD
ENDROOT
BRANCH   3  11
ATOM     11  C   UNL     1       3.298   3.460  18.626  0.00  0.00    +0.000 A 
ATOM     12  C   UNL     1       2.249   2.734  18.063  0.00  0.00    +0.000 A 
ATOM     13  C   UNL     1       1.181   2.402  18.877  0.00  0.00    +0.000 A 
ATOM     14  N   UNL     1       1.097   2.744  20.179  0.00  0.00    +0.000 NA
ATOM     15  C   UNL     1       2.134   3.435  20.701  0.00  0.00    +0.000 A 
ATOM     16  C   UNL     1       3.249   3.811  19.975  0.00  0.00    +0.000 A 
ENDBRANCH   3  11
BRANCH   1  17
ATOM     17  O   UNL     1       8.014   4.572  18.414  0.00  0.00    +0.000 OA
ATOM     18  H   UNL     1       7.836   4.561  19.363  0.00  0.00    +0.000 HD
ENDBRANCH   1  17
TORSDOF 2
ENDMDL
MODEL 4
REMARK VINA RESULT:      -7.3      1.129      1.522
REMARK  Name = 
REMARK  2 active torsions:
REMARK  status: ('A' for Active; 'I' for Inactive)
REMARK    1  A    between atoms: O_1  and  C_2
REMARK    2  A    between atoms: C_4  and  C_5
REMARK                            x       y       z     vdW  Elec       q    Type
REMARK                         _______ _______ _______ _____ _____    ______ ____
ROOT
ATOM      1  C   UNL     1       4.429   2.479  20.318  0.00  0.00    +0.000 A 
ATOM      2  N   UNL     1       5.240   3.061  19.374  0.00  0.00    +0.000 N 
ATOM      3  C   UNL     1       4.744   3.997  18.475  0.00  0.00    +0.000 A 
ATOM      4  N   UNL     1       3.494   4.378  18.461  0.00  0.00    +0.000 NA
ATOM      5  C   UNL     1       2.671   3.789  19.376  0.00  0.00    +0.000 A 
ATOM      6  N   UNL     1       1.402   3.994  19.536  0.00  0.00    +0.000 NA
ATOM      7  C   UNL     1       1.092   3.142  20.590  0.00  0.00    +0.000 A 
ATOM      8  N   UNL     1       2.059   2.430  21.102  0.00  0.00    +0.000 NA
ATOM      9  C   UNL     1       3.135   2.802  20.347  0.00  0.00    +0.000 A 
ATOM     10  H   UNL     1       6.236   2.926  19.458  0.00  0.00    +0.000 HD
ENDROOT
BRANCH   3  11
ATOM     11  C   UNL     1       5.670   4.602  17.472  0.00  0.00    +0.000 A 
ATOM     12  C   UNL     1       5.800   4.047  16.199  0.00  0.00    +0.000 A 
ATOM     13  C   UNL     1       6.659   4.665  15.308  0.00  0.00    +0.000 A 
ATOM     14  N   UNL     1       7.377   5.768  15.603  0.00  0.00    +0.000 NA
ATOM     15  C   UNL     1       7.220   6.292  16.838  0.00  0.00    +0.000 A 
ATOM     16  C   UNL     1       6.384   5.754  17.800  0.00  0.00    +0.000 A 
ENDBRANCH   3  11
BRANCH   1  17
ATOM     17  O   UNL     1       4.972   1.583  21.203  0.00  0.00    +0.000 OA
ATOM     18  H   UNL     1       5.232   2.056  22.004  0.00  0.00    +0.000 HD
ENDBRANCH   1  17
TORSDOF 2
ENDMDL
MODEL 5
REMARK VINA RESULT:      -7.3      1.980      5.521
REMARK  Name = 
REMARK  2 active torsions:
REMARK  status: ('A' for Active; 'I' for Inactive)
REMARK    1  A    between atoms: O_1  and  C_2
REMARK    2  A    between atoms: C_4  and  C_5
REMARK                            x       y       z     vdW  Elec       q    Type
REMARK                         _______ _______ _______ _____ _____    ______ ____
ROOT
ATOM      1  C   UNL     1       6.885   4.436  17.862  0.00  0.00    +0.000 A 
ATOM      2  N   UNL     1       5.785   4.118  18.625  0.00  0.00    +0.000 N 
ATOM      3  C   UNL     1       4.547   3.881  18.041  0.00  0.00    +0.000 A 
ATOM      4  N   UNL     1       4.343   3.949  16.752  0.00  0.00    +0.000 NA
ATOM      5  C   UNL     1       5.419   4.289  15.985  0.00  0.00    +0.000 A 
ATOM      6  N   UNL     1       5.450   4.432  14.698  0.00  0.00    +0.000 NA
ATOM      7  C   UNL     1       6.777   4.775  14.468  0.00  0.00    +0.000 A 
ATOM      8  N   UNL     1       7.575   4.851  15.499  0.00  0.00    +0.000 NA
ATOM      9  C   UNL     1       6.745   4.546  16.540  0.00  0.00    +0.000 A 
ATOM     10  H   UNL     1       5.934   3.890  19.596  0.00  0.00    +0.000 HD
ENDROOT
BRANCH   3  11
ATOM     11  C   UNL     1       3.387   3.537  18.915  0.00  0.00    +0.000 A 
ATOM     12  C   UNL     1       3.040   4.353  19.992  0.00  0.00    +0.000 A 
ATOM     13  C   UNL     1       1.943   3.990  20.752  0.00  0.00    +0.000 A 
ATOM     14  N   UNL     1       1.196   2.892  20.512  0.00  0.00    +0.000 NA
ATOM     15  C   UNL     1       1.547   2.128  19.455  0.00  0.00    +0.000 A 
ATOM     16  C   UNL     1       2.622   2.406  18.630  0.00  0.00    +0.000 A 
ENDBRANCH   3  11
BRANCH   1  17
ATOM     17  O   UNL     1       8.092   4.630  18.482  0.00  0.00    +0.000 OA
ATOM     18  H   UNL     1       8.249   3.898  19.093  0.00  0.00    +0.000 HD
ENDBRANCH   1  17
TORSDOF 2
ENDMDL
MODEL 6
REMARK VINA RESULT:      -7.3      1.119      1.119
REMARK  Name = 
REMARK  2 active torsions:
REMARK  status: ('A' for Active; 'I' for Inactive)
REMARK    1  A    between atoms: O_1  and  C_2
REMARK    2  A    between atoms: C_4  and  C_5
REMARK                            x       y       z     vdW  Elec       q    Type
REMARK                         _______ _______ _______ _____ _____    ______ ____
ROOT
ATOM      1  C   UNL     1       4.437   2.491  20.325  0.00  0.00    +0.000 A 
ATOM      2  N   UNL     1       5.240   3.091  19.385  0.00  0.00    +0.000 N 
ATOM      3  C   UNL     1       4.735   4.044  18.509  0.00  0.00    +0.000 A 
ATOM      4  N   UNL     1       3.486   4.425  18.514  0.00  0.00    +0.000 NA
ATOM      5  C   UNL     1       2.671   3.819  19.424  0.00  0.00    +0.000 A 
ATOM      6  N   UNL     1       1.404   4.021  19.600  0.00  0.00    +0.000 NA
ATOM      7  C   UNL     1       1.103   3.149  20.640  0.00  0.00    +0.000 A 
ATOM      8  N   UNL     1       2.074   2.427  21.130  0.00  0.00    +0.000 NA
ATOM      9  C   UNL     1       3.143   2.813  20.372  0.00  0.00    +0.000 A 
ATOM     10  H   UNL     1       6.236   2.954  19.458  0.00  0.00    +0.000 HD
ENDROOT
BRANCH   3  11
ATOM     11  C   UNL     1       5.652   4.668  17.509  0.00  0.00    +0.000 A 
ATOM     12  C   UNL     1       6.372   5.820  17.826  0.00  0.00    +0.000 A 
ATOM     13  C   UNL     1       7.220   6.338  16.863  0.00  0.00    +0.000 A 
ATOM     14  N   UNL     1       7.384   5.795  15.639  0.00  0.00    +0.000 NA
ATOM     15  C   UNL     1       6.684   4.673  15.365  0.00  0.00    +0.000 A 
ATOM     16  C   UNL     1       5.815   4.073  16.259  0.00  0.00    +0.000 A 
ENDBRANCH   3  11
BRANCH   1  17
ATOM     17  O   UNL     1       4.988   1.578  21.188  0.00  0.00    +0.000 OA
ATOM     18  H   UNL     1       4.285   1.204  21.735  0.00  0.00    +0.000 HD
ENDBRANCH   1  17
TORSDOF 2
ENDMDL
MODEL 7
REMARK VINA RESULT:      -7.1      1.608      1.961
REMARK  Name = 
REMARK  2 active torsions:
REMARK  status: ('A' for Active; 'I' for Inactive)
REMARK    1  A    between atoms: O_1  and  C_2
REMARK    2  A    between atoms: C_4  and  C_5
REMARK                            x       y       z     vdW  Elec       q    Type
REMARK                         _______ _______ _______ _____ _____    ______ ____
ROOT
ATOM      1  C   UNL     1       4.197   2.545  19.655  0.00  0.00    +0.000 A 
ATOM      2  N   UNL     1       5.081   3.131  18.781  0.00  0.00    +0.000 N 
ATOM      3  C   UNL     1       4.639   3.787  17.639  0.00  0.00    +0.000 A 
ATOM      4  N   UNL     1       3.376   3.885  17.318  0.00  0.00    +0.000 NA
ATOM      5  C   UNL     1       2.488   3.286  18.163  0.00  0.00    +0.000 A 
ATOM      6  N   UNL     1       1.200   3.239  18.040  0.00  0.00    +0.000 NA
ATOM      7  C   UNL     1       0.819   2.517  19.166  0.00  0.00    +0.000 A 
ATOM      8  N   UNL     1       1.758   2.116  19.979  0.00  0.00    +0.000 NA
ATOM      9  C   UNL     1       2.892   2.586  19.379  0.00  0.00    +0.000 A 
ATOM     10  H   UNL     1       6.042   3.226  19.074  0.00  0.00    +0.000 HD
ENDROOT
BRANCH   3  11
ATOM     11  C   UNL     1       5.642   4.409  16.725  0.00  0.00    +0.000 A 
ATOM     12  C   UNL     1       5.775   3.968  15.408  0.00  0.00    +0.000 A 
ATOM     13  C   UNL     1       6.709   4.599  14.606  0.00  0.00    +0.000 A 
ATOM     14  N   UNL     1       7.497   5.609  15.026  0.00  0.00    +0.000 NA
ATOM     15  C   UNL     1       7.337   6.025  16.302  0.00  0.00    +0.000 A 
ATOM     16  C   UNL     1       6.430   5.465  17.183  0.00  0.00    +0.000 A 
ENDBRANCH   3  11
BRANCH   1  17
ATOM     17  O   UNL     1       4.680   1.936  20.785  0.00  0.00    +0.000 OA
ATOM     18  H   UNL     1       4.011   1.324  21.118  0.00  0.00    +0.000 HD
ENDBRANCH   1  17
TORSDOF 2
ENDMDL
MODEL 8
REMARK VINA RESULT:      -7.0      2.847      5.268
REMARK  Name = 
REMARK  2 active torsions:
REMARK  status: ('A' for Active; 'I' for Inactive)
REMARK    1  A    between atoms: O_1  and  C_2
REMARK    2  A    between atoms: C_4  and  C_5
REMARK                            x       y       z     vdW  Elec       q    Type
REMARK                         _______ _______ _______ _____ _____    ______ ____
ROOT
ATOM      1  C   UNL     1       7.144   5.495  19.500  0.00  0.00    +0.000 A 
ATOM      2  N   UNL     1       6.007   4.739  19.344  0.00  0.00    +0.000 N 
ATOM      3  C   UNL     1       5.113   4.987  18.310  0.00  0.00    +0.000 A 
ATOM      4  N   UNL     1       5.283   5.941  17.434  0.00  0.00    +0.000 NA
ATOM      5  C   UNL     1       6.394   6.717  17.592  0.00  0.00    +0.000 A 
ATOM      6  N   UNL     1       6.758   7.723  16.862  0.00  0.00    +0.000 NA
ATOM      7  C   UNL     1       7.942   8.122  17.472  0.00  0.00    +0.000 A 
ATOM      8  N   UNL     1       8.348   7.448  18.514  0.00  0.00    +0.000 NA
ATOM      9  C   UNL     1       7.372   6.503  18.656  0.00  0.00    +0.000 A 
ATOM     10  H   UNL     1       5.923   3.894  19.887  0.00  0.00    +0.000 HD
ENDROOT
BRANCH   3  11
ATOM     11  C   UNL     1       3.894   4.133  18.184  0.00  0.00    +0.000 A 
ATOM     12  C   UNL     1       3.975   2.750  18.345  0.00  0.00    +0.000 A 
ATOM     13  C   UNL     1       2.808   2.016  18.236  0.00  0.00    +0.000 A 
ATOM     14  N   UNL     1       1.601   2.562  17.980  0.00  0.00    +0.000 NA
ATOM     15  C   UNL     1       1.551   3.905  17.843  0.00  0.00    +0.000 A 
ATOM     16  C   UNL     1       2.658   4.729  17.938  0.00  0.00    +0.000 A 
ENDBRANCH   3  11
BRANCH   1  17
ATOM     17  O   UNL     1       8.012   5.192  20.518  0.00  0.00    +0.000 OA
ATOM     18  H   UNL     1       7.894   5.835  21.229  0.00  0.00    +0.000 HD
ENDBRANCH   1  17
TORSDOF 2
ENDMDL
MODEL 9
REMARK VINA RESULT:      -7.0      2.842      5.142
REMARK  Name = 
REMARK  2 active torsions:
REMARK  status: ('A' for Active; 'I' for Inactive)
REMARK    1  A    between atoms: O_1  and  C_2
REMARK    2  A    between atoms: C_4  and  C_5
REMARK                            x       y       z     vdW  Elec       q    Type
REMARK                         _______ _______ _______ _____ _____    ______ ____
ROOT
ATOM      1  C   UNL     1       7.113   5.511  19.490  0.00  0.00    +0.000 A 
ATOM      2  N   UNL     1       5.967   4.769  19.332  0.00  0.00    +0.000 N 
ATOM      3  C   UNL     1       5.077   5.027  18.297  0.00  0.00    +0.000 A 
ATOM      4  N   UNL     1       5.261   5.978  17.421  0.00  0.00    +0.000 NA
ATOM      5  C   UNL     1       6.381   6.740  17.581  0.00  0.00    +0.000 A 
ATOM      6  N   UNL     1       6.758   7.742  16.850  0.00  0.00    +0.000 NA
ATOM      7  C   UNL     1       7.945   8.127  17.462  0.00  0.00    +0.000 A 
ATOM      8  N   UNL     1       8.341   7.449  18.505  0.00  0.00    +0.000 NA
ATOM      9  C   UNL     1       7.354   6.516  18.646  0.00  0.00    +0.000 A 
ATOM     10  H   UNL     1       5.872   3.925  19.877  0.00  0.00    +0.000 HD
ENDROOT
BRANCH   3  11
ATOM     11  C   UNL     1       3.849   4.187  18.170  0.00  0.00    +0.000 A 
ATOM     12  C   UNL     1       2.589   4.779  18.083  0.00  0.00    +0.000 A 
ATOM     13  C   UNL     1       1.492   3.947  17.946  0.00  0.00    +0.000 A 
ATOM     14  N   UNL     1       1.573   2.602  17.897  0.00  0.00    +0.000 NA
ATOM     15  C   UNL     1       2.807   2.057  17.969  0.00  0.00    +0.000 A 
ATOM     16  C   UNL     1       3.967   2.799  18.102  0.00  0.00    +0.000 A 
ENDBRANCH   3  11
BRANCH   1  17
ATOM     17  O   UNL     1       7.975   5.198  20.509  0.00  0.00    +0.000 OA
ATOM     18  H   UNL     1       8.849   5.554  20.298  0.00  0.00    +0.000 HD
ENDBRANCH   1  17
TORSDOF 2
ENDMDL
