MODEL 1
REMARK VINA RESULT:      -7.3      0.000      0.000
REMARK  Name = 
REMARK  4 active torsions:
REMARK  status: ('A' for Active; 'I' for Inactive)
REMARK    1  A    between atoms: C_1  and  O_2
REMARK    2  A    between atoms: O_2  and  C_3
REMARK    3  A    between atoms: C_6  and  C_7
REMARK    4  A    between atoms: N_19  and  C_20
REMARK                            x       y       z     vdW  Elec       q    Type
REMARK                         _______ _______ _______ _____ _____    ______ ____
ROOT
ATOM      1  C   UNL     1      -1.433  13.738  20.569  0.00  0.00    +0.000 C 
ATOM      2  C   UNL     1      -1.960  14.969  20.526  0.00  0.00    +0.000 C 
ATOM      3  C   UNL     1      -1.522  16.136  21.325  0.00  0.00    +0.000 C 
ATOM      4  C   UNL     1      -0.416  15.886  22.334  0.00  0.00    +0.000 C 
ATOM      5  C   UNL     1       0.296  14.532  22.341  0.00  0.00    +0.000 C 
ATOM      6  C   UNL     1      -0.239  13.341  21.458  0.00  0.00    +0.000 C 
ATOM      7  C   UNL     1       0.947  12.919  20.541  0.00  0.00    +0.000 C 
ATOM      8  C   UNL     1       1.380  11.657  20.339  0.00  0.00    +0.000 C 
ATOM      9  C   UNL     1       0.684  10.635  21.021  0.00  0.00    +0.000 A 
ATOM     10  C   UNL     1      -0.300  10.844  21.964  0.00  0.00    +0.000 A 
ATOM     11  C   UNL     1      -0.804   9.579  22.264  0.00  0.00    +0.000 A 
ATOM     12  N   UNL     1      -0.243   8.628  21.521  0.00  0.00    +0.000 NA
ATOM     13  N   UNL     1       0.714   9.269  20.778  0.00  0.00    +0.000 N 
ATOM     14  C   UNL     1      -0.666  12.192  22.462  0.00  0.00    +0.000 C 
ENDROOT
BRANCH  13  15
ATOM     15  C   UNL     1       1.540   8.471  19.936  0.00  0.00    +0.000 A 
ATOM     16  C   UNL     1       1.769   8.927  18.623  0.00  0.00    +0.000 A 
ATOM     17  C   UNL     1       2.522   8.166  17.729  0.00  0.00    +0.000 A 
ATOM     18  C   UNL     1       3.014   6.934  18.137  0.00  0.00    +0.000 A 
ATOM     19  F   UNL     1       3.706   6.184  17.269  0.00  0.00    +0.000 F 
ATOM     20  C   UNL     1       2.783   6.461  19.427  0.00  0.00    +0.000 A 
ATOM     21  C   UNL     1       2.054   7.234  20.340  0.00  0.00    +0.000 A 
ENDBRANCH  13  15
BRANCH   1  25
ATOM     22  C   UNL     1      -3.555  11.346  17.698  0.00  0.00    +0.000 A 
ATOM     23  C   UNL     1      -2.196  11.617  17.523  0.00  0.00    +0.000 A 
ATOM     24  C   UNL     1      -1.474  12.323  18.495  0.00  0.00    +0.000 A 
ATOM     25  C   UNL     1      -2.104  12.771  19.664  0.00  0.00    +0.000 A 
ATOM     26  C   UNL     1      -3.466  12.489  19.833  0.00  0.00    +0.000 A 
ATOM     27  C   UNL     1      -4.188  11.782  18.861  0.00  0.00    +0.000 A 
BRANCH  22  29
ATOM     28  C   UNL     1      -3.436  10.664  15.425  0.00  0.00    +0.000 C 
ATOM     29  O   UNL     1      -4.162  10.709  16.649  0.00  0.00    +0.000 OA
ENDBRANCH  22  29
ENDBRANCH   1  25
TORSDOF 3
ENDMDL
MODEL 2
REMARK VINA RESULT:      -7.1      9.100     11.314
REMARK  Name = 
REMARK  4 active torsions:
REMARK  status: ('A' for Active; 'I' for Inactive)
REMARK    1  A    between atoms: C_1  and  O_2
REMARK    2  A    between atoms: O_2  and  C_3
REMARK    3  A    between atoms: C_6  and  C_7
REMARK    4  A    between atoms: N_19  and  C_20
REMARK                            x       y       z     vdW  Elec       q    Type
REMARK                         _______ _______ _______ _____ _____    ______ ____
ROOT
ATOM      1  C   UNL     1      10.624  14.492  18.545  0.00  0.00    +0.000 C 
ATOM      2  C   UNL     1      11.469  14.541  17.507  0.00  0.00    +0.000 C 
ATOM      3  C   UNL     1      12.231  15.727  17.054  0.00  0.00    +0.000 C 
ATOM      4  C   UNL     1      11.968  17.022  17.800  0.00  0.00    +0.000 C 
ATOM      5  C   UNL     1      11.103  16.995  19.061  0.00  0.00    +0.000 C 
ATOM      6  C   UNL     1      10.325  15.687  19.472  0.00  0.00    +0.000 C 
ATOM      7  C   UNL     1      10.805  15.334  20.910  0.00  0.00    +0.000 C 
ATOM      8  C   UNL     1      10.009  15.026  21.955  0.00  0.00    +0.000 C 
ATOM      9  C   UNL     1       8.618  15.022  21.709  0.00  0.00    +0.000 A 
ATOM     10  C   UNL     1       8.023  15.432  20.535  0.00  0.00    +0.000 A 
ATOM     11  C   UNL     1       6.670  15.126  20.676  0.00  0.00    +0.000 A 
ATOM     12  N   UNL     1       6.417  14.498  21.821  0.00  0.00    +0.000 NA
ATOM     13  N   UNL     1       7.612  14.468  22.490  0.00  0.00    +0.000 N 
ATOM     14  C   UNL     1       8.782  16.044  19.418  0.00  0.00    +0.000 C 
ENDROOT
BRANCH  13  15
ATOM     15  C   UNL     1       7.622  13.917  23.802  0.00  0.00    +0.000 A 
ATOM     16  C   UNL     1       7.937  12.551  23.935  0.00  0.00    +0.000 A 
ATOM     17  C   UNL     1       7.910  11.934  25.185  0.00  0.00    +0.000 A 
ATOM     18  C   UNL     1       7.532  12.675  26.296  0.00  0.00    +0.000 A 
ATOM     19  F   UNL     1       7.468  12.078  27.493  0.00  0.00    +0.000 F 
ATOM     20  C   UNL     1       7.201  14.024  26.181  0.00  0.00    +0.000 A 
ATOM     21  C   UNL     1       7.257  14.657  24.932  0.00  0.00    +0.000 A 
ENDBRANCH  13  15
BRANCH   1  25
ATOM     22  C   UNL     1       9.115  10.473  18.741  0.00  0.00    +0.000 A 
ATOM     23  C   UNL     1      10.082  10.908  19.649  0.00  0.00    +0.000 A 
ATOM     24  C   UNL     1      10.520  12.241  19.650  0.00  0.00    +0.000 A 
ATOM     25  C   UNL     1       9.992  13.163  18.737  0.00  0.00    +0.000 A 
ATOM     26  C   UNL     1       9.017  12.719  17.833  0.00  0.00    +0.000 A 
ATOM     27  C   UNL     1       8.580  11.386  17.834  0.00  0.00    +0.000 A 
BRANCH  22  29
ATOM     28  C   UNL     1       7.999   8.621  17.757  0.00  0.00    +0.000 C 
ATOM     29  O   UNL     1       8.822   9.137  18.797  0.00  0.00    +0.000 OA
ENDBRANCH  22  29
ENDBRANCH   1  25
TORSDOF 3
ENDMDL
MODEL 3
REMARK VINA RESULT:      -7.0      2.538      4.085
REMARK  Name = 
REMARK  4 active torsions:
REMARK  status: ('A' for Active; 'I' for Inactive)
REMARK    1  A    between atoms: C_1  and  O_2
REMARK    2  A    between atoms: O_2  and  C_3
REMARK    3  A    between atoms: C_6  and  C_7
REMARK    4  A    between atoms: N_19  and  C_20
REMARK                            x       y       z     vdW  Elec       q    Type
REMARK                         _______ _______ _______ _____ _____    ______ ____
ROOT
ATOM      1  C   UNL     1      -0.140  13.255  21.756  0.00  0.00    +0.000 C 
ATOM      2  C   UNL     1      -0.412  14.303  22.544  0.00  0.00    +0.000 C 
ATOM      3  C   UNL     1      -1.459  14.364  23.589  0.00  0.00    +0.000 C 
ATOM      4  C   UNL     1      -2.349  13.142  23.724  0.00  0.00    +0.000 C 
ATOM      5  C   UNL     1      -2.008  11.880  22.931  0.00  0.00    +0.000 C 
ATOM      6  C   UNL     1      -0.875  11.903  21.834  0.00  0.00    +0.000 C 
ATOM      7  C   UNL     1       0.146  10.803  22.247  0.00  0.00    +0.000 C 
ATOM      8  C   UNL     1       0.659   9.856  21.435  0.00  0.00    +0.000 C 
ATOM      9  C   UNL     1       0.229   9.878  20.090  0.00  0.00    +0.000 A 
ATOM     10  C   UNL     1      -0.761  10.698  19.591  0.00  0.00    +0.000 A 
ATOM     11  C   UNL     1      -0.757  10.491  18.213  0.00  0.00    +0.000 A 
ATOM     12  N   UNL     1       0.209   9.658  17.835  0.00  0.00    +0.000 NA
ATOM     13  N   UNL     1       0.798   9.237  18.998  0.00  0.00    +0.000 N 
ATOM     14  C   UNL     1      -1.580  11.586  20.451  0.00  0.00    +0.000 C 
ENDROOT
BRANCH  13  15
ATOM     15  C   UNL     1       1.830   8.260  18.900  0.00  0.00    +0.000 A 
ATOM     16  C   UNL     1       2.655   8.293  17.760  0.00  0.00    +0.000 A 
ATOM     17  C   UNL     1       3.648   7.332  17.575  0.00  0.00    +0.000 A 
ATOM     18  C   UNL     1       3.790   6.317  18.510  0.00  0.00    +0.000 A 
ATOM     19  F   UNL     1       4.717   5.370  18.317  0.00  0.00    +0.000 F 
ATOM     20  C   UNL     1       2.971   6.260  19.636  0.00  0.00    +0.000 A 
ATOM     21  C   UNL     1       1.992   7.240  19.845  0.00  0.00    +0.000 A 
ENDBRANCH  13  15
BRANCH   1  25
ATOM     22  C   UNL     1       2.974  14.479  19.060  0.00  0.00    +0.000 A 
ATOM     23  C   UNL     1       3.288  14.044  20.349  0.00  0.00    +0.000 A 
ATOM     24  C   UNL     1       2.290  13.561  21.208  0.00  0.00    +0.000 A 
ATOM     25  C   UNL     1       0.955  13.506  20.786  0.00  0.00    +0.000 A 
ATOM     26  C   UNL     1       0.650  13.939  19.488  0.00  0.00    +0.000 A 
ATOM     27  C   UNL     1       1.650  14.420  18.630  0.00  0.00    +0.000 A 
BRANCH  22  29
ATOM     28  C   UNL     1       3.745  16.109  17.513  0.00  0.00    +0.000 C 
ATOM     29  O   UNL     1       4.024  14.988  18.345  0.00  0.00    +0.000 OA
ENDBRANCH  22  29
ENDBRANCH   1  25
TORSDOF 3
ENDMDL
MODEL 4
REMARK VINA RESULT:      -7.0      2.453      3.941
REMARK  Name = 
REMARK  4 active torsions:
REMARK  status: ('A' for Active; 'I' for Inactive)
REMARK    1  A    between atoms: C_1  and  O_2
REMARK    2  A    between atoms: O_2  and  C_3
REMARK    3  A    between atoms: C_6  and  C_7
REMARK    4  A    between atoms: N_19  and  C_20
REMARK                            x       y       z     vdW  Elec       q    Type
REMARK                         _______ _______ _______ _____ _____    ______ ____
ROOT
ATOM      1  C   UNL     1      -1.360  14.544  22.345  0.00  0.00    +0.000 C 
ATOM      2  C   UNL     1      -1.612  15.569  23.170  0.00  0.00    +0.000 C 
ATOM      3  C   UNL     1      -2.621  15.593  24.253  0.00  0.00    +0.000 C 
ATOM      4  C   UNL     1      -3.495  14.360  24.389  0.00  0.00    +0.000 C 
ATOM      5  C   UNL     1      -3.172  13.122  23.551  0.00  0.00    +0.000 C 
ATOM      6  C   UNL     1      -2.081  13.183  22.415  0.00  0.00    +0.000 C 
ATOM      7  C   UNL     1      -1.035  12.083  22.762  0.00  0.00    +0.000 C 
ATOM      8  C   UNL     1      -0.544  11.162  21.907  0.00  0.00    +0.000 C 
ATOM      9  C   UNL     1      -1.023  11.215  20.580  0.00  0.00    +0.000 A 
ATOM     10  C   UNL     1      -2.038  12.038  20.139  0.00  0.00    +0.000 A 
ATOM     11  C   UNL     1      -2.082  11.867  18.756  0.00  0.00    +0.000 A 
ATOM     12  N   UNL     1      -1.124  11.052  18.322  0.00  0.00    +0.000 NA
ATOM     13  N   UNL     1      -0.489  10.607  19.452  0.00  0.00    +0.000 N 
ATOM     14  C   UNL     1      -2.833  12.896  21.050  0.00  0.00    +0.000 C 
ENDROOT
BRANCH  13  15
ATOM     15  C   UNL     1       0.547   9.643  19.291  0.00  0.00    +0.000 A 
ATOM     16  C   UNL     1       1.094   9.479  18.004  0.00  0.00    +0.000 A 
ATOM     17  C   UNL     1       2.071   8.514  17.766  0.00  0.00    +0.000 A 
ATOM     18  C   UNL     1       2.473   7.688  18.806  0.00  0.00    +0.000 A 
ATOM     19  F   UNL     1       3.385   6.734  18.573  0.00  0.00    +0.000 F 
ATOM     20  C   UNL     1       1.931   7.825  20.082  0.00  0.00    +0.000 A 
ATOM     21  C   UNL     1       0.971   8.814  20.336  0.00  0.00    +0.000 A 
ENDBRANCH  13  15
BRANCH   1  25
ATOM     22  C   UNL     1       1.637  14.890  19.285  0.00  0.00    +0.000 A 
ATOM     23  C   UNL     1       0.332  15.328  19.047  0.00  0.00    +0.000 A 
ATOM     24  C   UNL     1      -0.632  15.299  20.065  0.00  0.00    +0.000 A 
ATOM     25  C   UNL     1      -0.303  14.830  21.344  0.00  0.00    +0.000 A 
ATOM     26  C   UNL     1       1.010  14.398  21.575  0.00  0.00    +0.000 A 
ATOM     27  C   UNL     1       1.974  14.429  20.556  0.00  0.00    +0.000 A 
BRANCH  22  29
ATOM     28  C   UNL     1       3.846  14.663  18.440  0.00  0.00    +0.000 C 
ATOM     29  O   UNL     1       2.465  14.906  18.195  0.00  0.00    +0.000 OA
ENDBRANCH  22  29
ENDBRANCH   1  25
TORSDOF 3
ENDMDL
MODEL 5
REMARK VINA RESULT:      -6.9      2.662      4.065
REMARK  Name = 
REMARK  4 active torsions:
REMARK  status: ('A' for Active; 'I' for Inactive)
REMARK    1  A    between atoms: C_1  and  O_2
REMARK    2  A    between atoms: O_2  and  C_3
REMARK    3  A    between atoms: C_6  and  C_7
REMARK    4  A    between atoms: N_19  and  C_20
REMARK                            x       y       z     vdW  Elec       q    Type
REMARK                         _______ _______ _______ _____ _____    ______ ____
ROOT
ATOM      1  C   UNL     1      -1.053  14.440  22.106  0.00  0.00    +0.000 C 
ATOM      2  C   UNL     1      -1.290  15.498  22.891  0.00  0.00    +0.000 C 
ATOM      3  C   UNL     1      -2.318  15.587  23.953  0.00  0.00    +0.000 C 
ATOM      4  C   UNL     1      -3.229  14.384  24.111  0.00  0.00    +0.000 C 
ATOM      5  C   UNL     1      -2.927  13.110  23.321  0.00  0.00    +0.000 C 
ATOM      6  C   UNL     1      -1.813  13.103  22.206  0.00  0.00    +0.000 C 
ATOM      7  C   UNL     1      -0.806  11.986  22.609  0.00  0.00    +0.000 C 
ATOM      8  C   UNL     1      -0.325  11.024  21.795  0.00  0.00    +0.000 C 
ATOM      9  C   UNL     1      -0.777  11.046  20.457  0.00  0.00    +0.000 A 
ATOM     10  C   UNL     1      -1.759  11.882  19.970  0.00  0.00    +0.000 A 
ATOM     11  C   UNL     1      -1.783  11.666  18.593  0.00  0.00    +0.000 A 
ATOM     12  N   UNL     1      -0.840  10.811  18.205  0.00  0.00    +0.000 NA
ATOM     13  N   UNL     1      -0.239  10.386  19.361  0.00  0.00    +0.000 N 
ATOM     14  C   UNL     1      -2.547  12.791  20.837  0.00  0.00    +0.000 C 
ENDROOT
BRANCH  13  15
ATOM     15  C   UNL     1       0.771   9.388  19.252  0.00  0.00    +0.000 A 
ATOM     16  C   UNL     1       1.429   9.257  18.014  0.00  0.00    +0.000 A 
ATOM     17  C   UNL     1       2.389   8.264  17.824  0.00  0.00    +0.000 A 
ATOM     18  C   UNL     1       2.663   7.380  18.858  0.00  0.00    +0.000 A 
ATOM     19  F   UNL     1       3.557   6.401  18.667  0.00  0.00    +0.000 F 
ATOM     20  C   UNL     1       2.009   7.486  20.084  0.00  0.00    +0.000 A 
ATOM     21  C   UNL     1       1.066   8.501  20.293  0.00  0.00    +0.000 A 
ENDBRANCH  13  15
BRANCH   1  25
ATOM     22  C   UNL     1       2.117  15.561  19.429  0.00  0.00    +0.000 A 
ATOM     23  C   UNL     1       2.403  14.882  20.615  0.00  0.00    +0.000 A 
ATOM     24  C   UNL     1       1.372  14.436  21.454  0.00  0.00    +0.000 A 
ATOM     25  C   UNL     1       0.031  14.663  21.116  0.00  0.00    +0.000 A 
ATOM     26  C   UNL     1      -0.247  15.340  19.921  0.00  0.00    +0.000 A 
ATOM     27  C   UNL     1       0.786  15.785  19.082  0.00  0.00    +0.000 A 
BRANCH  22  29
ATOM     28  C   UNL     1       2.953  16.671  17.502  0.00  0.00    +0.000 C 
ATOM     29  O   UNL     1       3.209  16.003  18.732  0.00  0.00    +0.000 OA
ENDBRANCH  22  29
ENDBRANCH   1  25
TORSDOF 3
ENDMDL
MODEL 6
REMARK VINA RESULT:      -6.9      3.063      4.851
REMARK  Name = 
REMARK  4 active torsions:
REMARK  status: ('A' for Active; 'I' for Inactive)
REMARK    1  A    between atoms: C_1  and  O_2
REMARK    2  A    between atoms: O_2  and  C_3
REMARK    3  A    between atoms: C_6  and  C_7
REMARK    4  A    between atoms: N_19  and  C_20
REMARK                            x       y       z     vdW  Elec       q    Type
REMARK                         _______ _______ _______ _____ _____    ______ ____
ROOT
ATOM      1  C   UNL     1       0.324  14.681  21.729  0.00  0.00    +0.000 C 
ATOM      2  C   UNL     1       0.754  15.710  22.471  0.00  0.00    +0.000 C 
ATOM      3  C   UNL     1       2.070  16.379  22.359  0.00  0.00    +0.000 C 
ATOM      4  C   UNL     1       3.043  15.790  21.355  0.00  0.00    +0.000 C 
ATOM      5  C   UNL     1       2.561  14.691  20.406  0.00  0.00    +0.000 C 
ATOM      6  C   UNL     1       1.142  14.032  20.596  0.00  0.00    +0.000 C 
ATOM      7  C   UNL     1       0.386  14.243  19.252  0.00  0.00    +0.000 C 
ATOM      8  C   UNL     1      -0.288  13.295  18.567  0.00  0.00    +0.000 C 
ATOM      9  C   UNL     1      -0.307  12.002  19.133  0.00  0.00    +0.000 A 
ATOM     10  C   UNL     1       0.413  11.616  20.244  0.00  0.00    +0.000 A 
ATOM     11  C   UNL     1      -0.011  10.320  20.531  0.00  0.00    +0.000 A 
ATOM     12  N   UNL     1      -0.984   9.920  19.716  0.00  0.00    +0.000 NA
ATOM     13  N   UNL     1      -1.144  10.941  18.816  0.00  0.00    +0.000 N 
ATOM     14  C   UNL     1       1.395  12.501  20.915  0.00  0.00    +0.000 C 
ENDROOT
BRANCH  13  15
ATOM     15  C   UNL     1      -2.080  10.750  17.760  0.00  0.00    +0.000 A 
ATOM     16  C   UNL     1      -1.741   9.836  16.744  0.00  0.00    +0.000 A 
ATOM     17  C   UNL     1      -2.587   9.644  15.652  0.00  0.00    +0.000 A 
ATOM     18  C   UNL     1      -3.751  10.393  15.559  0.00  0.00    +0.000 A 
ATOM     19  F   UNL     1      -4.548  10.238  14.493  0.00  0.00    +0.000 F 
ATOM     20  C   UNL     1      -4.094  11.313  16.547  0.00  0.00    +0.000 A 
ATOM     21  C   UNL     1      -3.264  11.489  17.662  0.00  0.00    +0.000 A 
ENDBRANCH  13  15
BRANCH   1  25
ATOM     22  C   UNL     1      -3.567  12.985  22.400  0.00  0.00    +0.000 A 
ATOM     23  C   UNL     1      -2.473  12.558  23.155  0.00  0.00    +0.000 A 
ATOM     24  C   UNL     1      -1.217  13.164  23.005  0.00  0.00    +0.000 A 
ATOM     25  C   UNL     1      -1.036  14.212  22.093  0.00  0.00    +0.000 A 
ATOM     26  C   UNL     1      -2.142  14.637  21.343  0.00  0.00    +0.000 A 
ATOM     27  C   UNL     1      -3.398  14.031  21.495  0.00  0.00    +0.000 A 
BRANCH  22  29
ATOM     28  C   UNL     1      -5.872  13.012  22.977  0.00  0.00    +0.000 C 
ATOM     29  O   UNL     1      -4.720  12.271  22.590  0.00  0.00    +0.000 OA
ENDBRANCH  22  29
ENDBRANCH   1  25
TORSDOF 3
ENDMDL
MODEL 7
REMARK VINA RESULT:      -6.8      3.187      4.954
REMARK  Name = 
REMARK  4 active torsions:
REMARK  status: ('A' for Active; 'I' for Inactive)
REMARK    1  A    between atoms: C_1  and  O_2
REMARK    2  A    between atoms: O_2  and  C_3
REMARK    3  A    between atoms: C_6  and  C_7
REMARK    4  A    between atoms: N_19  and  C_20
REMARK                            x       y       z     vdW  Elec       q    Type
REMARK                         _______ _______ _______ _____ _____    ______ ____
ROOT
ATOM      1  C   UNL     1      -0.386  14.615  22.016  0.00  0.00    +0.000 C 
ATOM      2  C   UNL     1      -0.124  15.627  22.854  0.00  0.00    +0.000 C 
ATOM      3  C   UNL     1       1.074  16.496  22.829  0.00  0.00    +0.000 C 
ATOM      4  C   UNL     1       2.132  16.157  21.796  0.00  0.00    +0.000 C 
ATOM      5  C   UNL     1       1.831  15.088  20.743  0.00  0.00    +0.000 C 
ATOM      6  C   UNL     1       0.529  14.206  20.846  0.00  0.00    +0.000 C 
ATOM      7  C   UNL     1      -0.243  14.419  19.511  0.00  0.00    +0.000 C 
ATOM      8  C   UNL     1      -0.758  13.446  18.731  0.00  0.00    +0.000 C 
ATOM      9  C   UNL     1      -0.581  12.119  19.180  0.00  0.00    +0.000 A 
ATOM     10  C   UNL     1       0.183  11.748  20.266  0.00  0.00    +0.000 A 
ATOM     11  C   UNL     1      -0.038  10.381  20.428  0.00  0.00    +0.000 A 
ATOM     12  N   UNL     1      -0.932   9.913  19.561  0.00  0.00    +0.000 NA
ATOM     13  N   UNL     1      -1.242  10.975  18.753  0.00  0.00    +0.000 N 
ATOM     14  C   UNL     1       1.013  12.708  21.033  0.00  0.00    +0.000 C 
ENDROOT
BRANCH  13  15
ATOM     15  C   UNL     1      -2.131  10.741  17.665  0.00  0.00    +0.000 A 
ATOM     16  C   UNL     1      -1.730   9.817  16.681  0.00  0.00    +0.000 A 
ATOM     17  C   UNL     1      -2.528   9.582  15.562  0.00  0.00    +0.000 A 
ATOM     18  C   UNL     1      -3.706  10.298  15.408  0.00  0.00    +0.000 A 
ATOM     19  F   UNL     1      -4.456  10.103  14.316  0.00  0.00    +0.000 F 
ATOM     20  C   UNL     1      -4.110  11.228  16.364  0.00  0.00    +0.000 A 
ATOM     21  C   UNL     1      -3.329  11.447  17.507  0.00  0.00    +0.000 A 
ENDBRANCH  13  15
BRANCH   1  25
ATOM     22  C   UNL     1      -4.083  12.842  23.304  0.00  0.00    +0.000 A 
ATOM     23  C   UNL     1      -4.091  13.945  22.447  0.00  0.00    +0.000 A 
ATOM     24  C   UNL     1      -2.892  14.479  21.952  0.00  0.00    +0.000 A 
ATOM     25  C   UNL     1      -1.660  13.913  22.308  0.00  0.00    +0.000 A 
ATOM     26  C   UNL     1      -1.663  12.803  23.164  0.00  0.00    +0.000 A 
ATOM     27  C   UNL     1      -2.863  12.269  23.658  0.00  0.00    +0.000 A 
BRANCH  22  29
ATOM     28  C   UNL     1      -6.443  12.922  23.042  0.00  0.00    +0.000 C 
ATOM     29  O   UNL     1      -5.311  12.458  23.770  0.00  0.00    +0.000 OA
ENDBRANCH  22  29
ENDBRANCH   1  25
TORSDOF 3
ENDMDL
MODEL 8
REMARK VINA RESULT:      -6.7      2.542      4.201
REMARK  Name = 
REMARK  4 active torsions:
REMARK  status: ('A' for Active; 'I' for Inactive)
REMARK    1  A    between atoms: C_1  and  O_2
REMARK    2  A    between atoms: O_2  and  C_3
REMARK    3  A    between atoms: C_6  and  C_7
REMARK    4  A    between atoms: N_19  and  C_20
REMARK                            x       y       z     vdW  Elec       q    Type
REMARK                         _______ _______ _______ _____ _____    ______ ____
ROOT
ATOM      1  C   UNL     1       0.039  13.381  21.599  0.00  0.00    +0.000 C 
ATOM      2  C   UNL     1      -0.164  14.448  22.383  0.00  0.00    +0.000 C 
ATOM      3  C   UNL     1      -1.126  14.539  23.505  0.00  0.00    +0.000 C 
ATOM      4  C   UNL     1      -2.008  13.327  23.737  0.00  0.00    +0.000 C 
ATOM      5  C   UNL     1      -1.737  12.045  22.948  0.00  0.00    +0.000 C 
ATOM      6  C   UNL     1      -0.695  12.036  21.766  0.00  0.00    +0.000 C 
ATOM      7  C   UNL     1       0.351  10.939  22.122  0.00  0.00    +0.000 C 
ATOM      8  C   UNL     1       0.794   9.971  21.293  0.00  0.00    +0.000 C 
ATOM      9  C   UNL     1       0.259   9.966  19.986  0.00  0.00    +0.000 A 
ATOM     10  C   UNL     1      -0.763  10.782  19.548  0.00  0.00    +0.000 A 
ATOM     11  C   UNL     1      -0.869  10.545  18.179  0.00  0.00    +0.000 A 
ATOM     12  N   UNL     1       0.060   9.697  17.745  0.00  0.00    +0.000 NA
ATOM     13  N   UNL     1       0.737   9.297  18.867  0.00  0.00    +0.000 N 
ATOM     14  C   UNL     1      -1.508  11.694  20.449  0.00  0.00    +0.000 C 
ENDROOT
BRANCH  13  15
ATOM     15  C   UNL     1       1.753   8.311  18.711  0.00  0.00    +0.000 A 
ATOM     16  C   UNL     1       1.873   7.332  19.715  0.00  0.00    +0.000 A 
ATOM     17  C   UNL     1       2.881   6.371  19.652  0.00  0.00    +0.000 A 
ATOM     18  C   UNL     1       3.791   6.413  18.605  0.00  0.00    +0.000 A 
ATOM     19  F   UNL     1       4.784   5.515  18.560  0.00  0.00    +0.000 F 
ATOM     20  C   UNL     1       3.696   7.385  17.611  0.00  0.00    +0.000 A 
ATOM     21  C   UNL     1       2.666   8.335  17.651  0.00  0.00    +0.000 A 
ENDBRANCH  13  15
BRANCH   1  25
ATOM     22  C   UNL     1       2.969  14.519  18.669  0.00  0.00    +0.000 A 
ATOM     23  C   UNL     1       3.370  14.015  19.908  0.00  0.00    +0.000 A 
ATOM     24  C   UNL     1       2.425  13.560  20.839  0.00  0.00    +0.000 A 
ATOM     25  C   UNL     1       1.056  13.604  20.541  0.00  0.00    +0.000 A 
ATOM     26  C   UNL     1       0.663  14.106  19.293  0.00  0.00    +0.000 A 
ATOM     27  C   UNL     1       1.610  14.559  18.363  0.00  0.00    +0.000 A 
BRANCH  22  29
ATOM     28  C   UNL     1       5.308  14.783  18.348  0.00  0.00    +0.000 C 
ATOM     29  O   UNL     1       3.981  14.992  17.877  0.00  0.00    +0.000 OA
ENDBRANCH  22  29
ENDBRANCH   1  25
TORSDOF 3
ENDMDL
MODEL 9
REMARK VINA RESULT:      -6.6      0.596      1.069
REMARK  Name = 
REMARK  4 active torsions:
REMARK  status: ('A' for Active; 'I' for Inactive)
REMARK    1  A    between atoms: C_1  and  O_2
REMARK    2  A    between atoms: O_2  and  C_3
REMARK    3  A    between atoms: C_6  and  C_7
REMARK    4  A    between atoms: N_19  and  C_20
REMARK                            x       y       z     vdW  Elec       q    Type
REMARK                         _______ _______ _______ _____ _____    ______ ____
ROOT
ATOM      1  C   UNL     1      -0.971  14.237  20.374  0.00  0.00    +0.000 C 
ATOM      2  C   UNL     1      -1.363  15.515  20.286  0.00  0.00    +0.000 C 
ATOM      3  C   UNL     1      -0.833  16.649  21.077  0.00  0.00    +0.000 C 
ATOM      4  C   UNL     1       0.202  16.309  22.133  0.00  0.00    +0.000 C 
ATOM      5  C   UNL     1       0.766  14.888  22.194  0.00  0.00    +0.000 C 
ATOM      6  C   UNL     1       0.141  13.739  21.316  0.00  0.00    +0.000 C 
ATOM      7  C   UNL     1       1.308  13.173  20.454  0.00  0.00    +0.000 C 
ATOM      8  C   UNL     1       1.612  11.868  20.295  0.00  0.00    +0.000 C 
ATOM      9  C   UNL     1       0.787  10.941  20.970  0.00  0.00    +0.000 A 
ATOM     10  C   UNL     1      -0.203  11.275  21.870  0.00  0.00    +0.000 A 
ATOM     11  C   UNL     1      -0.848  10.078  22.176  0.00  0.00    +0.000 A 
ATOM     12  N   UNL     1      -0.364   9.056  21.475  0.00  0.00    +0.000 NA
ATOM     13  N   UNL     1       0.682   9.574  20.756  0.00  0.00    +0.000 N 
ATOM     14  C   UNL     1      -0.442  12.666  22.325  0.00  0.00    +0.000 C 
ENDROOT
BRANCH  13  15
ATOM     15  C   UNL     1       1.449   8.674  19.963  0.00  0.00    +0.000 A 
ATOM     16  C   UNL     1       1.650   9.004  18.609  0.00  0.00    +0.000 A 
ATOM     17  C   UNL     1       2.344   8.140  17.763  0.00  0.00    +0.000 A 
ATOM     18  C   UNL     1       2.803   6.929  18.262  0.00  0.00    +0.000 A 
ATOM     19  F   UNL     1       3.437   6.079  17.444  0.00  0.00    +0.000 F 
ATOM     20  C   UNL     1       2.599   6.579  19.595  0.00  0.00    +0.000 A 
ATOM     21  C   UNL     1       1.930   7.457  20.459  0.00  0.00    +0.000 A 
ENDBRANCH  13  15
BRANCH   1  25
ATOM     22  C   UNL     1      -2.843  11.213  17.962  0.00  0.00    +0.000 A 
ATOM     23  C   UNL     1      -3.477  11.691  19.110  0.00  0.00    +0.000 A 
ATOM     24  C   UNL     1      -2.917  12.738  19.857  0.00  0.00    +0.000 A 
ATOM     25  C   UNL     1      -1.707  13.325  19.464  0.00  0.00    +0.000 A 
ATOM     26  C   UNL     1      -1.081  12.842  18.306  0.00  0.00    +0.000 A 
ATOM     27  C   UNL     1      -1.643  11.796  17.559  0.00  0.00    +0.000 A 
BRANCH  22  29
ATOM     28  C   UNL     1      -3.150   9.929  15.986  0.00  0.00    +0.000 C 
ATOM     29  O   UNL     1      -3.455  10.147  17.359  0.00  0.00    +0.000 OA
ENDBRANCH  22  29
ENDBRANCH   1  25
TORSDOF 3
ENDMDL
