MODEL 1
REMARK VINA RESULT:      -6.7      0.000      0.000
REMARK  Name = 
REMARK  11 active torsions:
REMARK  status: ('A' for Active; 'I' for Inactive)
REMARK    1  A    between atoms: C_1  and  C_2
REMARK    2  A    between atoms: C_2  and  O_3
REMARK    3  A    between atoms: C_2  and  C_14
REMARK    4  A    between atoms: O_3  and  C_4
REMARK    5  A    between atoms: C_4  and  N_5
REMARK    6  A    between atoms: N_8  and  C_9
REMARK    7  A    between atoms: C_10  and  C_11
REMARK    8  A    between atoms: N_12  and  O_13
REMARK    9  A    between atoms: C_14  and  C_15
REMARK   10  A    between atoms: C_14  and  S_16
REMARK   11  A    between atoms: S_16  and  C_17
REMARK                            x       y       z     vdW  Elec       q    Type
REMARK                         _______ _______ _______ _____ _____    ______ ____
ROOT
ATOM      1  C   UNL     1       4.393   5.067  18.566  0.00  0.00    +0.000 C 
ENDROOT
BRANCH   1   2
ATOM      2  N   UNL     1       3.359   4.753  19.544  0.00  0.00    +0.000 N 
ATOM      3  C   UNL     1       2.407   5.670  19.957  0.00  0.00    +0.000 A 
ATOM      4  C   UNL     1       1.562   5.016  20.798  0.00  0.00    +0.000 A 
ATOM      5  N   UNL     1       2.007   3.711  20.871  0.00  0.00    +0.000 N 
ATOM      6  C   UNL     1       1.381   2.659  21.673  0.00  0.00    +0.000 C 
ATOM      7  C   UNL     1       3.107   3.534  20.088  0.00  0.00    +0.000 A 
BRANCH   7   8
ATOM      8  C   UNL     1       3.831   2.336  19.903  0.00  0.00    +0.000 C 
ATOM      9  N   UNL     1       4.978   2.049  20.445  0.00  0.00    +0.000 NA
BRANCH   9  10
ATOM     10  O   UNL     1       5.346   0.754  20.057  0.00  0.00    +0.000 OA
ATOM     11  H   UNL     1       5.725   0.885  19.164  0.00  0.00    +0.000 HD
ENDBRANCH   9  10
ENDBRANCH   7   8
ENDBRANCH   1   2
BRANCH   1  12
ATOM     12  O   UNL     1       5.647   5.115  19.221  0.00  0.00    +0.000 OA
BRANCH  12  14
ATOM     13  C   UNL     1       7.986   5.713  19.315  0.00  0.00    +0.000 C 
ATOM     14  C   UNL     1       6.800   5.372  18.405  0.00  0.00    +0.000 C 
BRANCH  14  15
ATOM     15  C   UNL     1       6.569   6.406  17.280  0.00  0.00    +0.000 C 
ATOM     16  C   UNL     1       7.610   7.527  17.285  0.00  0.00    +0.000 C 
BRANCH  15  17
ATOM     17  S   UNL     1       6.477   5.633  15.646  0.00  0.00    +0.000 S 
ATOM     18  C   UNL     1       6.186   3.898  15.925  0.00  0.00    +0.000 C 
ATOM     19  O   UNL     1       5.322   6.180  14.956  0.00  0.00    +0.000 OA
ATOM     20  O   UNL     1       7.787   5.766  15.031  0.00  0.00    +0.000 OA
ENDBRANCH  15  17
ENDBRANCH  14  15
ENDBRANCH  12  14
ENDBRANCH   1  12
TORSDOF 7
ENDMDL
MODEL 2
REMARK VINA RESULT:      -6.5      1.548      2.684
REMARK  Name = 
REMARK  11 active torsions:
REMARK  status: ('A' for Active; 'I' for Inactive)
REMARK    1  A    between atoms: C_1  and  C_2
REMARK    2  A    between atoms: C_2  and  O_3
REMARK    3  A    between atoms: C_2  and  C_14
REMARK    4  A    between atoms: O_3  and  C_4
REMARK    5  A    between atoms: C_4  and  N_5
REMARK    6  A    between atoms: N_8  and  C_9
REMARK    7  A    between atoms: C_10  and  C_11
REMARK    8  A    between atoms: N_12  and  O_13
REMARK    9  A    between atoms: C_14  and  C_15
REMARK   10  A    between atoms: C_14  and  S_16
REMARK   11  A    between atoms: S_16  and  C_17
REMARK                            x       y       z     vdW  Elec       q    Type
REMARK                         _______ _______ _______ _____ _____    ______ ____
ROOT
ATOM      1  C   UNL     1       5.178   4.850  19.505  0.00  0.00    +0.000 C 
ENDROOT
BRANCH   1   2
ATOM      2  N   UNL     1       4.013   3.993  19.328  0.00  0.00    +0.000 N 
ATOM      3  C   UNL     1       4.073   2.753  18.713  0.00  0.00    +0.000 A 
ATOM      4  C   UNL     1       2.832   2.204  18.799  0.00  0.00    +0.000 A 
ATOM      5  N   UNL     1       2.044   3.112  19.476  0.00  0.00    +0.000 N 
ATOM      6  C   UNL     1       0.627   2.918  19.788  0.00  0.00    +0.000 C 
ATOM      7  C   UNL     1       2.766   4.214  19.821  0.00  0.00    +0.000 A 
BRANCH   7   8
ATOM      8  C   UNL     1       2.302   5.345  20.527  0.00  0.00    +0.000 C 
ATOM      9  N   UNL     1       2.144   6.538  20.033  0.00  0.00    +0.000 NA
BRANCH   9  10
ATOM     10  O   UNL     1       1.622   7.371  21.032  0.00  0.00    +0.000 OA
ATOM     11  H   UNL     1       1.548   8.239  20.586  0.00  0.00    +0.000 HD
ENDBRANCH   9  10
ENDBRANCH   7   8
ENDBRANCH   1   2
BRANCH   1  12
ATOM     12  O   UNL     1       6.305   4.222  18.922  0.00  0.00    +0.000 OA
BRANCH  12  14
ATOM     13  C   UNL     1       8.210   5.656  19.314  0.00  0.00    +0.000 C 
ATOM     14  C   UNL     1       7.257   5.072  18.264  0.00  0.00    +0.000 C 
BRANCH  14  15
ATOM     15  C   UNL     1       6.629   6.140  17.340  0.00  0.00    +0.000 C 
ATOM     16  C   UNL     1       7.393   7.466  17.365  0.00  0.00    +0.000 C 
BRANCH  15  17
ATOM     17  S   UNL     1       6.437   5.550  15.640  0.00  0.00    +0.000 S 
ATOM     18  C   UNL     1       5.890   3.858  15.753  0.00  0.00    +0.000 C 
ATOM     19  O   UNL     1       5.382   6.325  15.013  0.00  0.00    +0.000 OA
ATOM     20  O   UNL     1       7.758   5.545  15.034  0.00  0.00    +0.000 OA
ENDBRANCH  15  17
ENDBRANCH  14  15
ENDBRANCH  12  14
ENDBRANCH   1  12
TORSDOF 7
ENDMDL
MODEL 3
REMARK VINA RESULT:      -6.4      1.030      1.172
REMARK  Name = 
REMARK  11 active torsions:
REMARK  status: ('A' for Active; 'I' for Inactive)
REMARK    1  A    between atoms: C_1  and  C_2
REMARK    2  A    between atoms: C_2  and  O_3
REMARK    3  A    between atoms: C_2  and  C_14
REMARK    4  A    between atoms: O_3  and  C_4
REMARK    5  A    between atoms: C_4  and  N_5
REMARK    6  A    between atoms: N_8  and  C_9
REMARK    7  A    between atoms: C_10  and  C_11
REMARK    8  A    between atoms: N_12  and  O_13
REMARK    9  A    between atoms: C_14  and  C_15
REMARK   10  A    between atoms: C_14  and  S_16
REMARK   11  A    between atoms: S_16  and  C_17
REMARK                            x       y       z     vdW  Elec       q    Type
REMARK                         _______ _______ _______ _____ _____    ______ ____
ROOT
ATOM      1  C   UNL     1       4.511   5.328  18.683  0.00  0.00    +0.000 C 
ENDROOT
BRANCH   1   2
ATOM      2  N   UNL     1       3.431   4.949  19.585  0.00  0.00    +0.000 N 
ATOM      3  C   UNL     1       2.522   5.858  20.100  0.00  0.00    +0.000 A 
ATOM      4  C   UNL     1       1.616   5.150  20.825  0.00  0.00    +0.000 A 
ATOM      5  N   UNL     1       1.982   3.822  20.728  0.00  0.00    +0.000 N 
ATOM      6  C   UNL     1       1.271   2.713  21.364  0.00  0.00    +0.000 C 
ATOM      7  C   UNL     1       3.093   3.685  19.952  0.00  0.00    +0.000 A 
BRANCH   7   8
ATOM      8  C   UNL     1       3.751   2.481  19.620  0.00  0.00    +0.000 C 
ATOM      9  N   UNL     1       3.511   1.747  18.573  0.00  0.00    +0.000 NA
BRANCH   9  10
ATOM     10  O   UNL     1       4.400   0.663  18.573  0.00  0.00    +0.000 OA
ATOM     11  H   UNL     1       3.904  -0.035  18.099  0.00  0.00    +0.000 HD
ENDBRANCH   9  10
ENDBRANCH   7   8
ENDBRANCH   1   2
BRANCH   1  12
ATOM     12  O   UNL     1       5.740   4.879  19.222  0.00  0.00    +0.000 OA
BRANCH  12  14
ATOM     13  C   UNL     1       7.966   5.797  19.424  0.00  0.00    +0.000 C 
ATOM     14  C   UNL     1       6.929   5.183  18.476  0.00  0.00    +0.000 C 
BRANCH  14  15
ATOM     15  C   UNL     1       6.687   6.022  17.201  0.00  0.00    +0.000 C 
ATOM     16  C   UNL     1       7.570   7.270  17.138  0.00  0.00    +0.000 C 
BRANCH  15  17
ATOM     17  S   UNL     1       6.864   5.043  15.690  0.00  0.00    +0.000 S 
ATOM     18  C   UNL     1       5.281   5.083  14.875  0.00  0.00    +0.000 C 
ATOM     19  O   UNL     1       7.830   5.708  14.835  0.00  0.00    +0.000 OA
ATOM     20  O   UNL     1       7.116   3.670  16.093  0.00  0.00    +0.000 OA
ENDBRANCH  15  17
ENDBRANCH  14  15
ENDBRANCH  12  14
ENDBRANCH   1  12
TORSDOF 7
ENDMDL
MODEL 4
REMARK VINA RESULT:      -6.3      3.147      5.766
REMARK  Name = 
REMARK  11 active torsions:
REMARK  status: ('A' for Active; 'I' for Inactive)
REMARK    1  A    between atoms: C_1  and  C_2
REMARK    2  A    between atoms: C_2  and  O_3
REMARK    3  A    between atoms: C_2  and  C_14
REMARK    4  A    between atoms: O_3  and  C_4
REMARK    5  A    between atoms: C_4  and  N_5
REMARK    6  A    between atoms: N_8  and  C_9
REMARK    7  A    between atoms: C_10  and  C_11
REMARK    8  A    between atoms: N_12  and  O_13
REMARK    9  A    between atoms: C_14  and  C_15
REMARK   10  A    between atoms: C_14  and  S_16
REMARK   11  A    between atoms: S_16  and  C_17
REMARK                            x       y       z     vdW  Elec       q    Type
REMARK                         _______ _______ _______ _____ _____    ______ ____
ROOT
ATOM      1  C   UNL     1       5.153   3.899  18.428  0.00  0.00    +0.000 C 
ENDROOT
BRANCH   1   2
ATOM      2  N   UNL     1       5.599   5.146  17.820  0.00  0.00    +0.000 N 
ATOM      3  C   UNL     1       4.869   5.821  16.856  0.00  0.00    +0.000 A 
ATOM      4  C   UNL     1       5.538   6.973  16.583  0.00  0.00    +0.000 A 
ATOM      5  N   UNL     1       6.655   6.984  17.394  0.00  0.00    +0.000 N 
ATOM      6  C   UNL     1       7.657   8.051  17.419  0.00  0.00    +0.000 C 
ATOM      7  C   UNL     1       6.695   5.868  18.173  0.00  0.00    +0.000 A 
BRANCH   7   8
ATOM      8  C   UNL     1       7.680   5.537  19.129  0.00  0.00    +0.000 C 
ATOM      9  N   UNL     1       7.482   5.397  20.407  0.00  0.00    +0.000 NA
BRANCH   9  10
ATOM     10  O   UNL     1       8.691   5.022  21.009  0.00  0.00    +0.000 OA
ATOM     11  H   UNL     1       9.001   4.282  20.449  0.00  0.00    +0.000 HD
ENDBRANCH   9  10
ENDBRANCH   7   8
ENDBRANCH   1   2
BRANCH   1  12
ATOM     12  O   UNL     1       3.968   4.145  19.163  0.00  0.00    +0.000 OA
BRANCH  12  14
ATOM     13  C   UNL     1       4.631   2.036  20.138  0.00  0.00    +0.000 C 
ATOM     14  C   UNL     1       3.608   3.178  20.162  0.00  0.00    +0.000 C 
BRANCH  14  15
ATOM     15  C   UNL     1       2.143   2.694  20.084  0.00  0.00    +0.000 C 
ATOM     16  C   UNL     1       1.198   3.526  20.954  0.00  0.00    +0.000 C 
BRANCH  15  17
ATOM     17  S   UNL     1       1.535   2.618  18.381  0.00  0.00    +0.000 S 
ATOM     18  C   UNL     1       1.467   4.299  17.795  0.00  0.00    +0.000 C 
ATOM     19  O   UNL     1       2.516   1.901  17.586  0.00  0.00    +0.000 OA
ATOM     20  O   UNL     1       0.173   2.114  18.431  0.00  0.00    +0.000 OA
ENDBRANCH  15  17
ENDBRANCH  14  15
ENDBRANCH  12  14
ENDBRANCH   1  12
TORSDOF 7
ENDMDL
MODEL 5
REMARK VINA RESULT:      -6.3      3.139      5.788
REMARK  Name = 
REMARK  11 active torsions:
REMARK  status: ('A' for Active; 'I' for Inactive)
REMARK    1  A    between atoms: C_1  and  C_2
REMARK    2  A    between atoms: C_2  and  O_3
REMARK    3  A    between atoms: C_2  and  C_14
REMARK    4  A    between atoms: O_3  and  C_4
REMARK    5  A    between atoms: C_4  and  N_5
REMARK    6  A    between atoms: N_8  and  C_9
REMARK    7  A    between atoms: C_10  and  C_11
REMARK    8  A    between atoms: N_12  and  O_13
REMARK    9  A    between atoms: C_14  and  C_15
REMARK   10  A    between atoms: C_14  and  S_16
REMARK   11  A    between atoms: S_16  and  C_17
REMARK                            x       y       z     vdW  Elec       q    Type
REMARK                         _______ _______ _______ _____ _____    ______ ____
ROOT
ATOM      1  C   UNL     1       4.990   4.103  18.700  0.00  0.00    +0.000 C 
ENDROOT
BRANCH   1   2
ATOM      2  N   UNL     1       5.469   5.309  18.037  0.00  0.00    +0.000 N 
ATOM      3  C   UNL     1       4.708   6.025  17.128  0.00  0.00    +0.000 A 
ATOM      4  C   UNL     1       5.430   7.125  16.782  0.00  0.00    +0.000 A 
ATOM      5  N   UNL     1       6.610   7.065  17.495  0.00  0.00    +0.000 N 
ATOM      6  C   UNL     1       7.681   8.058  17.421  0.00  0.00    +0.000 C 
ATOM      7  C   UNL     1       6.638   5.956  18.286  0.00  0.00    +0.000 A 
BRANCH   7   8
ATOM      8  C   UNL     1       7.675   5.566  19.161  0.00  0.00    +0.000 C 
ATOM      9  N   UNL     1       7.567   5.417  20.449  0.00  0.00    +0.000 NA
BRANCH   9  10
ATOM     10  O   UNL     1       8.799   4.977  20.953  0.00  0.00    +0.000 OA
ATOM     11  H   UNL     1       9.199   4.509  20.193  0.00  0.00    +0.000 HD
ENDBRANCH   9  10
ENDBRANCH   7   8
ENDBRANCH   1   2
BRANCH   1  12
ATOM     12  O   UNL     1       4.343   4.467  19.906  0.00  0.00    +0.000 OA
BRANCH  12  14
ATOM     13  C   UNL     1       2.395   5.311  21.058  0.00  0.00    +0.000 C 
ATOM     14  C   UNL     1       2.908   4.431  19.912  0.00  0.00    +0.000 C 
BRANCH  14  15
ATOM     15  C   UNL     1       2.304   3.009  19.909  0.00  0.00    +0.000 C 
ATOM     16  C   UNL     1       1.305   2.789  21.047  0.00  0.00    +0.000 C 
BRANCH  15  17
ATOM     17  S   UNL     1       1.555   2.585  18.317  0.00  0.00    +0.000 S 
ATOM     18  C   UNL     1       1.393   4.112  17.414  0.00  0.00    +0.000 C 
ATOM     19  O   UNL     1       2.484   1.732  17.598  0.00  0.00    +0.000 OA
ATOM     20  O   UNL     1       0.216   2.090  18.588  0.00  0.00    +0.000 OA
ENDBRANCH  15  17
ENDBRANCH  14  15
ENDBRANCH  12  14
ENDBRANCH   1  12
TORSDOF 7
ENDMDL
MODEL 6
REMARK VINA RESULT:      -6.3      3.178      5.973
REMARK  Name = 
REMARK  11 active torsions:
REMARK  status: ('A' for Active; 'I' for Inactive)
REMARK    1  A    between atoms: C_1  and  C_2
REMARK    2  A    between atoms: C_2  and  O_3
REMARK    3  A    between atoms: C_2  and  C_14
REMARK    4  A    between atoms: O_3  and  C_4
REMARK    5  A    between atoms: C_4  and  N_5
REMARK    6  A    between atoms: N_8  and  C_9
REMARK    7  A    between atoms: C_10  and  C_11
REMARK    8  A    between atoms: N_12  and  O_13
REMARK    9  A    between atoms: C_14  and  C_15
REMARK   10  A    between atoms: C_14  and  S_16
REMARK   11  A    between atoms: S_16  and  C_17
REMARK                            x       y       z     vdW  Elec       q    Type
REMARK                         _______ _______ _______ _____ _____    ______ ____
ROOT
ATOM      1  C   UNL     1       4.908   3.842  17.895  0.00  0.00    +0.000 C 
ENDROOT
BRANCH   1   2
ATOM      2  N   UNL     1       5.560   5.047  17.399  0.00  0.00    +0.000 N 
ATOM      3  C   UNL     1       5.270   5.610  16.167  0.00  0.00    +0.000 A 
ATOM      4  C   UNL     1       5.993   6.758  16.073  0.00  0.00    +0.000 A 
ATOM      5  N   UNL     1       6.699   6.879  17.253  0.00  0.00    +0.000 N 
ATOM      6  C   UNL     1       7.608   7.980  17.571  0.00  0.00    +0.000 C 
ATOM      7  C   UNL     1       6.427   5.836  18.086  0.00  0.00    +0.000 A 
BRANCH   7   8
ATOM      8  C   UNL     1       6.953   5.625  19.379  0.00  0.00    +0.000 C 
ATOM      9  N   UNL     1       8.159   5.222  19.652  0.00  0.00    +0.000 NA
BRANCH   9  10
ATOM     10  O   UNL     1       8.313   5.181  21.044  0.00  0.00    +0.000 OA
ATOM     11  H   UNL     1       7.729   4.443  21.313  0.00  0.00    +0.000 HD
ENDBRANCH   9  10
ENDBRANCH   7   8
ENDBRANCH   1   2
BRANCH   1  12
ATOM     12  O   UNL     1       3.614   3.752  17.329  0.00  0.00    +0.000 OA
BRANCH  12  14
ATOM     13  C   UNL     1       1.370   4.598  17.619  0.00  0.00    +0.000 C 
ATOM     14  C   UNL     1       2.502   3.769  18.237  0.00  0.00    +0.000 C 
BRANCH  14  15
ATOM     15  C   UNL     1       2.861   4.195  19.678  0.00  0.00    +0.000 C 
ATOM     16  C   UNL     1       2.143   5.474  20.113  0.00  0.00    +0.000 C 
BRANCH  15  17
ATOM     17  S   UNL     1       2.575   2.869  20.877  0.00  0.00    +0.000 S 
ATOM     18  C   UNL     1       4.094   1.943  20.975  0.00  0.00    +0.000 C 
ATOM     19  O   UNL     1       2.333   3.479  22.172  0.00  0.00    +0.000 OA
ATOM     20  O   UNL     1       1.562   1.992  20.316  0.00  0.00    +0.000 OA
ENDBRANCH  15  17
ENDBRANCH  14  15
ENDBRANCH  12  14
ENDBRANCH   1  12
TORSDOF 7
ENDMDL
MODEL 7
REMARK VINA RESULT:      -6.3      1.436      1.901
REMARK  Name = 
REMARK  11 active torsions:
REMARK  status: ('A' for Active; 'I' for Inactive)
REMARK    1  A    between atoms: C_1  and  C_2
REMARK    2  A    between atoms: C_2  and  O_3
REMARK    3  A    between atoms: C_2  and  C_14
REMARK    4  A    between atoms: O_3  and  C_4
REMARK    5  A    between atoms: C_4  and  N_5
REMARK    6  A    between atoms: N_8  and  C_9
REMARK    7  A    between atoms: C_10  and  C_11
REMARK    8  A    between atoms: N_12  and  O_13
REMARK    9  A    between atoms: C_14  and  C_15
REMARK   10  A    between atoms: C_14  and  S_16
REMARK   11  A    between atoms: S_16  and  C_17
REMARK                            x       y       z     vdW  Elec       q    Type
REMARK                         _______ _______ _______ _____ _____    ______ ____
ROOT
ATOM      1  C   UNL     1       4.467   5.697  19.253  0.00  0.00    +0.000 C 
ENDROOT
BRANCH   1   2
ATOM      2  N   UNL     1       3.289   4.897  18.941  0.00  0.00    +0.000 N 
ATOM      3  C   UNL     1       2.335   5.284  18.015  0.00  0.00    +0.000 A 
ATOM      4  C   UNL     1       1.436   4.268  17.919  0.00  0.00    +0.000 A 
ATOM      5  N   UNL     1       1.867   3.276  18.777  0.00  0.00    +0.000 N 
ATOM      6  C   UNL     1       1.185   1.998  18.984  0.00  0.00    +0.000 C 
ATOM      7  C   UNL     1       3.019   3.647  19.403  0.00  0.00    +0.000 A 
BRANCH   7   8
ATOM      8  C   UNL     1       3.755   2.891  20.339  0.00  0.00    +0.000 C 
ATOM      9  N   UNL     1       4.757   2.108  20.065  0.00  0.00    +0.000 NA
BRANCH   9  10
ATOM     10  O   UNL     1       5.250   1.574  21.263  0.00  0.00    +0.000 OA
ATOM     11  H   UNL     1       5.123   2.304  21.904  0.00  0.00    +0.000 HD
ENDBRANCH   9  10
ENDBRANCH   7   8
ENDBRANCH   1   2
BRANCH   1  12
ATOM     12  O   UNL     1       5.147   6.003  18.049  0.00  0.00    +0.000 OA
BRANCH  12  14
ATOM     13  C   UNL     1       7.511   6.412  17.763  0.00  0.00    +0.000 C 
ATOM     14  C   UNL     1       6.407   5.350  17.829  0.00  0.00    +0.000 C 
BRANCH  14  15
ATOM     15  C   UNL     1       6.419   4.373  16.632  0.00  0.00    +0.000 C 
ATOM     16  C   UNL     1       5.261   3.375  16.671  0.00  0.00    +0.000 C 
BRANCH  15  17
ATOM     17  S   UNL     1       6.459   5.237  15.042  0.00  0.00    +0.000 S 
ATOM     18  C   UNL     1       5.895   4.069  13.820  0.00  0.00    +0.000 C 
ATOM     19  O   UNL     1       5.503   6.328  15.100  0.00  0.00    +0.000 OA
ATOM     20  O   UNL     1       7.850   5.540  14.750  0.00  0.00    +0.000 OA
ENDBRANCH  15  17
ENDBRANCH  14  15
ENDBRANCH  12  14
ENDBRANCH   1  12
TORSDOF 7
ENDMDL
MODEL 8
REMARK VINA RESULT:      -6.2      1.552      2.345
REMARK  Name = 
REMARK  11 active torsions:
REMARK  status: ('A' for Active; 'I' for Inactive)
REMARK    1  A    between atoms: C_1  and  C_2
REMARK    2  A    between atoms: C_2  and  O_3
REMARK    3  A    between atoms: C_2  and  C_14
REMARK    4  A    between atoms: O_3  and  C_4
REMARK    5  A    between atoms: C_4  and  N_5
REMARK    6  A    between atoms: N_8  and  C_9
REMARK    7  A    between atoms: C_10  and  C_11
REMARK    8  A    between atoms: N_12  and  O_13
REMARK    9  A    between atoms: C_14  and  C_15
REMARK   10  A    between atoms: C_14  and  S_16
REMARK   11  A    between atoms: S_16  and  C_17
REMARK                            x       y       z     vdW  Elec       q    Type
REMARK                         _______ _______ _______ _____ _____    ______ ____
ROOT
ATOM      1  C   UNL     1       3.158   5.058  17.601  0.00  0.00    +0.000 C 
ENDROOT
BRANCH   1   2
ATOM      2  N   UNL     1       2.663   4.758  18.938  0.00  0.00    +0.000 N 
ATOM      3  C   UNL     1       2.142   5.721  19.786  0.00  0.00    +0.000 A 
ATOM      4  C   UNL     1       1.704   5.077  20.900  0.00  0.00    +0.000 A 
ATOM      5  N   UNL     1       1.954   3.733  20.706  0.00  0.00    +0.000 N 
ATOM      6  C   UNL     1       1.636   2.678  21.668  0.00  0.00    +0.000 C 
ATOM      7  C   UNL     1       2.532   3.523  19.491  0.00  0.00    +0.000 A 
BRANCH   7   8
ATOM      8  C   UNL     1       2.921   2.282  18.942  0.00  0.00    +0.000 C 
ATOM      9  N   UNL     1       4.064   1.690  19.135  0.00  0.00    +0.000 NA
BRANCH   9  10
ATOM     10  O   UNL     1       4.050   0.461  18.462  0.00  0.00    +0.000 OA
ATOM     11  H   UNL     1       3.709   0.694  17.574  0.00  0.00    +0.000 HD
ENDBRANCH   9  10
ENDBRANCH   7   8
ENDBRANCH   1   2
BRANCH   1  12
ATOM     12  O   UNL     1       4.364   5.792  17.711  0.00  0.00    +0.000 OA
BRANCH  12  14
ATOM     13  C   UNL     1       5.084   4.367  15.897  0.00  0.00    +0.000 C 
ATOM     14  C   UNL     1       5.278   5.712  16.607  0.00  0.00    +0.000 C 
BRANCH  14  15
ATOM     15  C   UNL     1       6.750   6.008  16.973  0.00  0.00    +0.000 C 
ATOM     16  C   UNL     1       6.978   7.467  17.375  0.00  0.00    +0.000 C 
BRANCH  15  17
ATOM     17  S   UNL     1       7.376   4.892  18.253  0.00  0.00    +0.000 S 
ATOM     18  C   UNL     1       8.176   5.919  19.469  0.00  0.00    +0.000 C 
ATOM     19  O   UNL     1       6.238   4.248  18.883  0.00  0.00    +0.000 OA
ATOM     20  O   UNL     1       8.398   4.062  17.639  0.00  0.00    +0.000 OA
ENDBRANCH  15  17
ENDBRANCH  14  15
ENDBRANCH  12  14
ENDBRANCH   1  12
TORSDOF 7
ENDMDL
MODEL 9
REMARK VINA RESULT:      -6.2      3.157      5.694
REMARK  Name = 
REMARK  11 active torsions:
REMARK  status: ('A' for Active; 'I' for Inactive)
REMARK    1  A    between atoms: C_1  and  C_2
REMARK    2  A    between atoms: C_2  and  O_3
REMARK    3  A    between atoms: C_2  and  C_14
REMARK    4  A    between atoms: O_3  and  C_4
REMARK    5  A    between atoms: C_4  and  N_5
REMARK    6  A    between atoms: N_8  and  C_9
REMARK    7  A    between atoms: C_10  and  C_11
REMARK    8  A    between atoms: N_12  and  O_13
REMARK    9  A    between atoms: C_14  and  C_15
REMARK   10  A    between atoms: C_14  and  S_16
REMARK   11  A    between atoms: S_16  and  C_17
REMARK                            x       y       z     vdW  Elec       q    Type
REMARK                         _______ _______ _______ _____ _____    ______ ____
ROOT
ATOM      1  C   UNL     1       5.236   4.069  18.224  0.00  0.00    +0.000 C 
ENDROOT
BRANCH   1   2
ATOM      2  N   UNL     1       5.739   5.336  17.710  0.00  0.00    +0.000 N 
ATOM      3  C   UNL     1       5.072   6.081  16.752  0.00  0.00    +0.000 A 
ATOM      4  C   UNL     1       5.778   7.230  16.577  0.00  0.00    +0.000 A 
ATOM      5  N   UNL     1       6.854   7.169  17.440  0.00  0.00    +0.000 N 
ATOM      6  C   UNL     1       7.875   8.208  17.574  0.00  0.00    +0.000 C 
ATOM      7  C   UNL     1       6.831   6.010  18.156  0.00  0.00    +0.000 A 
BRANCH   7   8
ATOM      8  C   UNL     1       7.760   5.603  19.138  0.00  0.00    +0.000 C 
ATOM      9  N   UNL     1       7.520   5.492  20.411  0.00  0.00    +0.000 NA
BRANCH   9  10
ATOM     10  O   UNL     1       8.677   5.018  21.045  0.00  0.00    +0.000 OA
ATOM     11  H   UNL     1       9.295   4.866  20.301  0.00  0.00    +0.000 HD
ENDBRANCH   9  10
ENDBRANCH   7   8
ENDBRANCH   1   2
BRANCH   1  12
ATOM     12  O   UNL     1       4.520   4.310  19.422  0.00  0.00    +0.000 OA
BRANCH  12  14
ATOM     13  C   UNL     1       3.058   6.149  19.985  0.00  0.00    +0.000 C 
ATOM     14  C   UNL     1       3.172   4.787  19.291  0.00  0.00    +0.000 C 
BRANCH  14  15
ATOM     15  C   UNL     1       2.091   3.776  19.736  0.00  0.00    +0.000 C 
ATOM     16  C   UNL     1       1.003   4.417  20.599  0.00  0.00    +0.000 C 
BRANCH  15  17
ATOM     17  S   UNL     1       1.355   2.898  18.335  0.00  0.00    +0.000 S 
ATOM     18  C   UNL     1       2.607   1.789  17.722  0.00  0.00    +0.000 C 
ATOM     19  O   UNL     1       0.250   2.100  18.836  0.00  0.00    +0.000 OA
ATOM     20  O   UNL     1       1.093   3.882  17.298  0.00  0.00    +0.000 OA
ENDBRANCH  15  17
ENDBRANCH  14  15
ENDBRANCH  12  14
ENDBRANCH   1  12
TORSDOF 7
ENDMDL
