MODEL 1
REMARK VINA RESULT:      -7.6      0.000      0.000
REMARK  Name = 
REMARK  4 active torsions:
REMARK  status: ('A' for Active; 'I' for Inactive)
REMARK    1  A    between atoms: C_1  and  C_2
REMARK    2  A    between atoms: C_4  and  N_5
REMARK    3  A    between atoms: C_6  and  C_7
REMARK    4  A    between atoms: C_14  and  O_15
REMARK                            x       y       z     vdW  Elec       q    Type
REMARK                         _______ _______ _______ _____ _____    ______ ____
ROOT
ATOM      1  C   UNL     1       1.742   7.668  20.468  0.00  0.00    +0.000 C 
ATOM      2  C   UNL     1       2.009   6.267  20.015  0.00  0.00    +0.000 A 
ATOM      3  C   UNL     1       1.405   5.175  20.658  0.00  0.00    +0.000 A 
ATOM      4  C   UNL     1       1.613   3.846  20.269  0.00  0.00    +0.000 A 
ATOM      5  C   UNL     1       2.487   3.555  19.194  0.00  0.00    +0.000 A 
ATOM      6  C   UNL     1       2.750   2.140  18.751  0.00  0.00    +0.000 C 
ATOM      7  C   UNL     1       3.116   4.646  18.522  0.00  0.00    +0.000 A 
ATOM      8  C   UNL     1       2.864   5.951  18.942  0.00  0.00    +0.000 A 
ATOM      9  N   UNL     1       3.590   6.793  18.134  0.00  0.00    +0.000 N 
ATOM     10  C   UNL     1       4.307   6.092  17.195  0.00  0.00    +0.000 A 
ATOM     11  C   UNL     1       5.166   6.552  16.188  0.00  0.00    +0.000 A 
ATOM     12  C   UNL     1       5.772   5.600  15.363  0.00  0.00    +0.000 A 
ATOM     13  C   UNL     1       5.518   4.248  15.553  0.00  0.00    +0.000 A 
ATOM     14  C   UNL     1       4.663   3.803  16.560  0.00  0.00    +0.000 A 
ATOM     15  C   UNL     1       4.034   4.743  17.409  0.00  0.00    +0.000 A 
ATOM     16  H   UNL     1       3.595   7.797  18.217  0.00  0.00    +0.000 HD
ENDROOT
BRANCH   4  17
ATOM     17  N   UNL     1       1.001   2.849  21.023  0.00  0.00    +0.000 N 
ATOM     18  H   UNL     1       0.989   1.895  20.687  0.00  0.00    +0.000 HD
ATOM     19  H   UNL     1       0.725   3.004  21.979  0.00  0.00    +0.000 HD
ENDBRANCH   4  17
BRANCH  13  20
ATOM     20  O   UNL     1       6.099   3.299  14.760  0.00  0.00    +0.000 OA
ATOM     21  H   UNL     1       6.906   2.983  15.196  0.00  0.00    +0.000 HD
ENDBRANCH  13  20
TORSDOF 2
ENDMDL
MODEL 2
REMARK VINA RESULT:      -7.2      2.724      3.987
REMARK  Name = 
REMARK  4 active torsions:
REMARK  status: ('A' for Active; 'I' for Inactive)
REMARK    1  A    between atoms: C_1  and  C_2
REMARK    2  A    between atoms: C_4  and  N_5
REMARK    3  A    between atoms: C_6  and  C_7
REMARK    4  A    between atoms: C_14  and  O_15
REMARK                            x       y       z     vdW  Elec       q    Type
REMARK                         _______ _______ _______ _____ _____    ______ ____
ROOT
ATOM      1  C   UNL     1       7.984   6.701  18.585  0.00  0.00    +0.000 C 
ATOM      2  C   UNL     1       6.852   5.845  18.108  0.00  0.00    +0.000 A 
ATOM      3  C   UNL     1       5.831   5.446  18.984  0.00  0.00    +0.000 A 
ATOM      4  C   UNL     1       4.747   4.654  18.587  0.00  0.00    +0.000 A 
ATOM      5  C   UNL     1       4.658   4.200  17.249  0.00  0.00    +0.000 A 
ATOM      6  C   UNL     1       3.516   3.336  16.783  0.00  0.00    +0.000 C 
ATOM      7  C   UNL     1       5.683   4.590  16.336  0.00  0.00    +0.000 A 
ATOM      8  C   UNL     1       6.734   5.390  16.780  0.00  0.00    +0.000 A 
ATOM      9  N   UNL     1       7.568   5.611  15.710  0.00  0.00    +0.000 N 
ATOM     10  C   UNL     1       7.103   4.990  14.577  0.00  0.00    +0.000 A 
ATOM     11  C   UNL     1       7.637   4.959  13.282  0.00  0.00    +0.000 A 
ATOM     12  C   UNL     1       6.943   4.237  12.306  0.00  0.00    +0.000 A 
ATOM     13  C   UNL     1       5.763   3.580  12.632  0.00  0.00    +0.000 A 
ATOM     14  C   UNL     1       5.242   3.617  13.925  0.00  0.00    +0.000 A 
ATOM     15  C   UNL     1       5.923   4.341  14.931  0.00  0.00    +0.000 A 
ATOM     16  H   UNL     1       8.412   6.159  15.750  0.00  0.00    +0.000 HD
ENDROOT
BRANCH   4  17
ATOM     17  N   UNL     1       3.830   4.277  19.564  0.00  0.00    +0.000 N 
ATOM     18  H   UNL     1       4.078   4.341  20.543  0.00  0.00    +0.000 HD
ATOM     19  H   UNL     1       2.861   4.113  19.344  0.00  0.00    +0.000 HD
ENDBRANCH   4  17
BRANCH  13  20
ATOM     20  O   UNL     1       5.066   2.868  11.698  0.00  0.00    +0.000 OA
ATOM     21  H   UNL     1       4.195   3.279  11.580  0.00  0.00    +0.000 HD
ENDBRANCH  13  20
TORSDOF 2
ENDMDL
MODEL 3
REMARK VINA RESULT:      -7.2      2.862      4.798
REMARK  Name = 
REMARK  4 active torsions:
REMARK  status: ('A' for Active; 'I' for Inactive)
REMARK    1  A    between atoms: C_1  and  C_2
REMARK    2  A    between atoms: C_4  and  N_5
REMARK    3  A    between atoms: C_6  and  C_7
REMARK    4  A    between atoms: C_14  and  O_15
REMARK                            x       y       z     vdW  Elec       q    Type
REMARK                         _______ _______ _______ _____ _____    ______ ____
ROOT
ATOM      1  C   UNL     1       2.192   3.516  21.704  0.00  0.00    +0.000 C 
ATOM      2  C   UNL     1       2.737   4.146  20.459  0.00  0.00    +0.000 A 
ATOM      3  C   UNL     1       3.573   3.423  19.593  0.00  0.00    +0.000 A 
ATOM      4  C   UNL     1       4.100   3.961  18.413  0.00  0.00    +0.000 A 
ATOM      5  C   UNL     1       3.814   5.302  18.059  0.00  0.00    +0.000 A 
ATOM      6  C   UNL     1       4.372   5.924  16.807  0.00  0.00    +0.000 C 
ATOM      7  C   UNL     1       2.967   6.060  18.923  0.00  0.00    +0.000 A 
ATOM      8  C   UNL     1       2.458   5.472  20.079  0.00  0.00    +0.000 A 
ATOM      9  N   UNL     1       1.686   6.413  20.717  0.00  0.00    +0.000 N 
ATOM     10  C   UNL     1       1.664   7.598  20.021  0.00  0.00    +0.000 A 
ATOM     11  C   UNL     1       1.008   8.802  20.311  0.00  0.00    +0.000 A 
ATOM     12  C   UNL     1       1.164   9.863  19.413  0.00  0.00    +0.000 A 
ATOM     13  C   UNL     1       1.948   9.706  18.278  0.00  0.00    +0.000 A 
ATOM     14  C   UNL     1       2.598   8.503  18.001  0.00  0.00    +0.000 A 
ATOM     15  C   UNL     1       2.457   7.413  18.891  0.00  0.00    +0.000 A 
ATOM     16  H   UNL     1       1.197   6.256  21.583  0.00  0.00    +0.000 HD
ENDROOT
BRANCH   4  17
ATOM     17  N   UNL     1       4.963   3.162  17.669  0.00  0.00    +0.000 N 
ATOM     18  H   UNL     1       5.411   2.364  18.098  0.00  0.00    +0.000 HD
ATOM     19  H   UNL     1       5.022   3.239  16.666  0.00  0.00    +0.000 HD
ENDBRANCH   4  17
BRANCH  13  20
ATOM     20  O   UNL     1       2.117  10.727  17.386  0.00  0.00    +0.000 OA
ATOM     21  H   UNL     1       3.050  10.997  17.397  0.00  0.00    +0.000 HD
ENDBRANCH  13  20
TORSDOF 2
ENDMDL
MODEL 4
REMARK VINA RESULT:      -7.0      2.841      4.977
REMARK  Name = 
REMARK  4 active torsions:
REMARK  status: ('A' for Active; 'I' for Inactive)
REMARK    1  A    between atoms: C_1  and  C_2
REMARK    2  A    between atoms: C_4  and  N_5
REMARK    3  A    between atoms: C_6  and  C_7
REMARK    4  A    between atoms: C_14  and  O_15
REMARK                            x       y       z     vdW  Elec       q    Type
REMARK                         _______ _______ _______ _____ _____    ______ ____
ROOT
ATOM      1  C   UNL     1       3.389   2.939  20.601  0.00  0.00    +0.000 C 
ATOM      2  C   UNL     1       3.762   3.824  19.453  0.00  0.00    +0.000 A 
ATOM      3  C   UNL     1       4.645   3.378  18.457  0.00  0.00    +0.000 A 
ATOM      4  C   UNL     1       5.019   4.161  17.359  0.00  0.00    +0.000 A 
ATOM      5  C   UNL     1       4.517   5.478  17.229  0.00  0.00    +0.000 A 
ATOM      6  C   UNL     1       4.904   6.360  16.071  0.00  0.00    +0.000 C 
ATOM      7  C   UNL     1       3.617   5.958  18.228  0.00  0.00    +0.000 A 
ATOM      8  C   UNL     1       3.268   5.132  19.294  0.00  0.00    +0.000 A 
ATOM      9  N   UNL     1       2.402   5.836  20.097  0.00  0.00    +0.000 N 
ATOM     10  C   UNL     1       2.165   7.093  19.596  0.00  0.00    +0.000 A 
ATOM     11  C   UNL     1       1.355   8.123  20.092  0.00  0.00    +0.000 A 
ATOM     12  C   UNL     1       1.300   9.317  19.366  0.00  0.00    +0.000 A 
ATOM     13  C   UNL     1       2.033   9.456  18.195  0.00  0.00    +0.000 A 
ATOM     14  C   UNL     1       2.837   8.424  17.712  0.00  0.00    +0.000 A 
ATOM     15  C   UNL     1       2.911   7.205  18.425  0.00  0.00    +0.000 A 
ATOM     16  H   UNL     1       1.992   5.477  20.943  0.00  0.00    +0.000 HD
ENDROOT
BRANCH   4  17
ATOM     17  N   UNL     1       5.947   3.626  16.470  0.00  0.00    +0.000 N 
ATOM     18  H   UNL     1       6.011   2.625  16.346  0.00  0.00    +0.000 HD
ATOM     19  H   UNL     1       6.438   4.205  15.807  0.00  0.00    +0.000 HD
ENDBRANCH   4  17
BRANCH  13  20
ATOM     20  O   UNL     1       1.997  10.612  17.468  0.00  0.00    +0.000 OA
ATOM     21  H   UNL     1       2.163  11.359  18.065  0.00  0.00    +0.000 HD
ENDBRANCH  13  20
TORSDOF 2
ENDMDL
MODEL 5
REMARK VINA RESULT:      -6.9      2.916      5.366
REMARK  Name = 
REMARK  4 active torsions:
REMARK  status: ('A' for Active; 'I' for Inactive)
REMARK    1  A    between atoms: C_1  and  C_2
REMARK    2  A    between atoms: C_4  and  N_5
REMARK    3  A    between atoms: C_6  and  C_7
REMARK    4  A    between atoms: C_14  and  O_15
REMARK                            x       y       z     vdW  Elec       q    Type
REMARK                         _______ _______ _______ _____ _____    ______ ____
ROOT
ATOM      1  C   UNL     1       8.033   5.896  19.418  0.00  0.00    +0.000 C 
ATOM      2  C   UNL     1       7.195   5.371  18.293  0.00  0.00    +0.000 A 
ATOM      3  C   UNL     1       7.584   5.557  16.958  0.00  0.00    +0.000 A 
ATOM      4  C   UNL     1       6.843   5.078  15.871  0.00  0.00    +0.000 A 
ATOM      5  C   UNL     1       5.627   4.389  16.095  0.00  0.00    +0.000 A 
ATOM      6  C   UNL     1       4.792   3.870  14.954  0.00  0.00    +0.000 C 
ATOM      7  C   UNL     1       5.206   4.187  17.444  0.00  0.00    +0.000 A 
ATOM      8  C   UNL     1       5.989   4.672  18.490  0.00  0.00    +0.000 A 
ATOM      9  N   UNL     1       5.358   4.344  19.666  0.00  0.00    +0.000 N 
ATOM     10  C   UNL     1       4.192   3.656  19.434  0.00  0.00    +0.000 A 
ATOM     11  C   UNL     1       3.255   3.139  20.338  0.00  0.00    +0.000 A 
ATOM     12  C   UNL     1       2.142   2.473  19.814  0.00  0.00    +0.000 A 
ATOM     13  C   UNL     1       1.990   2.341  18.440  0.00  0.00    +0.000 A 
ATOM     14  C   UNL     1       2.929   2.862  17.550  0.00  0.00    +0.000 A 
ATOM     15  C   UNL     1       4.065   3.539  18.051  0.00  0.00    +0.000 A 
ATOM     16  H   UNL     1       5.705   4.576  20.582  0.00  0.00    +0.000 HD
ENDROOT
BRANCH   4  17
ATOM     17  N   UNL     1       7.305   5.378  14.592  0.00  0.00    +0.000 N 
ATOM     18  H   UNL     1       6.958   6.194  14.106  0.00  0.00    +0.000 HD
ATOM     19  H   UNL     1       8.109   4.914  14.198  0.00  0.00    +0.000 HD
ENDBRANCH   4  17
BRANCH  13  20
ATOM     20  O   UNL     1       0.912   1.696  17.904  0.00  0.00    +0.000 OA
ATOM     21  H   UNL     1       0.149   1.826  18.491  0.00  0.00    +0.000 HD
ENDBRANCH  13  20
TORSDOF 2
ENDMDL
MODEL 6
REMARK VINA RESULT:      -6.7      3.065      4.991
REMARK  Name = 
REMARK  4 active torsions:
REMARK  status: ('A' for Active; 'I' for Inactive)
REMARK    1  A    between atoms: C_1  and  C_2
REMARK    2  A    between atoms: C_4  and  N_5
REMARK    3  A    between atoms: C_6  and  C_7
REMARK    4  A    between atoms: C_14  and  O_15
REMARK                            x       y       z     vdW  Elec       q    Type
REMARK                         _______ _______ _______ _____ _____    ______ ____
ROOT
ATOM      1  C   UNL     1       5.474   5.522  15.650  0.00  0.00    +0.000 C 
ATOM      2  C   UNL     1       4.826   5.274  16.977  0.00  0.00    +0.000 A 
ATOM      3  C   UNL     1       5.061   4.083  17.682  0.00  0.00    +0.000 A 
ATOM      4  C   UNL     1       4.489   3.806  18.929  0.00  0.00    +0.000 A 
ATOM      5  C   UNL     1       3.609   4.741  19.524  0.00  0.00    +0.000 A 
ATOM      6  C   UNL     1       2.960   4.477  20.858  0.00  0.00    +0.000 C 
ATOM      7  C   UNL     1       3.351   5.961  18.829  0.00  0.00    +0.000 A 
ATOM      8  C   UNL     1       3.958   6.193  17.596  0.00  0.00    +0.000 A 
ATOM      9  N   UNL     1       3.541   7.425  17.154  0.00  0.00    +0.000 N 
ATOM     10  C   UNL     1       2.685   8.016  18.052  0.00  0.00    +0.000 A 
ATOM     11  C   UNL     1       2.037   9.257  17.998  0.00  0.00    +0.000 A 
ATOM     12  C   UNL     1       1.210   9.609  19.069  0.00  0.00    +0.000 A 
ATOM     13  C   UNL     1       1.051   8.742  20.142  0.00  0.00    +0.000 A 
ATOM     14  C   UNL     1       1.700   7.508  20.184  0.00  0.00    +0.000 A 
ATOM     15  C   UNL     1       2.543   7.127  19.115  0.00  0.00    +0.000 A 
ATOM     16  H   UNL     1       3.825   7.844  16.284  0.00  0.00    +0.000 HD
ENDROOT
BRANCH   4  17
ATOM     17  N   UNL     1       4.754   2.565  19.500  0.00  0.00    +0.000 N 
ATOM     18  H   UNL     1       5.208   2.508  20.401  0.00  0.00    +0.000 HD
ATOM     19  H   UNL     1       4.349   1.718  19.134  0.00  0.00    +0.000 HD
ENDBRANCH   4  17
BRANCH  13  20
ATOM     20  O   UNL     1       0.248   9.061  21.200  0.00  0.00    +0.000 OA
ATOM     21  H   UNL     1      -0.413   8.359  21.312  0.00  0.00    +0.000 HD
ENDBRANCH  13  20
TORSDOF 2
ENDMDL
MODEL 7
REMARK VINA RESULT:      -6.6      2.154      3.044
REMARK  Name = 
REMARK  4 active torsions:
REMARK  status: ('A' for Active; 'I' for Inactive)
REMARK    1  A    between atoms: C_1  and  C_2
REMARK    2  A    between atoms: C_4  and  N_5
REMARK    3  A    between atoms: C_6  and  C_7
REMARK    4  A    between atoms: C_14  and  O_15
REMARK                            x       y       z     vdW  Elec       q    Type
REMARK                         _______ _______ _______ _____ _____    ______ ____
ROOT
ATOM      1  C   UNL     1       4.825   1.449  21.210  0.00  0.00    +0.000 C 
ATOM      2  C   UNL     1       3.954   2.314  20.352  0.00  0.00    +0.000 A 
ATOM      3  C   UNL     1       2.559   2.298  20.496  0.00  0.00    +0.000 A 
ATOM      4  C   UNL     1       1.701   3.093  19.727  0.00  0.00    +0.000 A 
ATOM      5  C   UNL     1       2.234   3.949  18.733  0.00  0.00    +0.000 A 
ATOM      6  C   UNL     1       1.346   4.811  17.874  0.00  0.00    +0.000 C 
ATOM      7  C   UNL     1       3.651   3.984  18.564  0.00  0.00    +0.000 A 
ATOM      8  C   UNL     1       4.460   3.182  19.366  0.00  0.00    +0.000 A 
ATOM      9  N   UNL     1       5.764   3.409  18.996  0.00  0.00    +0.000 N 
ATOM     10  C   UNL     1       5.844   4.335  17.984  0.00  0.00    +0.000 A 
ATOM     11  C   UNL     1       6.965   4.851  17.321  0.00  0.00    +0.000 A 
ATOM     12  C   UNL     1       6.749   5.797  16.314  0.00  0.00    +0.000 A 
ATOM     13  C   UNL     1       5.457   6.198  15.998  0.00  0.00    +0.000 A 
ATOM     14  C   UNL     1       4.349   5.675  16.665  0.00  0.00    +0.000 A 
ATOM     15  C   UNL     1       4.538   4.717  17.688  0.00  0.00    +0.000 A 
ATOM     16  H   UNL     1       6.561   2.956  19.413  0.00  0.00    +0.000 HD
ENDROOT
BRANCH   4  17
ATOM     17  N   UNL     1       0.331   2.944  19.925  0.00  0.00    +0.000 N 
ATOM     18  H   UNL     1      -0.263   3.760  19.991  0.00  0.00    +0.000 HD
ATOM     19  H   UNL     1      -0.123   2.050  19.825  0.00  0.00    +0.000 HD
ENDBRANCH   4  17
BRANCH  13  20
ATOM     20  O   UNL     1       5.219   7.119  15.019  0.00  0.00    +0.000 OA
ATOM     21  H   UNL     1       4.592   6.740  14.382  0.00  0.00    +0.000 HD
ENDBRANCH  13  20
TORSDOF 2
ENDMDL
MODEL 8
REMARK VINA RESULT:      -6.6      1.470      1.473
REMARK  Name = 
REMARK  4 active torsions:
REMARK  status: ('A' for Active; 'I' for Inactive)
REMARK    1  A    between atoms: C_1  and  C_2
REMARK    2  A    between atoms: C_4  and  N_5
REMARK    3  A    between atoms: C_6  and  C_7
REMARK    4  A    between atoms: C_14  and  O_15
REMARK                            x       y       z     vdW  Elec       q    Type
REMARK                         _______ _______ _______ _____ _____    ______ ____
ROOT
ATOM      1  C   UNL     1       1.109   6.945  20.589  0.00  0.00    +0.000 C 
ATOM      2  C   UNL     1       1.957   5.721  20.439  0.00  0.00    +0.000 A 
ATOM      3  C   UNL     1       1.663   4.548  21.151  0.00  0.00    +0.000 A 
ATOM      4  C   UNL     1       2.417   3.374  21.039  0.00  0.00    +0.000 A 
ATOM      5  C   UNL     1       3.551   3.343  20.192  0.00  0.00    +0.000 A 
ATOM      6  C   UNL     1       4.399   2.106  20.053  0.00  0.00    +0.000 C 
ATOM      7  C   UNL     1       3.875   4.522  19.456  0.00  0.00    +0.000 A 
ATOM      8  C   UNL     1       3.082   5.659  19.594  0.00  0.00    +0.000 A 
ATOM      9  N   UNL     1       3.613   6.635  18.784  0.00  0.00    +0.000 N 
ATOM     10  C   UNL     1       4.723   6.181  18.114  0.00  0.00    +0.000 A 
ATOM     11  C   UNL     1       5.556   6.838  17.200  0.00  0.00    +0.000 A 
ATOM     12  C   UNL     1       6.632   6.122  16.665  0.00  0.00    +0.000 A 
ATOM     13  C   UNL     1       6.848   4.803  17.042  0.00  0.00    +0.000 A 
ATOM     14  C   UNL     1       6.013   4.160  17.955  0.00  0.00    +0.000 A 
ATOM     15  C   UNL     1       4.917   4.860  18.511  0.00  0.00    +0.000 A 
ATOM     16  H   UNL     1       3.237   7.565  18.691  0.00  0.00    +0.000 HD
ENDROOT
BRANCH   4  17
ATOM     17  N   UNL     1       2.058   2.296  21.843  0.00  0.00    +0.000 N 
ATOM     18  H   UNL     1       1.690   2.457  22.771  0.00  0.00    +0.000 HD
ATOM     19  H   UNL     1       1.978   1.363  21.471  0.00  0.00    +0.000 HD
ENDBRANCH   4  17
BRANCH  13  20
ATOM     20  O   UNL     1       7.892   4.082  16.535  0.00  0.00    +0.000 OA
ATOM     21  H   UNL     1       7.612   3.677  15.699  0.00  0.00    +0.000 HD
ENDBRANCH  13  20
TORSDOF 2
ENDMDL
MODEL 9
REMARK VINA RESULT:      -6.5      1.637      3.066
REMARK  Name = 
REMARK  4 active torsions:
REMARK  status: ('A' for Active; 'I' for Inactive)
REMARK    1  A    between atoms: C_1  and  C_2
REMARK    2  A    between atoms: C_4  and  N_5
REMARK    3  A    between atoms: C_6  and  C_7
REMARK    4  A    between atoms: C_14  and  O_15
REMARK                            x       y       z     vdW  Elec       q    Type
REMARK                         _______ _______ _______ _____ _____    ______ ____
ROOT
ATOM      1  C   UNL     1       1.854   3.577  21.336  0.00  0.00    +0.000 C 
ATOM      2  C   UNL     1       2.137   4.780  20.492  0.00  0.00    +0.000 A 
ATOM      3  C   UNL     1       1.580   6.029  20.808  0.00  0.00    +0.000 A 
ATOM      4  C   UNL     1       1.822   7.186  20.058  0.00  0.00    +0.000 A 
ATOM      5  C   UNL     1       2.644   7.123  18.907  0.00  0.00    +0.000 A 
ATOM      6  C   UNL     1       2.918   8.340  18.064  0.00  0.00    +0.000 C 
ATOM      7  C   UNL     1       3.224   5.864  18.562  0.00  0.00    +0.000 A 
ATOM      8  C   UNL     1       2.962   4.746  19.351  0.00  0.00    +0.000 A 
ATOM      9  N   UNL     1       3.635   3.682  18.799  0.00  0.00    +0.000 N 
ATOM     10  C   UNL     1       4.334   4.060  17.678  0.00  0.00    +0.000 A 
ATOM     11  C   UNL     1       5.144   3.302  16.823  0.00  0.00    +0.000 A 
ATOM     12  C   UNL     1       5.743   3.956  15.741  0.00  0.00    +0.000 A 
ATOM     13  C   UNL     1       5.527   5.313  15.540  0.00  0.00    +0.000 A 
ATOM     14  C   UNL     1       4.716   6.056  16.397  0.00  0.00    +0.000 A 
ATOM     15  C   UNL     1       4.099   5.422  17.500  0.00  0.00    +0.000 A 
ATOM     16  H   UNL     1       3.620   2.746  19.167  0.00  0.00    +0.000 HD
ENDROOT
BRANCH   4  17
ATOM     17  N   UNL     1       1.164   8.352  20.440  0.00  0.00    +0.000 N 
ATOM     18  H   UNL     1       0.212   8.309  20.777  0.00  0.00    +0.000 HD
ATOM     19  H   UNL     1       1.658   9.221  20.565  0.00  0.00    +0.000 HD
ENDBRANCH   4  17
BRANCH  13  20
ATOM     20  O   UNL     1       6.099   5.974  14.490  0.00  0.00    +0.000 OA
ATOM     21  H   UNL     1       7.039   6.115  14.687  0.00  0.00    +0.000 HD
ENDBRANCH  13  20
TORSDOF 2
ENDMDL
