MODEL 1
REMARK VINA RESULT:      -8.2      0.000      0.000
REMARK  Name = 
REMARK  6 active torsions:
REMARK  status: ('A' for Active; 'I' for Inactive)
REMARK    1  A    between atoms: C_1  and  C_2
REMARK    2  A    between atoms: C_7  and  N_8
REMARK    3  A    between atoms: N_13  and  C_14
REMARK    4  A    between atoms: C_14  and  C_15
REMARK    5  A    between atoms: C_22  and  C_23
REMARK    6  A    between atoms: C_22  and  C_24
REMARK                            x       y       z     vdW  Elec       q    Type
REMARK                         _______ _______ _______ _____ _____    ______ ____
ROOT
ATOM      1  N   UNL     1       2.718   7.378  18.815  0.00  0.00    +0.000 N 
ATOM      2  C   UNL     1       2.659   5.996  18.623  0.00  0.00    +0.000 C 
ATOM      3  N   UNL     1       1.596   5.276  18.665  0.00  0.00    +0.000 NA
ATOM      4  C   UNL     1       1.915   3.956  18.561  0.00  0.00    +0.000 C 
ATOM      5  S   UNL     1       0.793   2.734  18.760  0.00  0.00    +0.000 S 
ATOM      6  N   UNL     1       3.278   3.807  18.315  0.00  0.00    +0.000 N 
ATOM      7  C   UNL     1       3.940   5.140  18.309  0.00  0.00    +0.000 C 
ATOM      8  C   UNL     1       4.996   5.381  19.379  0.00  0.00    +0.000 C 
ATOM      9  C   UNL     1       6.389   4.903  19.007  0.00  0.00    +0.000 C 
ATOM     10  O   UNL     1       6.683   4.592  17.658  0.00  0.00    +0.000 OA
ATOM     11  C   UNL     1       5.813   4.894  16.573  0.00  0.00    +0.000 C 
ATOM     12  C   UNL     1       6.611   5.780  15.603  0.00  0.00    +0.000 C 
ATOM     13  C   UNL     1       5.558   3.584  15.813  0.00  0.00    +0.000 C 
ATOM     14  C   UNL     1       4.492   5.574  16.953  0.00  0.00    +0.000 C 
ATOM     15  H   UNL     1       3.630   7.803  18.751  0.00  0.00    +0.000 HD
ENDROOT
BRANCH   1  22
ATOM     16  C   UNL     1       1.073   9.691  17.711  0.00  0.00    +0.000 C 
ATOM     17  C   UNL     1       1.178   9.301  19.163  0.00  0.00    +0.000 A 
ATOM     18  C   UNL     1       0.469  10.131  20.061  0.00  0.00    +0.000 A 
ATOM     19  C   UNL     1       0.310   9.784  21.399  0.00  0.00    +0.000 A 
ATOM     20  C   UNL     1       0.817   8.574  21.842  0.00  0.00    +0.000 A 
ATOM     21  C   UNL     1       1.560   7.767  20.974  0.00  0.00    +0.000 A 
ATOM     22  C   UNL     1       1.835   8.141  19.643  0.00  0.00    +0.000 A 
ENDBRANCH   1  22
BRANCH   6  23
ATOM     23  C   UNL     1       3.993   2.556  18.682  0.00  0.00    +0.000 C 
BRANCH  23  24
ATOM     24  C   UNL     1       4.230   2.146  20.162  0.00  0.00    +0.000 C 
ATOM     25  N   UNL     1       5.302   1.365  20.465  0.00  0.00    +0.000 N 
ATOM     26  O   UNL     1       3.482   2.524  21.063  0.00  0.00    +0.000 OA
ATOM     27  H   UNL     1       5.677   0.732  19.763  0.00  0.00    +0.000 HD
ATOM     28  H   UNL     1       5.345   1.037  21.425  0.00  0.00    +0.000 HD
ENDBRANCH  23  24
ENDBRANCH   6  23
TORSDOF 3
ENDMDL
MODEL 2
REMARK VINA RESULT:      -7.5      0.677      1.495
REMARK  Name = 
REMARK  6 active torsions:
REMARK  status: ('A' for Active; 'I' for Inactive)
REMARK    1  A    between atoms: C_1  and  C_2
REMARK    2  A    between atoms: C_7  and  N_8
REMARK    3  A    between atoms: N_13  and  C_14
REMARK    4  A    between atoms: C_14  and  C_15
REMARK    5  A    between atoms: C_22  and  C_23
REMARK    6  A    between atoms: C_22  and  C_24
REMARK                            x       y       z     vdW  Elec       q    Type
REMARK                         _______ _______ _______ _____ _____    ______ ____
ROOT
ATOM      1  N   UNL     1       2.960   7.508  17.972  0.00  0.00    +0.000 N 
ATOM      2  C   UNL     1       2.857   6.116  17.951  0.00  0.00    +0.000 C 
ATOM      3  N   UNL     1       1.766   5.442  18.023  0.00  0.00    +0.000 NA
ATOM      4  C   UNL     1       2.038   4.109  18.103  0.00  0.00    +0.000 C 
ATOM      5  S   UNL     1       0.860   2.960  18.390  0.00  0.00    +0.000 S 
ATOM      6  N   UNL     1       3.405   3.887  17.954  0.00  0.00    +0.000 N 
ATOM      7  C   UNL     1       4.117   5.186  17.819  0.00  0.00    +0.000 C 
ATOM      8  C   UNL     1       5.126   5.527  18.907  0.00  0.00    +0.000 C 
ATOM      9  C   UNL     1       6.517   4.961  18.677  0.00  0.00    +0.000 C 
ATOM     10  O   UNL     1       6.867   4.472  17.397  0.00  0.00    +0.000 OA
ATOM     11  C   UNL     1       6.067   4.661  16.235  0.00  0.00    +0.000 C 
ATOM     12  C   UNL     1       6.948   5.391  15.208  0.00  0.00    +0.000 C 
ATOM     13  C   UNL     1       5.801   3.275  15.632  0.00  0.00    +0.000 C 
ATOM     14  C   UNL     1       4.756   5.427  16.452  0.00  0.00    +0.000 C 
ATOM     15  H   UNL     1       3.889   7.892  17.906  0.00  0.00    +0.000 HD
ENDROOT
BRANCH   1  22
ATOM     16  C   UNL     1       2.186   7.105  20.889  0.00  0.00    +0.000 C 
ATOM     17  C   UNL     1       1.598   8.133  19.959  0.00  0.00    +0.000 A 
ATOM     18  C   UNL     1       0.573   8.932  20.514  0.00  0.00    +0.000 A 
ATOM     19  C   UNL     1       0.076  10.046  19.844  0.00  0.00    +0.000 A 
ATOM     20  C   UNL     1       0.637  10.402  18.630  0.00  0.00    +0.000 A 
ATOM     21  C   UNL     1       1.619   9.594  18.049  0.00  0.00    +0.000 A 
ATOM     22  C   UNL     1       2.066   8.398  18.647  0.00  0.00    +0.000 A 
ENDBRANCH   1  22
BRANCH   6  23
ATOM     23  C   UNL     1       4.050   2.671  18.515  0.00  0.00    +0.000 C 
BRANCH  23  24
ATOM     24  C   UNL     1       4.151   2.421  20.045  0.00  0.00    +0.000 C 
ATOM     25  N   UNL     1       5.183   1.675  20.525  0.00  0.00    +0.000 N 
ATOM     26  O   UNL     1       3.328   2.893  20.829  0.00  0.00    +0.000 OA
ATOM     27  H   UNL     1       5.612   0.971  19.931  0.00  0.00    +0.000 HD
ATOM     28  H   UNL     1       5.136   1.452  21.515  0.00  0.00    +0.000 HD
ENDBRANCH  23  24
ENDBRANCH   6  23
TORSDOF 3
ENDMDL
MODEL 3
REMARK VINA RESULT:      -7.3      1.044      1.048
REMARK  Name = 
REMARK  6 active torsions:
REMARK  status: ('A' for Active; 'I' for Inactive)
REMARK    1  A    between atoms: C_1  and  C_2
REMARK    2  A    between atoms: C_7  and  N_8
REMARK    3  A    between atoms: N_13  and  C_14
REMARK    4  A    between atoms: C_14  and  C_15
REMARK    5  A    between atoms: C_22  and  C_23
REMARK    6  A    between atoms: C_22  and  C_24
REMARK                            x       y       z     vdW  Elec       q    Type
REMARK                         _______ _______ _______ _____ _____    ______ ____
ROOT
ATOM      1  N   UNL     1       2.399   7.528  19.096  0.00  0.00    +0.000 N 
ATOM      2  C   UNL     1       2.540   6.147  19.248  0.00  0.00    +0.000 C 
ATOM      3  N   UNL     1       1.674   5.355  19.768  0.00  0.00    +0.000 NA
ATOM      4  C   UNL     1       2.186   4.097  19.874  0.00  0.00    +0.000 C 
ATOM      5  S   UNL     1       1.394   2.861  20.671  0.00  0.00    +0.000 S 
ATOM      6  N   UNL     1       3.440   4.035  19.270  0.00  0.00    +0.000 N 
ATOM      7  C   UNL     1       3.826   5.380  18.766  0.00  0.00    +0.000 C 
ATOM      8  C   UNL     1       5.065   6.012  19.386  0.00  0.00    +0.000 C 
ATOM      9  C   UNL     1       6.374   5.603  18.731  0.00  0.00    +0.000 C 
ATOM     10  O   UNL     1       6.354   4.976  17.463  0.00  0.00    +0.000 OA
ATOM     11  C   UNL     1       5.189   4.881  16.650  0.00  0.00    +0.000 C 
ATOM     12  C   UNL     1       5.531   5.555  15.311  0.00  0.00    +0.000 C 
ATOM     13  C   UNL     1       4.983   3.396  16.318  0.00  0.00    +0.000 C 
ATOM     14  C   UNL     1       3.915   5.493  17.245  0.00  0.00    +0.000 C 
ATOM     15  H   UNL     1       3.169   8.016  18.667  0.00  0.00    +0.000 HD
ENDROOT
BRANCH   1  22
ATOM     16  C   UNL     1       0.615   9.740  18.000  0.00  0.00    +0.000 C 
ATOM     17  C   UNL     1       0.924   9.500  19.455  0.00  0.00    +0.000 A 
ATOM     18  C   UNL     1       0.350  10.428  20.353  0.00  0.00    +0.000 A 
ATOM     19  C   UNL     1       0.382  10.224  21.728  0.00  0.00    +0.000 A 
ATOM     20  C   UNL     1       0.946   9.058  22.218  0.00  0.00    +0.000 A 
ATOM     21  C   UNL     1       1.558   8.155  21.344  0.00  0.00    +0.000 A 
ATOM     22  C   UNL     1       1.642   8.385  19.956  0.00  0.00    +0.000 A 
ENDBRANCH   1  22
BRANCH   6  23
ATOM     23  C   UNL     1       4.439   3.013  19.679  0.00  0.00    +0.000 C 
BRANCH  23  24
ATOM     24  C   UNL     1       4.323   1.526  19.244  0.00  0.00    +0.000 C 
ATOM     25  N   UNL     1       5.125   0.600  19.838  0.00  0.00    +0.000 N 
ATOM     26  O   UNL     1       3.515   1.167  18.388  0.00  0.00    +0.000 OA
ATOM     27  H   UNL     1       6.025   0.885  20.214  0.00  0.00    +0.000 HD
ATOM     28  H   UNL     1       5.085  -0.332  19.437  0.00  0.00    +0.000 HD
ENDBRANCH  23  24
ENDBRANCH   6  23
TORSDOF 3
ENDMDL
MODEL 4
REMARK VINA RESULT:      -6.8      2.203      4.030
REMARK  Name = 
REMARK  6 active torsions:
REMARK  status: ('A' for Active; 'I' for Inactive)
REMARK    1  A    between atoms: C_1  and  C_2
REMARK    2  A    between atoms: C_7  and  N_8
REMARK    3  A    between atoms: N_13  and  C_14
REMARK    4  A    between atoms: C_14  and  C_15
REMARK    5  A    between atoms: C_22  and  C_23
REMARK    6  A    between atoms: C_22  and  C_24
REMARK                            x       y       z     vdW  Elec       q    Type
REMARK                         _______ _______ _______ _____ _____    ______ ____
ROOT
ATOM      1  N   UNL     1       1.711   7.378  19.814  0.00  0.00    +0.000 N 
ATOM      2  C   UNL     1       2.731   6.800  19.055  0.00  0.00    +0.000 C 
ATOM      3  N   UNL     1       3.690   7.431  18.479  0.00  0.00    +0.000 NA
ATOM      4  C   UNL     1       4.431   6.576  17.721  0.00  0.00    +0.000 C 
ATOM      5  S   UNL     1       5.644   7.093  16.696  0.00  0.00    +0.000 S 
ATOM      6  N   UNL     1       3.994   5.266  17.906  0.00  0.00    +0.000 N 
ATOM      7  C   UNL     1       2.824   5.247  18.824  0.00  0.00    +0.000 C 
ATOM      8  C   UNL     1       1.512   4.732  18.248  0.00  0.00    +0.000 C 
ATOM      9  C   UNL     1       1.344   3.224  18.315  0.00  0.00    +0.000 C 
ATOM     10  O   UNL     1       2.195   2.464  19.152  0.00  0.00    +0.000 OA
ATOM     11  C   UNL     1       3.079   3.040  20.108  0.00  0.00    +0.000 C 
ATOM     12  C   UNL     1       2.696   2.448  21.474  0.00  0.00    +0.000 C 
ATOM     13  C   UNL     1       4.486   2.503  19.811  0.00  0.00    +0.000 C 
ATOM     14  C   UNL     1       3.078   4.572  20.171  0.00  0.00    +0.000 C 
ATOM     15  H   UNL     1       1.027   6.749  20.203  0.00  0.00    +0.000 HD
ENDROOT
BRANCH   1  22
ATOM     16  C   UNL     1       1.134   9.236  22.156  0.00  0.00    +0.000 C 
ATOM     17  C   UNL     1       0.777   9.501  20.717  0.00  0.00    +0.000 A 
ATOM     18  C   UNL     1       0.079  10.707  20.481  0.00  0.00    +0.000 A 
ATOM     19  C   UNL     1      -0.142  11.178  19.191  0.00  0.00    +0.000 A 
ATOM     20  C   UNL     1       0.380  10.471  18.121  0.00  0.00    +0.000 A 
ATOM     21  C   UNL     1       1.032   9.253  18.339  0.00  0.00    +0.000 A 
ATOM     22  C   UNL     1       1.175   8.691  19.623  0.00  0.00    +0.000 A 
ENDBRANCH   1  22
BRANCH   6  23
ATOM     23  C   UNL     1       4.215   4.229  16.864  0.00  0.00    +0.000 C 
BRANCH  23  24
ATOM     24  C   UNL     1       5.635   3.865  16.349  0.00  0.00    +0.000 C 
ATOM     25  N   UNL     1       6.681   3.906  17.218  0.00  0.00    +0.000 N 
ATOM     26  O   UNL     1       5.829   3.527  15.181  0.00  0.00    +0.000 OA
ATOM     27  H   UNL     1       6.645   4.532  18.017  0.00  0.00    +0.000 HD
ATOM     28  H   UNL     1       7.598   3.767  16.802  0.00  0.00    +0.000 HD
ENDBRANCH  23  24
ENDBRANCH   6  23
TORSDOF 3
ENDMDL
MODEL 5
REMARK VINA RESULT:      -6.5      1.052      1.725
REMARK  Name = 
REMARK  6 active torsions:
REMARK  status: ('A' for Active; 'I' for Inactive)
REMARK    1  A    between atoms: C_1  and  C_2
REMARK    2  A    between atoms: C_7  and  N_8
REMARK    3  A    between atoms: N_13  and  C_14
REMARK    4  A    between atoms: C_14  and  C_15
REMARK    5  A    between atoms: C_22  and  C_23
REMARK    6  A    between atoms: C_22  and  C_24
REMARK                            x       y       z     vdW  Elec       q    Type
REMARK                         _______ _______ _______ _____ _____    ______ ____
ROOT
ATOM      1  N   UNL     1       2.656   7.696  18.171  0.00  0.00    +0.000 N 
ATOM      2  C   UNL     1       2.614   6.304  18.268  0.00  0.00    +0.000 C 
ATOM      3  N   UNL     1       1.551   5.588  18.368  0.00  0.00    +0.000 NA
ATOM      4  C   UNL     1       1.878   4.282  18.571  0.00  0.00    +0.000 C 
ATOM      5  S   UNL     1       0.742   3.108  18.924  0.00  0.00    +0.000 S 
ATOM      6  N   UNL     1       3.258   4.110  18.482  0.00  0.00    +0.000 N 
ATOM      7  C   UNL     1       3.917   5.424  18.255  0.00  0.00    +0.000 C 
ATOM      8  C   UNL     1       4.874   5.904  19.337  0.00  0.00    +0.000 C 
ATOM      9  C   UNL     1       6.295   5.385  19.197  0.00  0.00    +0.000 C 
ATOM     10  O   UNL     1       6.708   4.804  17.975  0.00  0.00    +0.000 OA
ATOM     11  C   UNL     1       5.938   4.856  16.779  0.00  0.00    +0.000 C 
ATOM     12  C   UNL     1       6.820   5.534  15.718  0.00  0.00    +0.000 C 
ATOM     13  C   UNL     1       5.752   3.412  16.292  0.00  0.00    +0.000 C 
ATOM     14  C   UNL     1       4.589   5.576  16.890  0.00  0.00    +0.000 C 
ATOM     15  H   UNL     1       3.569   8.115  18.098  0.00  0.00    +0.000 HD
ENDROOT
BRANCH   1  22
ATOM     16  C   UNL     1       2.009   7.688  21.147  0.00  0.00    +0.000 C 
ATOM     17  C   UNL     1       1.300   8.502  20.096  0.00  0.00    +0.000 A 
ATOM     18  C   UNL     1       0.221   9.284  20.566  0.00  0.00    +0.000 A 
ATOM     19  C   UNL     1      -0.398  10.231  19.756  0.00  0.00    +0.000 A 
ATOM     20  C   UNL     1       0.092  10.441  18.478  0.00  0.00    +0.000 A 
ATOM     21  C   UNL     1       1.128   9.641  17.985  0.00  0.00    +0.000 A 
ATOM     22  C   UNL     1       1.702   8.598  18.739  0.00  0.00    +0.000 A 
ENDBRANCH   1  22
BRANCH   6  23
ATOM     23  C   UNL     1       3.937   2.978  19.165  0.00  0.00    +0.000 C 
BRANCH  23  24
ATOM     24  C   UNL     1       3.950   1.543  18.569  0.00  0.00    +0.000 C 
ATOM     25  N   UNL     1       4.628   0.563  19.225  0.00  0.00    +0.000 N 
ATOM     26  O   UNL     1       3.351   1.273  17.528  0.00  0.00    +0.000 OA
ATOM     27  H   UNL     1       5.421   0.808  19.812  0.00  0.00    +0.000 HD
ATOM     28  H   UNL     1       4.696  -0.324  18.735  0.00  0.00    +0.000 HD
ENDBRANCH  23  24
ENDBRANCH   6  23
TORSDOF 3
ENDMDL
MODEL 6
REMARK VINA RESULT:      -6.1      9.573     12.270
REMARK  Name = 
REMARK  6 active torsions:
REMARK  status: ('A' for Active; 'I' for Inactive)
REMARK    1  A    between atoms: C_1  and  C_2
REMARK    2  A    between atoms: C_7  and  N_8
REMARK    3  A    between atoms: N_13  and  C_14
REMARK    4  A    between atoms: C_14  and  C_15
REMARK    5  A    between atoms: C_22  and  C_23
REMARK    6  A    between atoms: C_22  and  C_24
REMARK                            x       y       z     vdW  Elec       q    Type
REMARK                         _______ _______ _______ _____ _____    ______ ____
ROOT
ATOM      1  N   UNL     1       8.277  13.271  18.705  0.00  0.00    +0.000 N 
ATOM      2  C   UNL     1       8.028  14.644  18.686  0.00  0.00    +0.000 C 
ATOM      3  N   UNL     1       8.842  15.551  18.280  0.00  0.00    +0.000 NA
ATOM      4  C   UNL     1       8.327  16.790  18.518  0.00  0.00    +0.000 C 
ATOM      5  S   UNL     1       9.201  18.194  18.280  0.00  0.00    +0.000 S 
ATOM      6  N   UNL     1       7.028  16.685  19.009  0.00  0.00    +0.000 N 
ATOM      7  C   UNL     1       6.660  15.253  19.167  0.00  0.00    +0.000 C 
ATOM      8  C   UNL     1       6.355  14.779  20.582  0.00  0.00    +0.000 C 
ATOM      9  C   UNL     1       4.917  14.997  21.022  0.00  0.00    +0.000 C 
ATOM     10  O   UNL     1       3.928  15.292  20.054  0.00  0.00    +0.000 OA
ATOM     11  C   UNL     1       4.147  15.198  18.651  0.00  0.00    +0.000 C 
ATOM     12  C   UNL     1       3.101  14.210  18.108  0.00  0.00    +0.000 C 
ATOM     13  C   UNL     1       3.780  16.557  18.039  0.00  0.00    +0.000 C 
ATOM     14  C   UNL     1       5.557  14.768  18.228  0.00  0.00    +0.000 C 
ATOM     15  H   UNL     1       7.537  12.683  19.053  0.00  0.00    +0.000 HD
ENDROOT
BRANCH   1  22
ATOM     16  C   UNL     1       9.296  12.400  21.440  0.00  0.00    +0.000 C 
ATOM     17  C   UNL     1      10.092  12.384  20.160  0.00  0.00    +0.000 A 
ATOM     18  C   UNL     1      11.434  11.961  20.290  0.00  0.00    +0.000 A 
ATOM     19  C   UNL     1      12.227  11.708  19.176  0.00  0.00    +0.000 A 
ATOM     20  C   UNL     1      11.667  11.827  17.915  0.00  0.00    +0.000 A 
ATOM     21  C   UNL     1      10.355  12.288  17.772  0.00  0.00    +0.000 A 
ATOM     22  C   UNL     1       9.561  12.662  18.875  0.00  0.00    +0.000 A 
ENDBRANCH   1  22
BRANCH   6  23
ATOM     23  C   UNL     1       6.432  17.765  19.840  0.00  0.00    +0.000 C 
BRANCH  23  24
ATOM     24  C   UNL     1       6.881  18.021  21.305  0.00  0.00    +0.000 C 
ATOM     25  N   UNL     1       5.959  18.438  22.214  0.00  0.00    +0.000 N 
ATOM     26  O   UNL     1       8.046  17.841  21.662  0.00  0.00    +0.000 OA
ATOM     27  H   UNL     1       5.146  18.962  21.900  0.00  0.00    +0.000 HD
ATOM     28  H   UNL     1       6.329  18.696  23.124  0.00  0.00    +0.000 HD
ENDBRANCH  23  24
ENDBRANCH   6  23
TORSDOF 3
ENDMDL
MODEL 7
REMARK VINA RESULT:      -6.0      3.368      5.138
REMARK  Name = 
REMARK  6 active torsions:
REMARK  status: ('A' for Active; 'I' for Inactive)
REMARK    1  A    between atoms: C_1  and  C_2
REMARK    2  A    between atoms: C_7  and  N_8
REMARK    3  A    between atoms: N_13  and  C_14
REMARK    4  A    between atoms: C_14  and  C_15
REMARK    5  A    between atoms: C_22  and  C_23
REMARK    6  A    between atoms: C_22  and  C_24
REMARK                            x       y       z     vdW  Elec       q    Type
REMARK                         _______ _______ _______ _____ _____    ______ ____
ROOT
ATOM      1  N   UNL     1       3.817   3.803  18.125  0.00  0.00    +0.000 N 
ATOM      2  C   UNL     1       5.097   4.361  18.108  0.00  0.00    +0.000 C 
ATOM      3  N   UNL     1       5.942   4.333  19.075  0.00  0.00    +0.000 NA
ATOM      4  C   UNL     1       7.039   5.079  18.766  0.00  0.00    +0.000 C 
ATOM      5  S   UNL     1       8.251   5.407  19.868  0.00  0.00    +0.000 S 
ATOM      6  N   UNL     1       6.957   5.535  17.452  0.00  0.00    +0.000 N 
ATOM      7  C   UNL     1       5.669   5.104  16.846  0.00  0.00    +0.000 C 
ATOM      8  C   UNL     1       4.711   6.209  16.421  0.00  0.00    +0.000 C 
ATOM      9  C   UNL     1       4.961   6.757  15.026  0.00  0.00    +0.000 C 
ATOM     10  O   UNL     1       5.788   6.037  14.132  0.00  0.00    +0.000 OA
ATOM     11  C   UNL     1       6.246   4.712  14.377  0.00  0.00    +0.000 C 
ATOM     12  C   UNL     1       5.757   3.853  13.200  0.00  0.00    +0.000 C 
ATOM     13  C   UNL     1       7.777   4.729  14.261  0.00  0.00    +0.000 C 
ATOM     14  C   UNL     1       5.803   4.093  15.708  0.00  0.00    +0.000 C 
ATOM     15  H   UNL     1       3.269   3.907  17.286  0.00  0.00    +0.000 HD
ENDROOT
BRANCH   1  22
ATOM     16  C   UNL     1       2.576   6.202  19.533  0.00  0.00    +0.000 C 
ATOM     17  C   UNL     1       2.528   4.777  20.019  0.00  0.00    +0.000 A 
ATOM     18  C   UNL     1       1.877   4.584  21.258  0.00  0.00    +0.000 A 
ATOM     19  C   UNL     1       1.582   3.311  21.734  0.00  0.00    +0.000 A 
ATOM     20  C   UNL     1       1.891   2.214  20.948  0.00  0.00    +0.000 A 
ATOM     21  C   UNL     1       2.576   2.389  19.742  0.00  0.00    +0.000 A 
ATOM     22  C   UNL     1       2.990   3.656  19.283  0.00  0.00    +0.000 A 
ENDBRANCH   1  22
BRANCH   6  23
ATOM     23  C   UNL     1       7.679   6.760  17.018  0.00  0.00    +0.000 C 
BRANCH  23  24
ATOM     24  C   UNL     1       7.464   8.134  17.710  0.00  0.00    +0.000 C 
ATOM     25  N   UNL     1       8.498   8.700  18.390  0.00  0.00    +0.000 N 
ATOM     26  O   UNL     1       6.386   8.726  17.644  0.00  0.00    +0.000 OA
ATOM     27  H   UNL     1       9.216   8.106  18.795  0.00  0.00    +0.000 HD
ATOM     28  H   UNL     1       8.268   9.540  18.913  0.00  0.00    +0.000 HD
ENDBRANCH  23  24
ENDBRANCH   6  23
TORSDOF 3
ENDMDL
MODEL 8
REMARK VINA RESULT:      -5.9      8.816     12.459
REMARK  Name = 
REMARK  6 active torsions:
REMARK  status: ('A' for Active; 'I' for Inactive)
REMARK    1  A    between atoms: C_1  and  C_2
REMARK    2  A    between atoms: C_7  and  N_8
REMARK    3  A    between atoms: N_13  and  C_14
REMARK    4  A    between atoms: C_14  and  C_15
REMARK    5  A    between atoms: C_22  and  C_23
REMARK    6  A    between atoms: C_22  and  C_24
REMARK                            x       y       z     vdW  Elec       q    Type
REMARK                         _______ _______ _______ _____ _____    ______ ____
ROOT
ATOM      1  N   UNL     1      -2.928  13.204  19.649  0.00  0.00    +0.000 N 
ATOM      2  C   UNL     1      -3.509  13.690  20.822  0.00  0.00    +0.000 C 
ATOM      3  N   UNL     1      -2.878  14.188  21.824  0.00  0.00    +0.000 NA
ATOM      4  C   UNL     1      -3.740  14.445  22.846  0.00  0.00    +0.000 C 
ATOM      5  S   UNL     1      -3.230  14.927  24.362  0.00  0.00    +0.000 S 
ATOM      6  N   UNL     1      -5.052  14.205  22.442  0.00  0.00    +0.000 N 
ATOM      7  C   UNL     1      -5.065  13.690  21.047  0.00  0.00    +0.000 C 
ATOM      8  C   UNL     1      -5.615  12.285  20.843  0.00  0.00    +0.000 C 
ATOM      9  C   UNL     1      -7.124  12.218  20.677  0.00  0.00    +0.000 C 
ATOM     10  O   UNL     1      -7.849  13.401  20.400  0.00  0.00    +0.000 OA
ATOM     11  C   UNL     1      -7.235  14.639  20.057  0.00  0.00    +0.000 C 
ATOM     12  C   UNL     1      -7.797  15.044  18.685  0.00  0.00    +0.000 C 
ATOM     13  C   UNL     1      -7.757  15.696  21.040  0.00  0.00    +0.000 C 
ATOM     14  C   UNL     1      -5.702  14.630  20.024  0.00  0.00    +0.000 C 
ATOM     15  H   UNL     1      -3.557  12.842  18.951  0.00  0.00    +0.000 HD
ENDROOT
BRANCH   1  22
ATOM     16  C   UNL     1      -0.443  14.866  19.069  0.00  0.00    +0.000 C 
ATOM     17  C   UNL     1      -0.496  13.362  19.142  0.00  0.00    +0.000 A 
ATOM     18  C   UNL     1       0.724  12.702  18.871  0.00  0.00    +0.000 A 
ATOM     19  C   UNL     1       0.877  11.337  19.093  0.00  0.00    +0.000 A 
ATOM     20  C   UNL     1      -0.179  10.626  19.637  0.00  0.00    +0.000 A 
ATOM     21  C   UNL     1      -1.405  11.257  19.866  0.00  0.00    +0.000 A 
ATOM     22  C   UNL     1      -1.629  12.612  19.548  0.00  0.00    +0.000 A 
ENDBRANCH   1  22
BRANCH   6  23
ATOM     23  C   UNL     1      -6.111  13.875  23.431  0.00  0.00    +0.000 C 
BRANCH  23  24
ATOM     24  C   UNL     1      -6.183  12.490  24.132  0.00  0.00    +0.000 C 
ATOM     25  N   UNL     1      -5.128  12.076  24.884  0.00  0.00    +0.000 N 
ATOM     26  O   UNL     1      -7.177  11.770  24.034  0.00  0.00    +0.000 OA
ATOM     27  H   UNL     1      -4.195  12.418  24.670  0.00  0.00    +0.000 HD
ATOM     28  H   UNL     1      -5.184  11.121  25.225  0.00  0.00    +0.000 HD
ENDBRANCH  23  24
ENDBRANCH   6  23
TORSDOF 3
ENDMDL
MODEL 9
REMARK VINA RESULT:      -5.9      2.186      4.207
REMARK  Name = 
REMARK  6 active torsions:
REMARK  status: ('A' for Active; 'I' for Inactive)
REMARK    1  A    between atoms: C_1  and  C_2
REMARK    2  A    between atoms: C_7  and  N_8
REMARK    3  A    between atoms: N_13  and  C_14
REMARK    4  A    between atoms: C_14  and  C_15
REMARK    5  A    between atoms: C_22  and  C_23
REMARK    6  A    between atoms: C_22  and  C_24
REMARK                            x       y       z     vdW  Elec       q    Type
REMARK                         _______ _______ _______ _____ _____    ______ ____
ROOT
ATOM      1  N   UNL     1       2.279   6.833  19.367  0.00  0.00    +0.000 N 
ATOM      2  C   UNL     1       3.489   6.241  19.001  0.00  0.00    +0.000 C 
ATOM      3  N   UNL     1       4.630   6.828  18.955  0.00  0.00    +0.000 NA
ATOM      4  C   UNL     1       5.573   5.992  18.436  0.00  0.00    +0.000 C 
ATOM      5  S   UNL     1       7.123   6.493  18.068  0.00  0.00    +0.000 S 
ATOM      6  N   UNL     1       5.033   4.723  18.236  0.00  0.00    +0.000 N 
ATOM      7  C   UNL     1       3.591   4.724  18.599  0.00  0.00    +0.000 C 
ATOM      8  C   UNL     1       2.605   4.420  17.479  0.00  0.00    +0.000 C 
ATOM      9  C   UNL     1       2.349   2.940  17.250  0.00  0.00    +0.000 C 
ATOM     10  O   UNL     1       2.743   2.004  18.234  0.00  0.00    +0.000 OA
ATOM     11  C   UNL     1       3.187   2.369  19.536  0.00  0.00    +0.000 C 
ATOM     12  C   UNL     1       2.249   1.669  20.533  0.00  0.00    +0.000 C 
ATOM     13  C   UNL     1       4.564   1.724  19.748  0.00  0.00    +0.000 C 
ATOM     14  C   UNL     1       3.237   3.875  19.820  0.00  0.00    +0.000 C 
ATOM     15  H   UNL     1       1.465   6.239  19.354  0.00  0.00    +0.000 HD
ENDROOT
BRANCH   1  22
ATOM     16  C   UNL     1       1.123   8.531  21.615  0.00  0.00    +0.000 C 
ATOM     17  C   UNL     1       1.269   8.958  20.178  0.00  0.00    +0.000 A 
ATOM     18  C   UNL     1       0.778  10.249  19.880  0.00  0.00    +0.000 A 
ATOM     19  C   UNL     1       1.020  10.854  18.651  0.00  0.00    +0.000 A 
ATOM     20  C   UNL     1       1.803  10.189  17.721  0.00  0.00    +0.000 A 
ATOM     21  C   UNL     1       2.255   8.893  17.986  0.00  0.00    +0.000 A 
ATOM     22  C   UNL     1       1.934   8.208  19.175  0.00  0.00    +0.000 A 
ENDBRANCH   1  22
BRANCH   6  23
ATOM     23  C   UNL     1       5.608   3.795  17.227  0.00  0.00    +0.000 C 
BRANCH  23  24
ATOM     24  C   UNL     1       6.108   4.290  15.842  0.00  0.00    +0.000 C 
ATOM     25  N   UNL     1       5.197   4.719  14.927  0.00  0.00    +0.000 N 
ATOM     26  O   UNL     1       7.307   4.316  15.562  0.00  0.00    +0.000 OA
ATOM     27  H   UNL     1       4.250   4.352  14.952  0.00  0.00    +0.000 HD
ATOM     28  H   UNL     1       5.570   4.924  14.004  0.00  0.00    +0.000 HD
ENDBRANCH  23  24
ENDBRANCH   6  23
TORSDOF 3
ENDMDL
