MODEL 1
REMARK VINA RESULT:      -7.4      0.000      0.000
REMARK  Name = 
REMARK  7 active torsions:
REMARK  status: ('A' for Active; 'I' for Inactive)
REMARK    1  A    between atoms: C_1  and  C_2
REMARK    2  A    between atoms: C_2  and  C_3
REMARK    3  A    between atoms: C_2  and  C_4
REMARK    4  A    between atoms: C_4  and  N_5
REMARK    5  A    between atoms: C_4  and  C_14
REMARK    6  A    between atoms: C_6  and  C_8
REMARK    7  A    between atoms: N_19  and  C_20
REMARK                            x       y       z     vdW  Elec       q    Type
REMARK                         _______ _______ _______ _____ _____    ______ ____
ROOT
ATOM      1  C   UNL     1       0.208  11.591  19.527  0.00  0.00    +0.000 C 
ATOM      2  O   UNL     1      -0.131  12.189  18.502  0.00  0.00    +0.000 OA
ATOM      3  N   UNL     1       0.560  10.252  19.499  0.00  0.00    +0.000 N 
ATOM      4  C   UNL     1       0.864   9.603  18.217  0.00  0.00    +0.000 C 
ATOM      5  C   UNL     1       2.121   8.719  18.340  0.00  0.00    +0.000 C 
ATOM      6  N   UNL     1       1.984   7.788  19.477  0.00  0.00    +0.000 N 
ATOM      7  C   UNL     1       1.681   8.428  20.770  0.00  0.00    +0.000 C 
ATOM      8  C   UNL     1       0.436   9.322  20.627  0.00  0.00    +0.000 C 
ENDROOT
BRANCH   6   9
ATOM      9  C   UNL     1       2.179   6.430  19.360  0.00  0.00    +0.000 A 
ATOM     10  C   UNL     1       1.901   5.544  20.417  0.00  0.00    +0.000 A 
ATOM     11  C   UNL     1       2.070   4.161  20.288  0.00  0.00    +0.000 A 
ATOM     12  C   UNL     1       2.530   3.628  19.092  0.00  0.00    +0.000 A 
ATOM     13 CL   UNL     1       2.730   1.929  18.923  0.00  0.00    +0.000 Cl
ATOM     14  C   UNL     1       2.825   4.470  18.028  0.00  0.00    +0.000 A 
ATOM     15  C   UNL     1       2.653   5.852  18.168  0.00  0.00    +0.000 A 
ENDBRANCH   6   9
BRANCH   1  16
ATOM     16  C   UNL     1       0.219  12.307  20.902  0.00  0.00    +0.000 C 
BRANCH  16  17
ATOM     17  N   UNL     1      -1.177  12.486  21.305  0.00  0.00    +0.000 N 
ATOM     18  C   UNL     1      -1.672  11.964  22.481  0.00  0.00    +0.000 C 
ATOM     19  O   UNL     1      -1.021  11.253  23.237  0.00  0.00    +0.000 OA
ATOM     20  H   UNL     1      -1.718  13.175  20.795  0.00  0.00    +0.000 HD
BRANCH  18  21
ATOM     21  C   UNL     1      -3.063  12.350  22.824  0.00  0.00    +0.000 A 
ATOM     22  C   UNL     1      -3.508  12.347  24.151  0.00  0.00    +0.000 A 
ATOM     23  C   UNL     1      -4.830  12.690  24.440  0.00  0.00    +0.000 A 
ATOM     24  C   UNL     1      -5.704  13.038  23.409  0.00  0.00    +0.000 A 
ATOM     25  C   UNL     1      -5.255  13.063  22.088  0.00  0.00    +0.000 A 
ATOM     26  C   UNL     1      -3.932  12.730  21.795  0.00  0.00    +0.000 A 
ENDBRANCH  18  21
ENDBRANCH  16  17
BRANCH  16  28
ATOM     27  C   UNL     1       0.654  14.563  22.027  0.00  0.00    +0.000 C 
ATOM     28  C   UNL     1       0.971  13.664  20.825  0.00  0.00    +0.000 C 
ATOM     29  C   UNL     1       2.492  13.457  20.769  0.00  0.00    +0.000 C 
ENDBRANCH  16  28
ENDBRANCH   1  16
TORSDOF 5
ENDMDL
MODEL 2
REMARK VINA RESULT:      -7.3      0.290      1.317
REMARK  Name = 
REMARK  7 active torsions:
REMARK  status: ('A' for Active; 'I' for Inactive)
REMARK    1  A    between atoms: C_1  and  C_2
REMARK    2  A    between atoms: C_2  and  C_3
REMARK    3  A    between atoms: C_2  and  C_4
REMARK    4  A    between atoms: C_4  and  N_5
REMARK    5  A    between atoms: C_4  and  C_14
REMARK    6  A    between atoms: C_6  and  C_8
REMARK    7  A    between atoms: N_19  and  C_20
REMARK                            x       y       z     vdW  Elec       q    Type
REMARK                         _______ _______ _______ _____ _____    ______ ____
ROOT
ATOM      1  C   UNL     1       0.581  11.692  19.456  0.00  0.00    +0.000 C 
ATOM      2  O   UNL     1       0.390  12.323  18.414  0.00  0.00    +0.000 OA
ATOM      3  N   UNL     1       0.811  10.326  19.440  0.00  0.00    +0.000 N 
ATOM      4  C   UNL     1       1.168   9.660  18.181  0.00  0.00    +0.000 C 
ATOM      5  C   UNL     1       2.323   8.663  18.403  0.00  0.00    +0.000 C 
ATOM      6  N   UNL     1       2.001   7.742  19.510  0.00  0.00    +0.000 N 
ATOM      7  C   UNL     1       1.643   8.399  20.780  0.00  0.00    +0.000 C 
ATOM      8  C   UNL     1       0.502   9.405  20.540  0.00  0.00    +0.000 C 
ENDROOT
BRANCH   6   9
ATOM      9  C   UNL     1       2.082   6.373  19.392  0.00  0.00    +0.000 A 
ATOM     10  C   UNL     1       2.408   5.748  18.174  0.00  0.00    +0.000 A 
ATOM     11  C   UNL     1       2.523   4.358  18.060  0.00  0.00    +0.000 A 
ATOM     12  C   UNL     1       2.305   3.554  19.170  0.00  0.00    +0.000 A 
ATOM     13 CL   UNL     1       2.452   1.846  19.041  0.00  0.00    +0.000 Cl
ATOM     14  C   UNL     1       1.970   4.130  20.388  0.00  0.00    +0.000 A 
ATOM     15  C   UNL     1       1.859   5.522  20.490  0.00  0.00    +0.000 A 
ENDBRANCH   6   9
BRANCH   1  16
ATOM     16  C   UNL     1       0.534  12.395  20.836  0.00  0.00    +0.000 C 
BRANCH  16  17
ATOM     17  N   UNL     1      -0.877  12.531  21.202  0.00  0.00    +0.000 N 
ATOM     18  C   UNL     1      -1.374  12.047  22.394  0.00  0.00    +0.000 C 
ATOM     19  O   UNL     1      -0.708  11.406  23.199  0.00  0.00    +0.000 OA
ATOM     20  H   UNL     1      -1.437  13.167  20.647  0.00  0.00    +0.000 HD
BRANCH  18  21
ATOM     21  C   UNL     1      -2.787  12.386  22.690  0.00  0.00    +0.000 A 
ATOM     22  C   UNL     1      -3.652  12.829  21.684  0.00  0.00    +0.000 A 
ATOM     23  C   UNL     1      -4.970  13.166  21.998  0.00  0.00    +0.000 A 
ATOM     24  C   UNL     1      -5.423  13.060  23.314  0.00  0.00    +0.000 A 
ATOM     25  C   UNL     1      -4.568  12.597  24.315  0.00  0.00    +0.000 A 
ATOM     26  C   UNL     1      -3.253  12.250  24.004  0.00  0.00    +0.000 A 
ENDBRANCH  18  21
ENDBRANCH  16  17
BRANCH  16  28
ATOM     27  C   UNL     1       0.764  14.708  21.907  0.00  0.00    +0.000 C 
ATOM     28  C   UNL     1       1.248  13.774  20.790  0.00  0.00    +0.000 C 
ATOM     29  C   UNL     1       2.770  13.620  20.921  0.00  0.00    +0.000 C 
ENDBRANCH  16  28
ENDBRANCH   1  16
TORSDOF 5
ENDMDL
MODEL 3
REMARK VINA RESULT:      -7.3      4.945     10.661
REMARK  Name = 
REMARK  7 active torsions:
REMARK  status: ('A' for Active; 'I' for Inactive)
REMARK    1  A    between atoms: C_1  and  C_2
REMARK    2  A    between atoms: C_2  and  C_3
REMARK    3  A    between atoms: C_2  and  C_4
REMARK    4  A    between atoms: C_4  and  N_5
REMARK    5  A    between atoms: C_4  and  C_14
REMARK    6  A    between atoms: C_6  and  C_8
REMARK    7  A    between atoms: N_19  and  C_20
REMARK                            x       y       z     vdW  Elec       q    Type
REMARK                         _______ _______ _______ _____ _____    ______ ____
ROOT
ATOM      1  C   UNL     1       4.516   5.582  18.403  0.00  0.00    +0.000 C 
ATOM      2  O   UNL     1       4.422   4.463  18.912  0.00  0.00    +0.000 OA
ATOM      3  N   UNL     1       3.470   6.490  18.458  0.00  0.00    +0.000 N 
ATOM      4  C   UNL     1       2.366   6.276  19.402  0.00  0.00    +0.000 C 
ATOM      5  C   UNL     1       1.994   7.594  20.110  0.00  0.00    +0.000 C 
ATOM      6  N   UNL     1       1.750   8.658  19.117  0.00  0.00    +0.000 N 
ATOM      7  C   UNL     1       2.853   8.884  18.165  0.00  0.00    +0.000 C 
ATOM      8  C   UNL     1       3.226   7.557  17.480  0.00  0.00    +0.000 C 
ENDROOT
BRANCH   6   9
ATOM      9  C   UNL     1       0.608   9.427  19.109  0.00  0.00    +0.000 A 
ATOM     10  C   UNL     1       0.151  10.093  20.261  0.00  0.00    +0.000 A 
ATOM     11  C   UNL     1      -0.993  10.900  20.247  0.00  0.00    +0.000 A 
ATOM     12  C   UNL     1      -1.714  11.055  19.071  0.00  0.00    +0.000 A 
ATOM     13 CL   UNL     1      -3.115  12.053  19.043  0.00  0.00    +0.000 Cl
ATOM     14  C   UNL     1      -1.302  10.406  17.915  0.00  0.00    +0.000 A 
ATOM     15  C   UNL     1      -0.156   9.602  17.942  0.00  0.00    +0.000 A 
ENDBRANCH   6   9
BRANCH   1  16
ATOM     16  C   UNL     1       5.798   6.010  17.645  0.00  0.00    +0.000 C 
BRANCH  16  17
ATOM     17  N   UNL     1       5.865   5.204  16.425  0.00  0.00    +0.000 N 
ATOM     18  C   UNL     1       5.642   5.745  15.176  0.00  0.00    +0.000 C 
ATOM     19  O   UNL     1       5.297   6.906  14.989  0.00  0.00    +0.000 OA
ATOM     20  H   UNL     1       6.280   4.282  16.505  0.00  0.00    +0.000 HD
BRANCH  18  21
ATOM     21  C   UNL     1       5.888   4.841  14.027  0.00  0.00    +0.000 A 
ATOM     22  C   UNL     1       4.904   3.952  13.581  0.00  0.00    +0.000 A 
ATOM     23  C   UNL     1       5.175   3.095  12.512  0.00  0.00    +0.000 A 
ATOM     24  C   UNL     1       6.424   3.126  11.890  0.00  0.00    +0.000 A 
ATOM     25  C   UNL     1       7.399   4.028  12.319  0.00  0.00    +0.000 A 
ATOM     26  C   UNL     1       7.130   4.893  13.380  0.00  0.00    +0.000 A 
ENDBRANCH  18  21
ENDBRANCH  16  17
BRANCH  16  28
ATOM     27  C   UNL     1       7.876   4.590  18.106  0.00  0.00    +0.000 C 
ATOM     28  C   UNL     1       7.063   5.822  18.526  0.00  0.00    +0.000 C 
ATOM     29  C   UNL     1       7.983   7.050  18.453  0.00  0.00    +0.000 C 
ENDBRANCH  16  28
ENDBRANCH   1  16
TORSDOF 5
ENDMDL
MODEL 4
REMARK VINA RESULT:      -7.2      0.645      1.167
REMARK  Name = 
REMARK  7 active torsions:
REMARK  status: ('A' for Active; 'I' for Inactive)
REMARK    1  A    between atoms: C_1  and  C_2
REMARK    2  A    between atoms: C_2  and  C_3
REMARK    3  A    between atoms: C_2  and  C_4
REMARK    4  A    between atoms: C_4  and  N_5
REMARK    5  A    between atoms: C_4  and  C_14
REMARK    6  A    between atoms: C_6  and  C_8
REMARK    7  A    between atoms: N_19  and  C_20
REMARK                            x       y       z     vdW  Elec       q    Type
REMARK                         _______ _______ _______ _____ _____    ______ ____
ROOT
ATOM      1  C   UNL     1      -0.279  11.636  19.324  0.00  0.00    +0.000 C 
ATOM      2  O   UNL     1      -0.727  12.103  18.274  0.00  0.00    +0.000 OA
ATOM      3  N   UNL     1       0.205  10.339  19.388  0.00  0.00    +0.000 N 
ATOM      4  C   UNL     1       0.511   9.612  18.150  0.00  0.00    +0.000 C 
ATOM      5  C   UNL     1       1.856   8.868  18.275  0.00  0.00    +0.000 C 
ATOM      6  N   UNL     1       1.870   8.034  19.492  0.00  0.00    +0.000 N 
ATOM      7  C   UNL     1       1.567   8.754  20.742  0.00  0.00    +0.000 C 
ATOM      8  C   UNL     1       0.231   9.506  20.596  0.00  0.00    +0.000 C 
ENDROOT
BRANCH   6   9
ATOM      9  C   UNL     1       2.197   6.696  19.479  0.00  0.00    +0.000 A 
ATOM     10  C   UNL     1       1.826   5.828  20.522  0.00  0.00    +0.000 A 
ATOM     11  C   UNL     1       2.130   4.463  20.494  0.00  0.00    +0.000 A 
ATOM     12  C   UNL     1       2.823   3.930  19.416  0.00  0.00    +0.000 A 
ATOM     13 CL   UNL     1       3.192   2.252  19.370  0.00  0.00    +0.000 Cl
ATOM     14  C   UNL     1       3.216   4.756  18.371  0.00  0.00    +0.000 A 
ATOM     15  C   UNL     1       2.906   6.120  18.410  0.00  0.00    +0.000 A 
ENDBRANCH   6   9
BRANCH   1  16
ATOM     16  C   UNL     1      -0.275  12.468  20.631  0.00  0.00    +0.000 C 
BRANCH  16  17
ATOM     17  N   UNL     1      -1.650  12.493  21.131  0.00  0.00    +0.000 N 
ATOM     18  C   UNL     1      -1.952  12.256  22.455  0.00  0.00    +0.000 C 
ATOM     19  O   UNL     1      -1.121  11.934  23.296  0.00  0.00    +0.000 OA
ATOM     20  H   UNL     1      -2.355  12.887  20.519  0.00  0.00    +0.000 HD
BRANCH  18  21
ATOM     21  C   UNL     1      -3.370  12.458  22.841  0.00  0.00    +0.000 A 
ATOM     22  C   UNL     1      -4.342  12.774  21.885  0.00  0.00    +0.000 A 
ATOM     23  C   UNL     1      -5.664  12.985  22.282  0.00  0.00    +0.000 A 
ATOM     24  C   UNL     1      -6.015  12.878  23.629  0.00  0.00    +0.000 A 
ATOM     25  C   UNL     1      -5.051  12.541  24.580  0.00  0.00    +0.000 A 
ATOM     26  C   UNL     1      -3.731  12.321  24.187  0.00  0.00    +0.000 A 
ENDBRANCH  18  21
ENDBRANCH  16  17
BRANCH  16  28
ATOM     27  C   UNL     1      -0.862  14.923  20.207  0.00  0.00    +0.000 C 
ATOM     28  C   UNL     1       0.270  13.902  20.384  0.00  0.00    +0.000 C 
ATOM     29  C   UNL     1       1.159  14.370  21.545  0.00  0.00    +0.000 C 
ENDBRANCH  16  28
ENDBRANCH   1  16
TORSDOF 5
ENDMDL
MODEL 5
REMARK VINA RESULT:      -7.1      0.513      1.221
REMARK  Name = 
REMARK  7 active torsions:
REMARK  status: ('A' for Active; 'I' for Inactive)
REMARK    1  A    between atoms: C_1  and  C_2
REMARK    2  A    between atoms: C_2  and  C_3
REMARK    3  A    between atoms: C_2  and  C_4
REMARK    4  A    between atoms: C_4  and  N_5
REMARK    5  A    between atoms: C_4  and  C_14
REMARK    6  A    between atoms: C_6  and  C_8
REMARK    7  A    between atoms: N_19  and  C_20
REMARK                            x       y       z     vdW  Elec       q    Type
REMARK                         _______ _______ _______ _____ _____    ______ ____
ROOT
ATOM      1  C   UNL     1       0.243  11.352  19.482  0.00  0.00    +0.000 C 
ATOM      2  O   UNL     1      -0.140  11.993  18.501  0.00  0.00    +0.000 OA
ATOM      3  N   UNL     1       0.654  10.034  19.368  0.00  0.00    +0.000 N 
ATOM      4  C   UNL     1       0.965   9.478  18.045  0.00  0.00    +0.000 C 
ATOM      5  C   UNL     1       2.262   8.646  18.097  0.00  0.00    +0.000 C 
ATOM      6  N   UNL     1       2.186   7.644  19.178  0.00  0.00    +0.000 N 
ATOM      7  C   UNL     1       1.878   8.191  20.511  0.00  0.00    +0.000 C 
ATOM      8  C   UNL     1       0.591   9.034  20.440  0.00  0.00    +0.000 C 
ENDROOT
BRANCH   6   9
ATOM      9  C   UNL     1       2.441   6.306  18.976  0.00  0.00    +0.000 A 
ATOM     10  C   UNL     1       3.166   5.846  17.862  0.00  0.00    +0.000 A 
ATOM     11  C   UNL     1       3.453   4.489  17.673  0.00  0.00    +0.000 A 
ATOM     12  C   UNL     1       3.012   3.554  18.598  0.00  0.00    +0.000 A 
ATOM     13 CL   UNL     1       3.368   1.886  18.378  0.00  0.00    +0.000 Cl
ATOM     14  C   UNL     1       2.284   3.966  19.706  0.00  0.00    +0.000 A 
ATOM     15  C   UNL     1       2.004   5.326  19.885  0.00  0.00    +0.000 A 
ENDBRANCH   6   9
BRANCH   1  16
ATOM     16  C   UNL     1       0.245  11.984  20.897  0.00  0.00    +0.000 C 
BRANCH  16  17
ATOM     17  N   UNL     1      -1.151  12.237  21.258  0.00  0.00    +0.000 N 
ATOM     18  C   UNL     1      -1.661  11.892  22.492  0.00  0.00    +0.000 C 
ATOM     19  O   UNL     1      -1.026  11.287  23.347  0.00  0.00    +0.000 OA
ATOM     20  H   UNL     1      -1.678  12.854  20.652  0.00  0.00    +0.000 HD
BRANCH  18  21
ATOM     21  C   UNL     1      -3.049  12.341  22.765  0.00  0.00    +0.000 A 
ATOM     22  C   UNL     1      -3.569  12.334  24.064  0.00  0.00    +0.000 A 
ATOM     23  C   UNL     1      -4.887  12.737  24.286  0.00  0.00    +0.000 A 
ATOM     24  C   UNL     1      -5.683  13.148  23.215  0.00  0.00    +0.000 A 
ATOM     25  C   UNL     1      -5.158  13.177  21.922  0.00  0.00    +0.000 A 
ATOM     26  C   UNL     1      -3.838  12.784  21.697  0.00  0.00    +0.000 A 
ENDBRANCH  18  21
ENDBRANCH  16  17
BRANCH  16  28
ATOM     27  C   UNL     1       2.270  13.232  19.953  0.00  0.00    +0.000 C 
ATOM     28  C   UNL     1       1.089  13.288  20.931  0.00  0.00    +0.000 C 
ATOM     29  C   UNL     1       0.235  14.516  20.580  0.00  0.00    +0.000 C 
ENDBRANCH  16  28
ENDBRANCH   1  16
TORSDOF 5
ENDMDL
MODEL 6
REMARK VINA RESULT:      -7.0      3.065      4.525
REMARK  Name = 
REMARK  7 active torsions:
REMARK  status: ('A' for Active; 'I' for Inactive)
REMARK    1  A    between atoms: C_1  and  C_2
REMARK    2  A    between atoms: C_2  and  C_3
REMARK    3  A    between atoms: C_2  and  C_4
REMARK    4  A    between atoms: C_4  and  N_5
REMARK    5  A    between atoms: C_4  and  C_14
REMARK    6  A    between atoms: C_6  and  C_8
REMARK    7  A    between atoms: N_19  and  C_20
REMARK                            x       y       z     vdW  Elec       q    Type
REMARK                         _______ _______ _______ _____ _____    ______ ____
ROOT
ATOM      1  C   UNL     1      -0.075  10.326  19.780  0.00  0.00    +0.000 C 
ATOM      2  O   UNL     1      -0.440  10.448  20.952  0.00  0.00    +0.000 OA
ATOM      3  N   UNL     1       1.004   9.526  19.439  0.00  0.00    +0.000 N 
ATOM      4  C   UNL     1       1.522   8.549  20.404  0.00  0.00    +0.000 C 
ATOM      5  C   UNL     1       1.810   7.202  19.712  0.00  0.00    +0.000 C 
ATOM      6  N   UNL     1       2.669   7.406  18.529  0.00  0.00    +0.000 N 
ATOM      7  C   UNL     1       2.157   8.383  17.551  0.00  0.00    +0.000 C 
ATOM      8  C   UNL     1       1.857   9.716  18.260  0.00  0.00    +0.000 C 
ENDROOT
BRANCH   6   9
ATOM      9  C   UNL     1       3.832   6.700  18.318  0.00  0.00    +0.000 A 
ATOM     10  C   UNL     1       4.643   6.921  17.190  0.00  0.00    +0.000 A 
ATOM     11  C   UNL     1       5.841   6.226  16.990  0.00  0.00    +0.000 A 
ATOM     12  C   UNL     1       6.256   5.282  17.919  0.00  0.00    +0.000 A 
ATOM     13 CL   UNL     1       7.732   4.431  17.687  0.00  0.00    +0.000 Cl
ATOM     14  C   UNL     1       5.479   5.027  19.041  0.00  0.00    +0.000 A 
ATOM     15  C   UNL     1       4.282   5.729  19.230  0.00  0.00    +0.000 A 
ENDBRANCH   6   9
BRANCH   1  16
ATOM     16  C   UNL     1      -0.788  11.094  18.638  0.00  0.00    +0.000 C 
BRANCH  16  17
ATOM     17  N   UNL     1      -1.009  12.461  19.112  0.00  0.00    +0.000 N 
ATOM     18  C   UNL     1      -0.087  13.466  18.904  0.00  0.00    +0.000 C 
ATOM     19  O   UNL     1       1.009  13.287  18.386  0.00  0.00    +0.000 OA
ATOM     20  H   UNL     1      -1.946  12.696  19.418  0.00  0.00    +0.000 HD
BRANCH  18  21
ATOM     21  C   UNL     1      -0.513  14.827  19.311  0.00  0.00    +0.000 A 
ATOM     22  C   UNL     1      -0.252  15.939  18.502  0.00  0.00    +0.000 A 
ATOM     23  C   UNL     1      -0.641  17.211  18.924  0.00  0.00    +0.000 A 
ATOM     24  C   UNL     1      -1.291  17.373  20.149  0.00  0.00    +0.000 A 
ATOM     25  C   UNL     1      -1.573  16.263  20.946  0.00  0.00    +0.000 A 
ATOM     26  C   UNL     1      -1.193  14.988  20.524  0.00  0.00    +0.000 A 
ENDBRANCH  18  21
ENDBRANCH  16  17
BRANCH  16  28
ATOM     27  C   UNL     1      -3.303  11.381  18.268  0.00  0.00    +0.000 C 
ATOM     28  C   UNL     1      -2.122  10.404  18.241  0.00  0.00    +0.000 C 
ATOM     29  C   UNL     1      -2.037   9.793  16.834  0.00  0.00    +0.000 C 
ENDBRANCH  16  28
ENDBRANCH   1  16
TORSDOF 5
ENDMDL
MODEL 7
REMARK VINA RESULT:      -7.0      3.060      4.383
REMARK  Name = 
REMARK  7 active torsions:
REMARK  status: ('A' for Active; 'I' for Inactive)
REMARK    1  A    between atoms: C_1  and  C_2
REMARK    2  A    between atoms: C_2  and  C_3
REMARK    3  A    between atoms: C_2  and  C_4
REMARK    4  A    between atoms: C_4  and  N_5
REMARK    5  A    between atoms: C_4  and  C_14
REMARK    6  A    between atoms: C_6  and  C_8
REMARK    7  A    between atoms: N_19  and  C_20
REMARK                            x       y       z     vdW  Elec       q    Type
REMARK                         _______ _______ _______ _____ _____    ______ ____
ROOT
ATOM      1  C   UNL     1      -0.141  10.200  19.733  0.00  0.00    +0.000 C 
ATOM      2  O   UNL     1      -0.541  10.287  20.897  0.00  0.00    +0.000 OA
ATOM      3  N   UNL     1       0.965   9.432  19.406  0.00  0.00    +0.000 N 
ATOM      4  C   UNL     1       1.478   8.445  20.363  0.00  0.00    +0.000 C 
ATOM      5  C   UNL     1       1.816   7.121  19.650  0.00  0.00    +0.000 C 
ATOM      6  N   UNL     1       2.703   7.371  18.497  0.00  0.00    +0.000 N 
ATOM      7  C   UNL     1       2.196   8.359  17.526  0.00  0.00    +0.000 C 
ATOM      8  C   UNL     1       1.846   9.669  18.256  0.00  0.00    +0.000 C 
ENDROOT
BRANCH   6   9
ATOM      9  C   UNL     1       3.887   6.695  18.303  0.00  0.00    +0.000 A 
ATOM     10  C   UNL     1       4.345   5.722  19.210  0.00  0.00    +0.000 A 
ATOM     11  C   UNL     1       5.532   5.012  18.998  0.00  0.00    +0.000 A 
ATOM     12  C   UNL     1       6.298   5.265  17.868  0.00  0.00    +0.000 A 
ATOM     13 CL   UNL     1       7.752   4.391  17.596  0.00  0.00    +0.000 Cl
ATOM     14  C   UNL     1       5.885   6.226  16.955  0.00  0.00    +0.000 A 
ATOM     15  C   UNL     1       4.695   6.930  17.177  0.00  0.00    +0.000 A 
ENDBRANCH   6   9
BRANCH   1  16
ATOM     16  C   UNL     1      -0.838  10.979  18.589  0.00  0.00    +0.000 C 
BRANCH  16  17
ATOM     17  N   UNL     1      -1.064  12.342  19.072  0.00  0.00    +0.000 N 
ATOM     18  C   UNL     1      -0.143  13.349  18.878  0.00  0.00    +0.000 C 
ATOM     19  O   UNL     1       0.957  13.177  18.366  0.00  0.00    +0.000 OA
ATOM     20  H   UNL     1      -2.004  12.573  19.373  0.00  0.00    +0.000 HD
BRANCH  18  21
ATOM     21  C   UNL     1      -0.574  14.707  19.293  0.00  0.00    +0.000 A 
ATOM     22  C   UNL     1      -1.384  14.898  20.417  0.00  0.00    +0.000 A 
ATOM     23  C   UNL     1      -1.795  16.186  20.767  0.00  0.00    +0.000 A 
ATOM     24  C   UNL     1      -1.396  17.280  19.997  0.00  0.00    +0.000 A 
ATOM     25  C   UNL     1      -0.570  17.093  18.888  0.00  0.00    +0.000 A 
ATOM     26  C   UNL     1      -0.149  15.809  18.540  0.00  0.00    +0.000 A 
ENDBRANCH  18  21
ENDBRANCH  16  17
BRANCH  16  28
ATOM     27  C   UNL     1      -3.364  11.246  18.278  0.00  0.00    +0.000 C 
ATOM     28  C   UNL     1      -2.167  10.293  18.169  0.00  0.00    +0.000 C 
ATOM     29  C   UNL     1      -2.096   9.776  16.724  0.00  0.00    +0.000 C 
ENDBRANCH  16  28
ENDBRANCH   1  16
TORSDOF 5
ENDMDL
MODEL 8
REMARK VINA RESULT:      -6.8      1.174      1.201
REMARK  Name = 
REMARK  7 active torsions:
REMARK  status: ('A' for Active; 'I' for Inactive)
REMARK    1  A    between atoms: C_1  and  C_2
REMARK    2  A    between atoms: C_2  and  C_3
REMARK    3  A    between atoms: C_2  and  C_4
REMARK    4  A    between atoms: C_4  and  N_5
REMARK    5  A    between atoms: C_4  and  C_14
REMARK    6  A    between atoms: C_6  and  C_8
REMARK    7  A    between atoms: N_19  and  C_20
REMARK                            x       y       z     vdW  Elec       q    Type
REMARK                         _______ _______ _______ _____ _____    ______ ____
ROOT
ATOM      1  C   UNL     1      -0.935  11.872  19.028  0.00  0.00    +0.000 C 
ATOM      2  O   UNL     1      -1.556  12.144  17.997  0.00  0.00    +0.000 OA
ATOM      3  N   UNL     1      -0.292  10.655  19.184  0.00  0.00    +0.000 N 
ATOM      4  C   UNL     1      -0.048   9.803  18.013  0.00  0.00    +0.000 C 
ATOM      5  C   UNL     1       1.383   9.229  18.049  0.00  0.00    +0.000 C 
ATOM      6  N   UNL     1       1.640   8.572  19.345  0.00  0.00    +0.000 N 
ATOM      7  C   UNL     1       1.401   9.419  20.528  0.00  0.00    +0.000 C 
ATOM      8  C   UNL     1      -0.024  10.000  20.470  0.00  0.00    +0.000 C 
ENDROOT
BRANCH   6   9
ATOM      9  C   UNL     1       2.123   7.287  19.451  0.00  0.00    +0.000 A 
ATOM     10  C   UNL     1       1.773   6.446  20.522  0.00  0.00    +0.000 A 
ATOM     11  C   UNL     1       2.238   5.129  20.614  0.00  0.00    +0.000 A 
ATOM     12  C   UNL     1       3.076   4.621  19.630  0.00  0.00    +0.000 A 
ATOM     13 CL   UNL     1       3.643   3.002  19.730  0.00  0.00    +0.000 Cl
ATOM     14  C   UNL     1       3.453   5.423  18.561  0.00  0.00    +0.000 A 
ATOM     15  C   UNL     1       2.981   6.739  18.480  0.00  0.00    +0.000 A 
ENDBRANCH   6   9
BRANCH   1  16
ATOM     16  C   UNL     1      -0.878  12.870  20.213  0.00  0.00    +0.000 C 
BRANCH  16  17
ATOM     17  N   UNL     1      -2.170  12.799  20.898  0.00  0.00    +0.000 N 
ATOM     18  C   UNL     1      -2.273  12.475  22.234  0.00  0.00    +0.000 C 
ATOM     19  O   UNL     1      -1.319  12.149  22.931  0.00  0.00    +0.000 OA
ATOM     20  H   UNL     1      -2.969  13.191  20.413  0.00  0.00    +0.000 HD
BRANCH  18  21
ATOM     21  C   UNL     1      -3.630  12.586  22.823  0.00  0.00    +0.000 A 
ATOM     22  C   UNL     1      -3.842  12.398  24.192  0.00  0.00    +0.000 A 
ATOM     23  C   UNL     1      -5.135  12.482  24.713  0.00  0.00    +0.000 A 
ATOM     24  C   UNL     1      -6.212  12.755  23.869  0.00  0.00    +0.000 A 
ATOM     25  C   UNL     1      -5.999  12.965  22.506  0.00  0.00    +0.000 A 
ATOM     26  C   UNL     1      -4.708  12.891  21.982  0.00  0.00    +0.000 A 
ENDBRANCH  18  21
ENDBRANCH  16  17
BRANCH  16  28
ATOM     27  C   UNL     1      -0.639  15.333  20.863  0.00  0.00    +0.000 C 
ATOM     28  C   UNL     1      -0.569  14.311  19.721  0.00  0.00    +0.000 C 
ATOM     29  C   UNL     1       0.826  14.398  19.085  0.00  0.00    +0.000 C 
ENDBRANCH  16  28
ENDBRANCH   1  16
TORSDOF 5
ENDMDL
MODEL 9
REMARK VINA RESULT:      -6.8      2.619      4.070
REMARK  Name = 
REMARK  7 active torsions:
REMARK  status: ('A' for Active; 'I' for Inactive)
REMARK    1  A    between atoms: C_1  and  C_2
REMARK    2  A    between atoms: C_2  and  C_3
REMARK    3  A    between atoms: C_2  and  C_4
REMARK    4  A    between atoms: C_4  and  N_5
REMARK    5  A    between atoms: C_4  and  C_14
REMARK    6  A    between atoms: C_6  and  C_8
REMARK    7  A    between atoms: N_19  and  C_20
REMARK                            x       y       z     vdW  Elec       q    Type
REMARK                         _______ _______ _______ _____ _____    ______ ____
ROOT
ATOM      1  C   UNL     1      -0.258  11.520  21.861  0.00  0.00    +0.000 C 
ATOM      2  O   UNL     1      -0.353  11.511  23.091  0.00  0.00    +0.000 OA
ATOM      3  N   UNL     1       0.537  10.604  21.192  0.00  0.00    +0.000 N 
ATOM      4  C   UNL     1       1.011   9.402  21.889  0.00  0.00    +0.000 C 
ATOM      5  C   UNL     1       0.862   8.159  20.989  0.00  0.00    +0.000 C 
ATOM      6  N   UNL     1       1.499   8.395  19.678  0.00  0.00    +0.000 N 
ATOM      7  C   UNL     1       1.029   9.598  18.968  0.00  0.00    +0.000 C 
ATOM      8  C   UNL     1       1.165  10.827  19.884  0.00  0.00    +0.000 C 
ENDROOT
BRANCH   6   9
ATOM      9  C   UNL     1       2.419   7.532  19.127  0.00  0.00    +0.000 A 
ATOM     10  C   UNL     1       2.728   6.294  19.720  0.00  0.00    +0.000 A 
ATOM     11  C   UNL     1       3.639   5.402  19.145  0.00  0.00    +0.000 A 
ATOM     12  C   UNL     1       4.273   5.733  17.955  0.00  0.00    +0.000 A 
ATOM     13 CL   UNL     1       5.387   4.639  17.236  0.00  0.00    +0.000 Cl
ATOM     14  C   UNL     1       4.004   6.950  17.343  0.00  0.00    +0.000 A 
ATOM     15  C   UNL     1       3.090   7.834  17.929  0.00  0.00    +0.000 A 
ENDBRANCH   6   9
BRANCH   1  16
ATOM     16  C   UNL     1      -0.997  12.585  21.011  0.00  0.00    +0.000 C 
BRANCH  16  17
ATOM     17  N   UNL     1      -1.431  11.926  19.779  0.00  0.00    +0.000 N 
ATOM     18  C   UNL     1      -2.745  11.949  19.360  0.00  0.00    +0.000 C 
ATOM     19  O   UNL     1      -3.658  12.446  20.010  0.00  0.00    +0.000 OA
ATOM     20  H   UNL     1      -0.706  11.625  19.137  0.00  0.00    +0.000 HD
BRANCH  18  21
ATOM     21  C   UNL     1      -3.007  11.365  18.022  0.00  0.00    +0.000 A 
ATOM     22  C   UNL     1      -4.168  11.684  17.308  0.00  0.00    +0.000 A 
ATOM     23  C   UNL     1      -4.400  11.098  16.062  0.00  0.00    +0.000 A 
ATOM     24  C   UNL     1      -3.475  10.198  15.530  0.00  0.00    +0.000 A 
ATOM     25  C   UNL     1      -2.306   9.896  16.231  0.00  0.00    +0.000 A 
ATOM     26  C   UNL     1      -2.066  10.487  17.472  0.00  0.00    +0.000 A 
ENDBRANCH  18  21
ENDBRANCH  16  17
BRANCH  16  28
ATOM     27  C   UNL     1      -0.099  14.189  19.230  0.00  0.00    +0.000 C 
ATOM     28  C   UNL     1      -0.080  13.805  20.715  0.00  0.00    +0.000 C 
ATOM     29  C   UNL     1      -0.504  15.033  21.533  0.00  0.00    +0.000 C 
ENDBRANCH  16  28
ENDBRANCH   1  16
TORSDOF 5
ENDMDL
