MODEL 1
REMARK VINA RESULT:      -7.4      0.000      0.000
REMARK  Name = 
REMARK  6 active torsions:
REMARK  status: ('A' for Active; 'I' for Inactive)
REMARK    1  A    between atoms: C_1  and  N_2
REMARK    2  A    between atoms: N_2  and  C_17
REMARK    3  A    between atoms: C_3  and  C_5
REMARK    4  A    between atoms: C_5  and  O_6
REMARK    5  A    between atoms: O_6  and  C_7
REMARK    6  A    between atoms: C_22  and  N_23
REMARK                            x       y       z     vdW  Elec       q    Type
REMARK                         _______ _______ _______ _____ _____    ______ ____
ROOT
ATOM      1  C   UNL     1      -1.601  10.957  19.335  0.00  0.00    +0.000 C 
ATOM      2  N   UNL     1      -0.146  10.734  19.562  0.00  0.00    +0.000 N 
ATOM      3  C   UNL     1       0.456  10.005  18.543  0.00  0.00    +0.000 C 
ATOM      4  O   UNL     1      -0.142   9.694  17.504  0.00  0.00    +0.000 OA
ENDROOT
BRANCH   2   5
ATOM      5  C   UNL     1       0.586  11.370  20.840  0.00  0.00    +0.000 C 
ATOM      6  C   UNL     1      -0.426  10.770  22.216  0.00  0.00    +0.000 C 
ATOM      7  C   UNL     1      -1.473  11.897  23.214  0.00  0.00    +0.000 C 
ATOM      8  C   UNL     1      -1.294  13.780  23.220  0.00  0.00    +0.000 C 
ATOM      9  C   UNL     1       0.103  14.574  22.129  0.00  0.00    +0.000 C 
ATOM     10  C   UNL     1       1.006  13.322  20.786  0.00  0.00    +0.000 C 
BRANCH  10  11
ATOM     11  N   UNL     1       2.375  13.554  21.062  0.00  0.00    +0.000 NA
ATOM     12  C   UNL     1       2.063  14.689  21.892  0.00  0.00    +0.000 C 
ATOM     13  C   UNL     1       0.398  14.957  21.829  0.00  0.00    +0.000 C 
ATOM     14  C   UNL     1      -0.908  13.810  20.639  0.00  0.00    +0.000 C 
ATOM     15  C   UNL     1      -0.640  13.264  18.894  0.00  0.00    +0.000 C 
ATOM     16  C   UNL     1       0.818  12.904  18.169  0.00  0.00    +0.000 C 
ATOM     17  C   UNL     1       2.211  13.679  18.364  0.00  0.00    +0.000 C 
ATOM     18  C   UNL     1       3.011  13.778  19.743  0.00  0.00    +0.000 C 
ENDBRANCH  10  11
ENDBRANCH   2   5
BRANCH   3  19
ATOM     19  C   UNL     1       1.867   9.536  18.739  0.00  0.00    +0.000 C 
BRANCH  19  20
ATOM     20  O   UNL     1       1.810   8.270  19.384  0.00  0.00    +0.000 OA
BRANCH  20  21
ATOM     21  C   UNL     1       2.552   7.264  18.826  0.00  0.00    +0.000 A 
ATOM     22  C   UNL     1       3.348   7.442  17.696  0.00  0.00    +0.000 A 
ATOM     23  C   UNL     1       4.101   6.383  17.184  0.00  0.00    +0.000 A 
ATOM     24 CL   UNL     1       5.056   6.721  15.780  0.00  0.00    +0.000 Cl
ATOM     25  C   UNL     1       4.074   5.126  17.802  0.00  0.00    +0.000 A 
ATOM     26 CL   UNL     1       5.030   3.830  17.155  0.00  0.00    +0.000 Cl
ATOM     27  C   UNL     1       3.275   4.936  18.945  0.00  0.00    +0.000 A 
ATOM     28 CL   UNL     1       3.232   3.382  19.730  0.00  0.00    +0.000 Cl
ATOM     29  C   UNL     1       2.515   6.006  19.456  0.00  0.00    +0.000 A 
ATOM     30 CL   UNL     1       1.518   5.802  20.868  0.00  0.00    +0.000 Cl
ENDBRANCH  20  21
ENDBRANCH  19  20
ENDBRANCH   3  19
TORSDOF 5
ENDMDL
MODEL 2
REMARK VINA RESULT:      -7.2      0.704      2.099
REMARK  Name = 
REMARK  6 active torsions:
REMARK  status: ('A' for Active; 'I' for Inactive)
REMARK    1  A    between atoms: C_1  and  N_2
REMARK    2  A    between atoms: N_2  and  C_17
REMARK    3  A    between atoms: C_3  and  C_5
REMARK    4  A    between atoms: C_5  and  O_6
REMARK    5  A    between atoms: O_6  and  C_7
REMARK    6  A    between atoms: C_22  and  N_23
REMARK                            x       y       z     vdW  Elec       q    Type
REMARK                         _______ _______ _______ _____ _____    ______ ____
ROOT
ATOM      1  C   UNL     1      -1.289  10.433  19.154  0.00  0.00    +0.000 C 
ATOM      2  N   UNL     1       0.175  10.326  19.406  0.00  0.00    +0.000 N 
ATOM      3  C   UNL     1       0.850   9.647  18.399  0.00  0.00    +0.000 C 
ATOM      4  O   UNL     1       0.298   9.289  17.350  0.00  0.00    +0.000 OA
ENDROOT
BRANCH   2   5
ATOM      5  C   UNL     1       0.830  11.019  20.696  0.00  0.00    +0.000 C 
ATOM      6  C   UNL     1      -0.103  10.284  22.060  0.00  0.00    +0.000 C 
ATOM      7  C   UNL     1      -1.271  11.265  23.078  0.00  0.00    +0.000 C 
ATOM      8  C   UNL     1      -1.309  13.156  23.117  0.00  0.00    +0.000 C 
ATOM      9  C   UNL     1      -0.014  14.123  22.041  0.00  0.00    +0.000 C 
ATOM     10  C   UNL     1       1.025  13.007  20.677  0.00  0.00    +0.000 C 
BRANCH  10  11
ATOM     11  N   UNL     1       2.359  13.390  20.957  0.00  0.00    +0.000 NA
ATOM     12  C   UNL     1       1.920  14.470  21.803  0.00  0.00    +0.000 C 
ATOM     13  C   UNL     1       0.236  14.548  21.742  0.00  0.00    +0.000 C 
ATOM     14  C   UNL     1      -0.932  13.277  20.534  0.00  0.00    +0.000 C 
ATOM     15  C   UNL     1      -0.605  12.789  18.782  0.00  0.00    +0.000 C 
ATOM     16  C   UNL     1       0.884  12.607  18.054  0.00  0.00    +0.000 C 
ATOM     17  C   UNL     1       2.180  13.532  18.261  0.00  0.00    +0.000 C 
ATOM     18  C   UNL     1       2.964  13.702  19.642  0.00  0.00    +0.000 C 
ENDBRANCH  10  11
ENDBRANCH   2   5
BRANCH   3  19
ATOM     19  C   UNL     1       2.291   9.293  18.621  0.00  0.00    +0.000 C 
BRANCH  19  20
ATOM     20  O   UNL     1       2.632   8.286  17.677  0.00  0.00    +0.000 OA
BRANCH  20  21
ATOM     21  C   UNL     1       3.039   7.082  18.185  0.00  0.00    +0.000 A 
ATOM     22  C   UNL     1       2.488   6.515  19.333  0.00  0.00    +0.000 A 
ATOM     23  C   UNL     1       2.929   5.272  19.793  0.00  0.00    +0.000 A 
ATOM     24 CL   UNL     1       2.171   4.664  21.226  0.00  0.00    +0.000 Cl
ATOM     25  C   UNL     1       3.928   4.571  19.105  0.00  0.00    +0.000 A 
ATOM     26 CL   UNL     1       4.449   3.022  19.689  0.00  0.00    +0.000 Cl
ATOM     27  C   UNL     1       4.489   5.134  17.943  0.00  0.00    +0.000 A 
ATOM     28 CL   UNL     1       5.729   4.275  17.071  0.00  0.00    +0.000 Cl
ATOM     29  C   UNL     1       4.044   6.388  17.485  0.00  0.00    +0.000 A 
ATOM     30 CL   UNL     1       4.719   7.109  16.051  0.00  0.00    +0.000 Cl
ENDBRANCH  20  21
ENDBRANCH  19  20
ENDBRANCH   3  19
TORSDOF 5
ENDMDL
MODEL 3
REMARK VINA RESULT:      -6.6      4.176      8.825
REMARK  Name = 
REMARK  6 active torsions:
REMARK  status: ('A' for Active; 'I' for Inactive)
REMARK    1  A    between atoms: C_1  and  N_2
REMARK    2  A    between atoms: N_2  and  C_17
REMARK    3  A    between atoms: C_3  and  C_5
REMARK    4  A    between atoms: C_5  and  O_6
REMARK    5  A    between atoms: O_6  and  C_7
REMARK    6  A    between atoms: C_22  and  N_23
REMARK                            x       y       z     vdW  Elec       q    Type
REMARK                         _______ _______ _______ _____ _____    ______ ____
ROOT
ATOM      1  C   UNL     1       2.096   5.422  20.557  0.00  0.00    +0.000 C 
ATOM      2  N   UNL     1       2.224   6.226  19.310  0.00  0.00    +0.000 N 
ATOM      3  C   UNL     1       2.093   7.593  19.530  0.00  0.00    +0.000 C 
ATOM      4  O   UNL     1       2.009   8.079  20.666  0.00  0.00    +0.000 OA
ENDROOT
BRANCH   2   5
ATOM      5  C   UNL     1       2.553   5.512  17.911  0.00  0.00    +0.000 C 
ATOM      6  C   UNL     1       1.355   4.157  17.865  0.00  0.00    +0.000 C 
ATOM      7  C   UNL     1       1.868   2.403  18.004  0.00  0.00    +0.000 C 
ATOM      8  C   UNL     1       3.646   1.798  17.776  0.00  0.00    +0.000 C 
ATOM      9  C   UNL     1       5.011   3.107  17.335  0.00  0.00    +0.000 C 
ATOM     10  C   UNL     1       4.463   5.069  17.529  0.00  0.00    +0.000 C 
BRANCH  10  11
ATOM     11  N   UNL     1       4.867   5.599  16.279  0.00  0.00    +0.000 NA
ATOM     12  C   UNL     1       4.647   4.336  15.621  0.00  0.00    +0.000 C 
ATOM     13  C   UNL     1       4.209   3.195  16.784  0.00  0.00    +0.000 C 
ATOM     14  C   UNL     1       4.106   3.630  18.843  0.00  0.00    +0.000 C 
ATOM     15  C   UNL     1       5.319   4.603  19.841  0.00  0.00    +0.000 C 
ATOM     16  C   UNL     1       6.258   5.877  19.313  0.00  0.00    +0.000 C 
ATOM     17  C   UNL     1       6.999   6.007  17.895  0.00  0.00    +0.000 C 
ATOM     18  C   UNL     1       6.255   6.075  16.483  0.00  0.00    +0.000 C 
ENDBRANCH  10  11
ENDBRANCH   2   5
BRANCH   3  19
ATOM     19  C   UNL     1       2.000   8.500  18.340  0.00  0.00    +0.000 C 
BRANCH  19  20
ATOM     20  O   UNL     1       1.698   9.804  18.822  0.00  0.00    +0.000 OA
BRANCH  20  21
ATOM     21  C   UNL     1       0.400  10.220  18.693  0.00  0.00    +0.000 A 
ATOM     22  C   UNL     1      -0.422   9.831  17.638  0.00  0.00    +0.000 A 
ATOM     23  C   UNL     1      -1.747  10.271  17.571  0.00  0.00    +0.000 A 
ATOM     24 CL   UNL     1      -2.676   9.721  16.218  0.00  0.00    +0.000 Cl
ATOM     25  C   UNL     1      -2.272  11.105  18.566  0.00  0.00    +0.000 A 
ATOM     26 CL   UNL     1      -3.924  11.627  18.468  0.00  0.00    +0.000 Cl
ATOM     27  C   UNL     1      -1.449  11.502  19.638  0.00  0.00    +0.000 A 
ATOM     28 CL   UNL     1      -2.085  12.535  20.888  0.00  0.00    +0.000 Cl
ATOM     29  C   UNL     1      -0.114  11.058  19.700  0.00  0.00    +0.000 A 
ATOM     30 CL   UNL     1       0.927  11.532  21.013  0.00  0.00    +0.000 Cl
ENDBRANCH  20  21
ENDBRANCH  19  20
ENDBRANCH   3  19
TORSDOF 5
ENDMDL
MODEL 4
REMARK VINA RESULT:      -6.2      1.204      1.425
REMARK  Name = 
REMARK  6 active torsions:
REMARK  status: ('A' for Active; 'I' for Inactive)
REMARK    1  A    between atoms: C_1  and  N_2
REMARK    2  A    between atoms: N_2  and  C_17
REMARK    3  A    between atoms: C_3  and  C_5
REMARK    4  A    between atoms: C_5  and  O_6
REMARK    5  A    between atoms: O_6  and  C_7
REMARK    6  A    between atoms: C_22  and  N_23
REMARK                            x       y       z     vdW  Elec       q    Type
REMARK                         _______ _______ _______ _____ _____    ______ ____
ROOT
ATOM      1  C   UNL     1      -2.143  12.315  19.862  0.00  0.00    +0.000 C 
ATOM      2  N   UNL     1      -0.708  11.920  19.896  0.00  0.00    +0.000 N 
ATOM      3  C   UNL     1      -0.306  11.239  18.752  0.00  0.00    +0.000 C 
ATOM      4  O   UNL     1      -1.043  11.099  17.767  0.00  0.00    +0.000 OA
ENDROOT
BRANCH   2   5
ATOM      5  C   UNL     1       0.224  12.345  21.131  0.00  0.00    +0.000 C 
ATOM      6  C   UNL     1      -0.837  12.018  22.560  0.00  0.00    +0.000 C 
ATOM      7  C   UNL     1      -1.512  13.371  23.597  0.00  0.00    +0.000 C 
ATOM      8  C   UNL     1      -0.859  15.147  23.576  0.00  0.00    +0.000 C 
ATOM      9  C   UNL     1       0.638  15.561  22.411  0.00  0.00    +0.000 C 
ATOM     10  C   UNL     1       1.125  14.125  21.038  0.00  0.00    +0.000 C 
BRANCH  10  11
ATOM     11  N   UNL     1       2.520  13.999  21.245  0.00  0.00    +0.000 NA
ATOM     12  C   UNL     1       2.540  15.141  22.123  0.00  0.00    +0.000 C 
ATOM     13  C   UNL     1       0.993  15.815  22.160  0.00  0.00    +0.000 C 
ATOM     14  C   UNL     1      -0.611  15.078  21.011  0.00  0.00    +0.000 C 
ATOM     15  C   UNL     1      -0.569  14.555  19.239  0.00  0.00    +0.000 C 
ATOM     16  C   UNL     1       0.718  13.875  18.424  0.00  0.00    +0.000 C 
ATOM     17  C   UNL     1       2.268  14.273  18.564  0.00  0.00    +0.000 C 
ATOM     18  C   UNL     1       3.130  14.113  19.899  0.00  0.00    +0.000 C 
ENDBRANCH  10  11
ENDBRANCH   2   5
BRANCH   3  19
ATOM     19  C   UNL     1       1.056  10.610  18.739  0.00  0.00    +0.000 C 
BRANCH  19  20
ATOM     20  O   UNL     1       1.058   9.583  19.722  0.00  0.00    +0.000 OA
BRANCH  20  21
ATOM     21  C   UNL     1       1.722   8.429  19.401  0.00  0.00    +0.000 A 
ATOM     22  C   UNL     1       2.539   8.308  18.280  0.00  0.00    +0.000 A 
ATOM     23  C   UNL     1       3.209   7.111  18.014  0.00  0.00    +0.000 A 
ATOM     24 CL   UNL     1       4.201   7.078  16.596  0.00  0.00    +0.000 Cl
ATOM     25  C   UNL     1       3.074   6.013  18.875  0.00  0.00    +0.000 A 
ATOM     26 CL   UNL     1       3.927   4.542  18.530  0.00  0.00    +0.000 Cl
ATOM     27  C   UNL     1       2.251   6.126  20.012  0.00  0.00    +0.000 A 
ATOM     28 CL   UNL     1       2.075   4.774  21.096  0.00  0.00    +0.000 Cl
ATOM     29  C   UNL     1       1.576   7.334  20.274  0.00  0.00    +0.000 A 
ATOM     30 CL   UNL     1       0.553   7.502  21.672  0.00  0.00    +0.000 Cl
ENDBRANCH  20  21
ENDBRANCH  19  20
ENDBRANCH   3  19
TORSDOF 5
ENDMDL
MODEL 5
REMARK VINA RESULT:      -6.1      3.840      8.812
REMARK  Name = 
REMARK  6 active torsions:
REMARK  status: ('A' for Active; 'I' for Inactive)
REMARK    1  A    between atoms: C_1  and  N_2
REMARK    2  A    between atoms: N_2  and  C_17
REMARK    3  A    between atoms: C_3  and  C_5
REMARK    4  A    between atoms: C_5  and  O_6
REMARK    5  A    between atoms: O_6  and  C_7
REMARK    6  A    between atoms: C_22  and  N_23
REMARK                            x       y       z     vdW  Elec       q    Type
REMARK                         _______ _______ _______ _____ _____    ______ ____
ROOT
ATOM      1  C   UNL     1       1.866   5.560  20.403  0.00  0.00    +0.000 C 
ATOM      2  N   UNL     1       2.209   6.314  19.165  0.00  0.00    +0.000 N 
ATOM      3  C   UNL     1       2.244   7.690  19.360  0.00  0.00    +0.000 C 
ATOM      4  O   UNL     1       2.128   8.207  20.479  0.00  0.00    +0.000 OA
ENDROOT
BRANCH   2   5
ATOM      5  C   UNL     1       2.559   5.533  17.808  0.00  0.00    +0.000 C 
ATOM      6  C   UNL     1       1.350   4.187  17.800  0.00  0.00    +0.000 C 
ATOM      7  C   UNL     1       1.845   2.437  18.031  0.00  0.00    +0.000 C 
ATOM      8  C   UNL     1       3.622   1.809  17.867  0.00  0.00    +0.000 C 
ATOM      9  C   UNL     1       5.007   3.085  17.393  0.00  0.00    +0.000 C 
ATOM     10  C   UNL     1       4.472   5.057  17.485  0.00  0.00    +0.000 C 
BRANCH  10  11
ATOM     11  N   UNL     1       4.905   5.526  16.221  0.00  0.00    +0.000 NA
ATOM     12  C   UNL     1       4.686   4.236  15.617  0.00  0.00    +0.000 C 
ATOM     13  C   UNL     1       4.215   3.153  16.822  0.00  0.00    +0.000 C 
ATOM     14  C   UNL     1       4.076   3.684  18.856  0.00  0.00    +0.000 C 
ATOM     15  C   UNL     1       5.278   4.692  19.833  0.00  0.00    +0.000 C 
ATOM     16  C   UNL     1       6.240   5.932  19.266  0.00  0.00    +0.000 C 
ATOM     17  C   UNL     1       7.010   5.990  17.858  0.00  0.00    +0.000 C 
ATOM     18  C   UNL     1       6.294   5.999  16.430  0.00  0.00    +0.000 C 
ENDBRANCH  10  11
ENDBRANCH   2   5
BRANCH   3  19
ATOM     19  C   UNL     1       2.377   8.577  18.158  0.00  0.00    +0.000 C 
BRANCH  19  20
ATOM     20  O   UNL     1       1.133   9.241  17.980  0.00  0.00    +0.000 OA
BRANCH  20  21
ATOM     21  C   UNL     1       1.096  10.571  18.300  0.00  0.00    +0.000 A 
ATOM     22  C   UNL     1       2.191  11.420  18.153  0.00  0.00    +0.000 A 
ATOM     23  C   UNL     1       2.088  12.775  18.475  0.00  0.00    +0.000 A 
ATOM     24 CL   UNL     1       3.511  13.734  18.248  0.00  0.00    +0.000 Cl
ATOM     25  C   UNL     1       0.880  13.305  18.948  0.00  0.00    +0.000 A 
ATOM     26 CL   UNL     1       0.774  14.994  19.329  0.00  0.00    +0.000 Cl
ATOM     27  C   UNL     1      -0.233  12.456  19.098  0.00  0.00    +0.000 A 
ATOM     28 CL   UNL     1      -1.745  13.097  19.679  0.00  0.00    +0.000 Cl
ATOM     29  C   UNL     1      -0.124  11.090  18.774  0.00  0.00    +0.000 A 
ATOM     30 CL   UNL     1      -1.483  10.017  18.949  0.00  0.00    +0.000 Cl
ENDBRANCH  20  21
ENDBRANCH  19  20
ENDBRANCH   3  19
TORSDOF 5
ENDMDL
MODEL 6
REMARK VINA RESULT:      -5.9      0.926      2.093
REMARK  Name = 
REMARK  6 active torsions:
REMARK  status: ('A' for Active; 'I' for Inactive)
REMARK    1  A    between atoms: C_1  and  N_2
REMARK    2  A    between atoms: N_2  and  C_17
REMARK    3  A    between atoms: C_3  and  C_5
REMARK    4  A    between atoms: C_5  and  O_6
REMARK    5  A    between atoms: O_6  and  C_7
REMARK    6  A    between atoms: C_22  and  N_23
REMARK                            x       y       z     vdW  Elec       q    Type
REMARK                         _______ _______ _______ _____ _____    ______ ____
ROOT
ATOM      1  C   UNL     1      -1.537  10.738  19.242  0.00  0.00    +0.000 C 
ATOM      2  N   UNL     1      -0.096  10.478  19.513  0.00  0.00    +0.000 N 
ATOM      3  C   UNL     1       0.504   9.687  18.540  0.00  0.00    +0.000 C 
ATOM      4  O   UNL     1      -0.079   9.353  17.500  0.00  0.00    +0.000 OA
ENDROOT
BRANCH   2   5
ATOM      5  C   UNL     1       0.626  11.143  20.782  0.00  0.00    +0.000 C 
ATOM      6  C   UNL     1      -0.337  10.497  22.171  0.00  0.00    +0.000 C 
ATOM      7  C   UNL     1      -1.417  11.574  23.188  0.00  0.00    +0.000 C 
ATOM      8  C   UNL     1      -1.321  13.464  23.196  0.00  0.00    +0.000 C 
ATOM      9  C   UNL     1       0.023  14.320  22.086  0.00  0.00    +0.000 C 
ATOM     10  C   UNL     1       0.960  13.111  20.727  0.00  0.00    +0.000 C 
BRANCH  10  11
ATOM     11  N   UNL     1       2.322  13.403  20.983  0.00  0.00    +0.000 NA
ATOM     12  C   UNL     1       1.973  14.529  21.810  0.00  0.00    +0.000 C 
ATOM     13  C   UNL     1       0.298  14.727  21.767  0.00  0.00    +0.000 C 
ATOM     14  C   UNL     1      -0.975  13.518  20.602  0.00  0.00    +0.000 C 
ATOM     15  C   UNL     1      -0.708  12.971  18.858  0.00  0.00    +0.000 C 
ATOM     16  C   UNL     1       0.755  12.667  18.115  0.00  0.00    +0.000 C 
ATOM     17  C   UNL     1       2.116  13.501  18.286  0.00  0.00    +0.000 C 
ATOM     18  C   UNL     1       2.930  13.643  19.653  0.00  0.00    +0.000 C 
ENDBRANCH  10  11
ENDBRANCH   2   5
BRANCH   3  19
ATOM     19  C   UNL     1       1.894   9.182  18.790  0.00  0.00    +0.000 C 
BRANCH  19  20
ATOM     20  O   UNL     1       1.834   8.307  19.909  0.00  0.00    +0.000 OA
BRANCH  20  21
ATOM     21  C   UNL     1       2.128   6.990  19.673  0.00  0.00    +0.000 A 
ATOM     22  C   UNL     1       1.634   5.949  20.455  0.00  0.00    +0.000 A 
ATOM     23  C   UNL     1       1.951   4.622  20.154  0.00  0.00    +0.000 A 
ATOM     24 CL   UNL     1       1.278   3.411  21.191  0.00  0.00    +0.000 Cl
ATOM     25  C   UNL     1       2.768   4.317  19.057  0.00  0.00    +0.000 A 
ATOM     26 CL   UNL     1       3.137   2.660  18.695  0.00  0.00    +0.000 Cl
ATOM     27  C   UNL     1       3.270   5.362  18.259  0.00  0.00    +0.000 A 
ATOM     28 CL   UNL     1       4.282   5.002  16.887  0.00  0.00    +0.000 Cl
ATOM     29  C   UNL     1       2.950   6.698  18.568  0.00  0.00    +0.000 A 
ATOM     30 CL   UNL     1       3.556   8.012  17.600  0.00  0.00    +0.000 Cl
ENDBRANCH  20  21
ENDBRANCH  19  20
ENDBRANCH   3  19
TORSDOF 5
ENDMDL
MODEL 7
REMARK VINA RESULT:      -5.8      4.900      7.666
REMARK  Name = 
REMARK  6 active torsions:
REMARK  status: ('A' for Active; 'I' for Inactive)
REMARK    1  A    between atoms: C_1  and  N_2
REMARK    2  A    between atoms: N_2  and  C_17
REMARK    3  A    between atoms: C_3  and  C_5
REMARK    4  A    between atoms: C_5  and  O_6
REMARK    5  A    between atoms: O_6  and  C_7
REMARK    6  A    between atoms: C_22  and  N_23
REMARK                            x       y       z     vdW  Elec       q    Type
REMARK                         _______ _______ _______ _____ _____    ______ ____
ROOT
ATOM      1  C   UNL     1      -0.502  14.438  18.678  0.00  0.00    +0.000 C 
ATOM      2  N   UNL     1       0.029  14.378  20.068  0.00  0.00    +0.000 N 
ATOM      3  C   UNL     1      -0.377  15.453  20.851  0.00  0.00    +0.000 C 
ATOM      4  O   UNL     1      -1.196  16.292  20.455  0.00  0.00    +0.000 OA
ENDROOT
BRANCH   2   5
ATOM      5  C   UNL     1       0.909  13.126  20.550  0.00  0.00    +0.000 C 
ATOM      6  C   UNL     1       2.255  13.098  19.342  0.00  0.00    +0.000 C 
ATOM      7  C   UNL     1       2.420  11.757  18.102  0.00  0.00    +0.000 C 
ATOM      8  C   UNL     1       1.517  10.098  18.211  0.00  0.00    +0.000 C 
ATOM      9  C   UNL     1       0.370   9.776  19.744  0.00  0.00    +0.000 C 
ATOM     10  C   UNL     1      -0.048  11.408  20.905  0.00  0.00    +0.000 C 
BRANCH  10  11
ATOM     11  N   UNL     1       0.254  10.918  22.199  0.00  0.00    +0.000 NA
ATOM     12  C   UNL     1       0.399   9.572  21.705  0.00  0.00    +0.000 C 
ATOM     13  C   UNL     1       0.009   9.559  20.063  0.00  0.00    +0.000 C 
ATOM     14  C   UNL     1      -0.647  11.269  19.022  0.00  0.00    +0.000 C 
ATOM     15  C   UNL     1      -1.874  12.525  19.597  0.00  0.00    +0.000 C 
ATOM     16  C   UNL     1      -2.152  13.008  21.169  0.00  0.00    +0.000 C 
ATOM     17  C   UNL     1      -2.177  12.075  22.476  0.00  0.00    +0.000 C 
ATOM     18  C   UNL     1      -0.923  11.258  23.033  0.00  0.00    +0.000 C 
ENDBRANCH  10  11
ENDBRANCH   2   5
BRANCH   3  19
ATOM     19  C   UNL     1       0.245  15.623  22.205  0.00  0.00    +0.000 C 
BRANCH  19  20
ATOM     20  O   UNL     1       1.247  16.626  22.090  0.00  0.00    +0.000 OA
BRANCH  20  21
ATOM     21  C   UNL     1       2.496  16.204  21.722  0.00  0.00    +0.000 A 
ATOM     22  C   UNL     1       3.266  15.339  22.495  0.00  0.00    +0.000 A 
ATOM     23  C   UNL     1       4.526  14.925  22.057  0.00  0.00    +0.000 A 
ATOM     24 CL   UNL     1       5.391  13.846  23.099  0.00  0.00    +0.000 Cl
ATOM     25  C   UNL     1       5.035  15.369  20.830  0.00  0.00    +0.000 A 
ATOM     26 CL   UNL     1       6.598  14.830  20.302  0.00  0.00    +0.000 Cl
ATOM     27  C   UNL     1       4.264  16.243  20.040  0.00  0.00    +0.000 A 
ATOM     28 CL   UNL     1       4.877  16.802  18.508  0.00  0.00    +0.000 Cl
ATOM     29  C   UNL     1       2.995  16.659  20.486  0.00  0.00    +0.000 A 
ATOM     30 CL   UNL     1       2.019  17.738  19.531  0.00  0.00    +0.000 Cl
ENDBRANCH  20  21
ENDBRANCH  19  20
ENDBRANCH   3  19
TORSDOF 5
ENDMDL
MODEL 8
REMARK VINA RESULT:      -5.8      4.053      6.539
REMARK  Name = 
REMARK  6 active torsions:
REMARK  status: ('A' for Active; 'I' for Inactive)
REMARK    1  A    between atoms: C_1  and  N_2
REMARK    2  A    between atoms: N_2  and  C_17
REMARK    3  A    between atoms: C_3  and  C_5
REMARK    4  A    between atoms: C_5  and  O_6
REMARK    5  A    between atoms: O_6  and  C_7
REMARK    6  A    between atoms: C_22  and  N_23
REMARK                            x       y       z     vdW  Elec       q    Type
REMARK                         _______ _______ _______ _____ _____    ______ ____
ROOT
ATOM      1  C   UNL     1       1.696  14.813  21.833  0.00  0.00    +0.000 C 
ATOM      2  N   UNL     1       0.352  14.786  21.192  0.00  0.00    +0.000 N 
ATOM      3  C   UNL     1      -0.681  14.611  22.106  0.00  0.00    +0.000 C 
ATOM      4  O   UNL     1      -0.494  14.609  23.330  0.00  0.00    +0.000 OA
ENDROOT
BRANCH   2   5
ATOM      5  C   UNL     1       0.199  15.019  19.612  0.00  0.00    +0.000 C 
ATOM      6  C   UNL     1       1.426  13.883  18.922  0.00  0.00    +0.000 C 
ATOM      7  C   UNL     1       2.944  14.483  18.088  0.00  0.00    +0.000 C 
ATOM      8  C   UNL     1       3.186  16.259  17.480  0.00  0.00    +0.000 C 
ATOM      9  C   UNL     1       1.728  17.519  17.723  0.00  0.00    +0.000 C 
ATOM     10  C   UNL     1       0.213  16.904  18.952  0.00  0.00    +0.000 C 
BRANCH  10  11
ATOM     11  N   UNL     1      -0.924  17.169  18.150  0.00  0.00    +0.000 NA
ATOM     12  C   UNL     1      -0.130  17.869  17.174  0.00  0.00    +0.000 C 
ATOM     13  C   UNL     1       1.459  17.951  17.735  0.00  0.00    +0.000 C 
ATOM     14  C   UNL     1       2.059  17.193  19.607  0.00  0.00    +0.000 C 
ATOM     15  C   UNL     1       1.177  17.372  21.220  0.00  0.00    +0.000 C 
ATOM     16  C   UNL     1      -0.472  17.475  21.455  0.00  0.00    +0.000 C 
ATOM     17  C   UNL     1      -1.528  18.273  20.546  0.00  0.00    +0.000 C 
ATOM     18  C   UNL     1      -1.846  17.940  19.017  0.00  0.00    +0.000 C 
ENDBRANCH  10  11
ENDBRANCH   2   5
BRANCH   3  19
ATOM     19  C   UNL     1      -2.064  14.365  21.580  0.00  0.00    +0.000 C 
BRANCH  19  20
ATOM     20  O   UNL     1      -2.486  13.098  22.069  0.00  0.00    +0.000 OA
BRANCH  20  21
ATOM     21  C   UNL     1      -1.669  12.034  21.799  0.00  0.00    +0.000 A 
ATOM     22  C   UNL     1      -1.041  11.285  22.792  0.00  0.00    +0.000 A 
ATOM     23  C   UNL     1      -0.235  10.194  22.457  0.00  0.00    +0.000 A 
ATOM     24 CL   UNL     1       0.490   9.335  23.773  0.00  0.00    +0.000 Cl
ATOM     25  C   UNL     1      -0.049   9.832  21.117  0.00  0.00    +0.000 A 
ATOM     26 CL   UNL     1       0.946   8.464  20.727  0.00  0.00    +0.000 Cl
ATOM     27  C   UNL     1      -0.680  10.581  20.106  0.00  0.00    +0.000 A 
ATOM     28 CL   UNL     1      -0.465  10.142  18.434  0.00  0.00    +0.000 Cl
ATOM     29  C   UNL     1      -1.490  11.680  20.448  0.00  0.00    +0.000 A 
ATOM     30 CL   UNL     1      -2.284  12.625  19.220  0.00  0.00    +0.000 Cl
ENDBRANCH  20  21
ENDBRANCH  19  20
ENDBRANCH   3  19
TORSDOF 5
ENDMDL
MODEL 9
REMARK VINA RESULT:      -5.7      3.370      5.665
REMARK  Name = 
REMARK  6 active torsions:
REMARK  status: ('A' for Active; 'I' for Inactive)
REMARK    1  A    between atoms: C_1  and  N_2
REMARK    2  A    between atoms: N_2  and  C_17
REMARK    3  A    between atoms: C_3  and  C_5
REMARK    4  A    between atoms: C_5  and  O_6
REMARK    5  A    between atoms: O_6  and  C_7
REMARK    6  A    between atoms: C_22  and  N_23
REMARK                            x       y       z     vdW  Elec       q    Type
REMARK                         _______ _______ _______ _____ _____    ______ ____
ROOT
ATOM      1  C   UNL     1       1.009  15.813  22.347  0.00  0.00    +0.000 C 
ATOM      2  N   UNL     1       1.158  15.168  21.012  0.00  0.00    +0.000 N 
ATOM      3  C   UNL     1      -0.061  14.923  20.390  0.00  0.00    +0.000 C 
ATOM      4  O   UNL     1      -1.137  15.322  20.854  0.00  0.00    +0.000 OA
ENDROOT
BRANCH   2   5
ATOM      5  C   UNL     1       2.614  14.890  20.401  0.00  0.00    +0.000 C 
ATOM      6  C   UNL     1       3.470  14.070  21.768  0.00  0.00    +0.000 C 
ATOM      7  C   UNL     1       4.846  14.875  22.674  0.00  0.00    +0.000 C 
ATOM      8  C   UNL     1       5.787  16.389  22.042  0.00  0.00    +0.000 C 
ATOM      9  C   UNL     1       5.291  17.123  20.314  0.00  0.00    +0.000 C 
ATOM     10  C   UNL     1       3.548  16.415  19.510  0.00  0.00    +0.000 C 
BRANCH  10  11
ATOM     11  N   UNL     1       3.963  16.063  18.203  0.00  0.00    +0.000 NA
ATOM     12  C   UNL     1       5.252  16.676  18.397  0.00  0.00    +0.000 C 
ATOM     13  C   UNL     1       5.268  17.420  19.912  0.00  0.00    +0.000 C 
ATOM     14  C   UNL     1       3.598  17.455  21.195  0.00  0.00    +0.000 C 
ATOM     15  C   UNL     1       1.841  17.788  20.733  0.00  0.00    +0.000 C 
ATOM     16  C   UNL     1       1.097  17.416  19.286  0.00  0.00    +0.000 C 
ATOM     17  C   UNL     1       1.730  17.542  17.816  0.00  0.00    +0.000 C 
ATOM     18  C   UNL     1       2.987  16.707  17.293  0.00  0.00    +0.000 C 
ENDBRANCH  10  11
ENDBRANCH   2   5
BRANCH   3  19
ATOM     19  C   UNL     1      -0.068  14.099  19.137  0.00  0.00    +0.000 C 
BRANCH  19  20
ATOM     20  O   UNL     1      -0.971  13.020  19.342  0.00  0.00    +0.000 OA
BRANCH  20  21
ATOM     21  C   UNL     1      -0.418  11.809  19.658  0.00  0.00    +0.000 A 
ATOM     22  C   UNL     1       0.369  11.077  18.771  0.00  0.00    +0.000 A 
ATOM     23  C   UNL     1       0.927   9.856  19.157  0.00  0.00    +0.000 A 
ATOM     24 CL   UNL     1       1.890   9.037  17.974  0.00  0.00    +0.000 Cl
ATOM     25  C   UNL     1       0.707   9.348  20.444  0.00  0.00    +0.000 A 
ATOM     26 CL   UNL     1       1.422   7.835  20.904  0.00  0.00    +0.000 Cl
ATOM     27  C   UNL     1      -0.085  10.081  21.348  0.00  0.00    +0.000 A 
ATOM     28 CL   UNL     1      -0.364   9.468  22.955  0.00  0.00    +0.000 Cl
ATOM     29  C   UNL     1      -0.646  11.310  20.954  0.00  0.00    +0.000 A 
ATOM     30 CL   UNL     1      -1.630  12.238  22.051  0.00  0.00    +0.000 Cl
ENDBRANCH  20  21
ENDBRANCH  19  20
ENDBRANCH   3  19
TORSDOF 5
ENDMDL
