MODEL 1
REMARK VINA RESULT:      -6.8      0.000      0.000
REMARK  Name = 
REMARK  16 active torsions:
REMARK  status: ('A' for Active; 'I' for Inactive)
REMARK    1  A    between atoms: C_1  and  O_2
REMARK    2  A    between atoms: O_2  and  C_3
REMARK    3  A    between atoms: C_3  and  C_4
REMARK    4  A    between atoms: C_4  and  N_5
REMARK    5  A    between atoms: N_5  and  C_6
REMARK    6  A    between atoms: N_5  and  C_10
REMARK    7  A    between atoms: C_6  and  C_7
REMARK    8  A    between atoms: C_7  and  O_8
REMARK    9  A    between atoms: O_8  and  C_9
REMARK   10  A    between atoms: C_12  and  C_13
REMARK   11  A    between atoms: N_19  and  C_20
REMARK   12  A    between atoms: C_23  and  C_24
REMARK   13  A    between atoms: C_24  and  C_25
REMARK   14  A    between atoms: C_24  and  C_26
REMARK   15  A    between atoms: C_28  and  S_29
REMARK   16  A    between atoms: S_29  and  C_30
REMARK                            x       y       z     vdW  Elec       q    Type
REMARK                         _______ _______ _______ _____ _____    ______ ____
ROOT
ATOM      1  C   UNL     1       3.889   5.905  18.477  0.00  0.00    +0.000 A 
ATOM      2  N   UNL     1       3.554   5.049  19.491  0.00  0.00    +0.000 NA
ATOM      3  C   UNL     1       2.493   5.273  20.284  0.00  0.00    +0.000 A 
ATOM      4  C   UNL     1       2.166   4.243  21.317  0.00  0.00    +0.000 C 
ATOM      5  N   UNL     1       1.715   6.358  20.255  0.00  0.00    +0.000 NA
ATOM      6  C   UNL     1       2.106   7.242  19.317  0.00  0.00    +0.000 A 
ATOM      7  C   UNL     1       3.113   7.082  18.386  0.00  0.00    +0.000 A 
ATOM      8  N   UNL     1       3.114   8.165  17.546  0.00  0.00    +0.000 NA
ATOM      9  N   UNL     1       2.191   9.024  17.973  0.00  0.00    +0.000 NA
ATOM     10  N   UNL     1       1.630   8.527  19.107  0.00  0.00    +0.000 N 
ENDROOT
BRANCH  10  11
ATOM     11  C   UNL     1       0.842   9.304  20.001  0.00  0.00    +0.000 A 
ATOM     12  C   UNL     1       1.239   9.314  21.359  0.00  0.00    +0.000 A 
ATOM     13  C   UNL     1       0.633  10.136  22.296  0.00  0.00    +0.000 A 
ATOM     14  C   UNL     1      -0.397  10.988  21.911  0.00  0.00    +0.000 A 
ATOM     15  C   UNL     1      -0.829  10.951  20.578  0.00  0.00    +0.000 A 
ATOM     16  C   UNL     1      -0.228  10.121  19.603  0.00  0.00    +0.000 A 
BRANCH  14  17
ATOM     17  C   UNL     1      -0.969  11.946  22.937  0.00  0.00    +0.000 C 
ATOM     18  C   UNL     1      -0.643  13.396  22.569  0.00  0.00    +0.000 C 
ATOM     19  C   UNL     1      -2.468  11.741  23.135  0.00  0.00    +0.000 C 
ENDBRANCH  14  17
BRANCH  16  20
ATOM     20  S   UNL     1      -0.950  10.279  17.968  0.00  0.00    +0.000 S 
ATOM     21  C   UNL     1      -1.685  11.937  18.050  0.00  0.00    +0.000 C 
ENDBRANCH  16  20
ENDBRANCH  10  11
BRANCH   1  22
ATOM     22  N   UNL     1       4.946   5.549  17.640  0.00  0.00    +0.000 N 
BRANCH  22  23
ATOM     23  C   UNL     1       4.655   4.635  16.519  0.00  0.00    +0.000 C 
BRANCH  23  24
ATOM     24  C   UNL     1       5.885   3.815  16.065  0.00  0.00    +0.000 C 
BRANCH  24  26
ATOM     25  C   UNL     1       7.114   4.882  14.375  0.00  0.00    +0.000 C 
ATOM     26  O   UNL     1       6.101   3.914  14.650  0.00  0.00    +0.000 OA
ENDBRANCH  24  26
ENDBRANCH  23  24
ENDBRANCH  22  23
BRANCH  22  27
ATOM     27  C   UNL     1       6.311   5.922  18.049  0.00  0.00    +0.000 C 
BRANCH  27  28
ATOM     28  C   UNL     1       6.872   7.245  17.512  0.00  0.00    +0.000 C 
BRANCH  28  29
ATOM     29  O   UNL     1       8.047   7.660  18.213  0.00  0.00    +0.000 OA
ATOM     30  C   UNL     1       8.283   9.052  18.025  0.00  0.00    +0.000 C 
ENDBRANCH  28  29
ENDBRANCH  27  28
ENDBRANCH  22  27
ENDBRANCH   1  22
TORSDOF 10
ENDMDL
MODEL 2
REMARK VINA RESULT:      -6.7      3.260      4.932
REMARK  Name = 
REMARK  16 active torsions:
REMARK  status: ('A' for Active; 'I' for Inactive)
REMARK    1  A    between atoms: C_1  and  O_2
REMARK    2  A    between atoms: O_2  and  C_3
REMARK    3  A    between atoms: C_3  and  C_4
REMARK    4  A    between atoms: C_4  and  N_5
REMARK    5  A    between atoms: N_5  and  C_6
REMARK    6  A    between atoms: N_5  and  C_10
REMARK    7  A    between atoms: C_6  and  C_7
REMARK    8  A    between atoms: C_7  and  O_8
REMARK    9  A    between atoms: O_8  and  C_9
REMARK   10  A    between atoms: C_12  and  C_13
REMARK   11  A    between atoms: N_19  and  C_20
REMARK   12  A    between atoms: C_23  and  C_24
REMARK   13  A    between atoms: C_24  and  C_25
REMARK   14  A    between atoms: C_24  and  C_26
REMARK   15  A    between atoms: C_28  and  S_29
REMARK   16  A    between atoms: S_29  and  C_30
REMARK                            x       y       z     vdW  Elec       q    Type
REMARK                         _______ _______ _______ _____ _____    ______ ____
ROOT
ATOM      1  C   UNL     1       1.721   7.610  20.155  0.00  0.00    +0.000 A 
ATOM      2  N   UNL     1       1.190   7.872  21.389  0.00  0.00    +0.000 NA
ATOM      3  C   UNL     1       0.593   9.043  21.668  0.00  0.00    +0.000 A 
ATOM      4  C   UNL     1      -0.022   9.206  23.020  0.00  0.00    +0.000 C 
ATOM      5  N   UNL     1       0.526  10.096  20.850  0.00  0.00    +0.000 NA
ATOM      6  C   UNL     1       1.136   9.867  19.671  0.00  0.00    +0.000 A 
ATOM      7  C   UNL     1       1.694   8.681  19.235  0.00  0.00    +0.000 A 
ATOM      8  N   UNL     1       2.107   8.839  17.938  0.00  0.00    +0.000 NA
ATOM      9  N   UNL     1       1.892  10.103  17.582  0.00  0.00    +0.000 NA
ATOM     10  N   UNL     1       1.389  10.774  18.653  0.00  0.00    +0.000 N 
ENDROOT
BRANCH  10  11
ATOM     11  C   UNL     1       1.333  12.192  18.737  0.00  0.00    +0.000 A 
ATOM     12  C   UNL     1       2.569  12.877  18.803  0.00  0.00    +0.000 A 
ATOM     13  C   UNL     1       2.646  14.261  18.753  0.00  0.00    +0.000 A 
ATOM     14  C   UNL     1       1.486  15.018  18.632  0.00  0.00    +0.000 A 
ATOM     15  C   UNL     1       0.254  14.350  18.614  0.00  0.00    +0.000 A 
ATOM     16  C   UNL     1       0.148  12.941  18.664  0.00  0.00    +0.000 A 
BRANCH  14  17
ATOM     17  C   UNL     1       1.613  16.521  18.478  0.00  0.00    +0.000 C 
ATOM     18  C   UNL     1       2.695  16.874  17.455  0.00  0.00    +0.000 C 
ATOM     19  C   UNL     1       0.277  17.172  18.129  0.00  0.00    +0.000 C 
ENDBRANCH  14  17
BRANCH  16  20
ATOM     20  S   UNL     1      -1.541  12.336  18.601  0.00  0.00    +0.000 S 
ATOM     21  C   UNL     1      -2.109  12.658  20.294  0.00  0.00    +0.000 C 
ENDBRANCH  16  20
ENDBRANCH  10  11
BRANCH   1  22
ATOM     22  N   UNL     1       2.235   6.335  19.919  0.00  0.00    +0.000 N 
BRANCH  22  23
ATOM     23  C   UNL     1       1.877   5.265  20.869  0.00  0.00    +0.000 C 
BRANCH  23  24
ATOM     24  C   UNL     1       1.008   4.153  20.237  0.00  0.00    +0.000 C 
BRANCH  24  26
ATOM     25  C   UNL     1       2.328   2.751  21.577  0.00  0.00    +0.000 C 
ATOM     26  O   UNL     1       1.030   2.949  21.017  0.00  0.00    +0.000 OA
ENDBRANCH  24  26
ENDBRANCH  23  24
ENDBRANCH  22  23
BRANCH  22  27
ATOM     27  C   UNL     1       3.269   6.185  18.880  0.00  0.00    +0.000 C 
BRANCH  27  28
ATOM     28  C   UNL     1       4.557   5.447  19.267  0.00  0.00    +0.000 C 
BRANCH  28  29
ATOM     29  O   UNL     1       4.532   4.072  18.876  0.00  0.00    +0.000 OA
ATOM     30  C   UNL     1       3.798   3.904  17.667  0.00  0.00    +0.000 C 
ENDBRANCH  28  29
ENDBRANCH  27  28
ENDBRANCH  22  27
ENDBRANCH   1  22
TORSDOF 10
ENDMDL
MODEL 3
REMARK VINA RESULT:      -6.7      0.886      2.305
REMARK  Name = 
REMARK  16 active torsions:
REMARK  status: ('A' for Active; 'I' for Inactive)
REMARK    1  A    between atoms: C_1  and  O_2
REMARK    2  A    between atoms: O_2  and  C_3
REMARK    3  A    between atoms: C_3  and  C_4
REMARK    4  A    between atoms: C_4  and  N_5
REMARK    5  A    between atoms: N_5  and  C_6
REMARK    6  A    between atoms: N_5  and  C_10
REMARK    7  A    between atoms: C_6  and  C_7
REMARK    8  A    between atoms: C_7  and  O_8
REMARK    9  A    between atoms: O_8  and  C_9
REMARK   10  A    between atoms: C_12  and  C_13
REMARK   11  A    between atoms: N_19  and  C_20
REMARK   12  A    between atoms: C_23  and  C_24
REMARK   13  A    between atoms: C_24  and  C_25
REMARK   14  A    between atoms: C_24  and  C_26
REMARK   15  A    between atoms: C_28  and  S_29
REMARK   16  A    between atoms: S_29  and  C_30
REMARK                            x       y       z     vdW  Elec       q    Type
REMARK                         _______ _______ _______ _____ _____    ______ ____
ROOT
ATOM      1  C   UNL     1       4.075   5.155  18.732  0.00  0.00    +0.000 A 
ATOM      2  N   UNL     1       3.616   4.357  19.744  0.00  0.00    +0.000 NA
ATOM      3  C   UNL     1       2.527   4.681  20.462  0.00  0.00    +0.000 A 
ATOM      4  C   UNL     1       2.061   3.709  21.497  0.00  0.00    +0.000 C 
ATOM      5  N   UNL     1       1.835   5.818  20.355  0.00  0.00    +0.000 NA
ATOM      6  C   UNL     1       2.348   6.643  19.422  0.00  0.00    +0.000 A 
ATOM      7  C   UNL     1       3.396   6.382  18.561  0.00  0.00    +0.000 A 
ATOM      8  N   UNL     1       3.529   7.437  17.696  0.00  0.00    +0.000 NA
ATOM      9  N   UNL     1       2.648   8.373  18.041  0.00  0.00    +0.000 NA
ATOM     10  N   UNL     1       1.982   7.953  19.149  0.00  0.00    +0.000 N 
ENDROOT
BRANCH  10  11
ATOM     11  C   UNL     1       1.201   8.811  19.970  0.00  0.00    +0.000 A 
ATOM     12  C   UNL     1       1.468   8.784  21.360  0.00  0.00    +0.000 A 
ATOM     13  C   UNL     1       0.866   9.669  22.241  0.00  0.00    +0.000 A 
ATOM     14  C   UNL     1      -0.028  10.623  21.768  0.00  0.00    +0.000 A 
ATOM     15  C   UNL     1      -0.334  10.626  20.400  0.00  0.00    +0.000 A 
ATOM     16  C   UNL     1       0.264   9.734  19.480  0.00  0.00    +0.000 A 
BRANCH  14  17
ATOM     17  C   UNL     1      -0.589  11.639  22.742  0.00  0.00    +0.000 C 
ATOM     18  C   UNL     1      -0.583  13.042  22.130  0.00  0.00    +0.000 C 
ATOM     19  C   UNL     1      -1.979  11.248  23.235  0.00  0.00    +0.000 C 
ENDBRANCH  14  17
BRANCH  16  20
ATOM     20  S   UNL     1      -0.282   9.962  17.785  0.00  0.00    +0.000 S 
ATOM     21  C   UNL     1      -2.059  10.251  18.008  0.00  0.00    +0.000 C 
ENDBRANCH  16  20
ENDBRANCH  10  11
BRANCH   1  22
ATOM     22  N   UNL     1       5.153   4.699  17.973  0.00  0.00    +0.000 N 
BRANCH  22  23
ATOM     23  C   UNL     1       6.489   4.724  18.599  0.00  0.00    +0.000 C 
BRANCH  23  24
ATOM     24  C   UNL     1       7.016   6.155  18.856  0.00  0.00    +0.000 C 
BRANCH  24  26
ATOM     25  C   UNL     1       7.647   8.007  17.561  0.00  0.00    +0.000 C 
ATOM     26  O   UNL     1       7.859   6.614  17.790  0.00  0.00    +0.000 OA
ENDBRANCH  24  26
ENDBRANCH  23  24
ENDBRANCH  22  23
BRANCH  22  27
ATOM     27  C   UNL     1       4.932   4.435  16.541  0.00  0.00    +0.000 C 
BRANCH  27  28
ATOM     28  C   UNL     1       5.521   5.437  15.540  0.00  0.00    +0.000 C 
BRANCH  28  29
ATOM     29  O   UNL     1       6.641   4.900  14.831  0.00  0.00    +0.000 OA
ATOM     30  C   UNL     1       6.214   3.978  13.834  0.00  0.00    +0.000 C 
ENDBRANCH  28  29
ENDBRANCH  27  28
ENDBRANCH  22  27
ENDBRANCH   1  22
TORSDOF 10
ENDMDL
MODEL 4
REMARK VINA RESULT:      -6.6      3.462      7.765
REMARK  Name = 
REMARK  16 active torsions:
REMARK  status: ('A' for Active; 'I' for Inactive)
REMARK    1  A    between atoms: C_1  and  O_2
REMARK    2  A    between atoms: O_2  and  C_3
REMARK    3  A    between atoms: C_3  and  C_4
REMARK    4  A    between atoms: C_4  and  N_5
REMARK    5  A    between atoms: N_5  and  C_6
REMARK    6  A    between atoms: N_5  and  C_10
REMARK    7  A    between atoms: C_6  and  C_7
REMARK    8  A    between atoms: C_7  and  O_8
REMARK    9  A    between atoms: O_8  and  C_9
REMARK   10  A    between atoms: C_12  and  C_13
REMARK   11  A    between atoms: N_19  and  C_20
REMARK   12  A    between atoms: C_23  and  C_24
REMARK   13  A    between atoms: C_24  and  C_25
REMARK   14  A    between atoms: C_24  and  C_26
REMARK   15  A    between atoms: C_28  and  S_29
REMARK   16  A    between atoms: S_29  and  C_30
REMARK                            x       y       z     vdW  Elec       q    Type
REMARK                         _______ _______ _______ _____ _____    ______ ____
ROOT
ATOM      1  C   UNL     1      -0.288  10.875  19.642  0.00  0.00    +0.000 A 
ATOM      2  N   UNL     1      -0.561  10.709  20.973  0.00  0.00    +0.000 NA
ATOM      3  C   UNL     1       0.098   9.811  21.723  0.00  0.00    +0.000 A 
ATOM      4  C   UNL     1      -0.220   9.755  23.183  0.00  0.00    +0.000 C 
ATOM      5  N   UNL     1       0.999   8.932  21.274  0.00  0.00    +0.000 NA
ATOM      6  C   UNL     1       1.194   9.035  19.945  0.00  0.00    +0.000 A 
ATOM      7  C   UNL     1       0.651   9.976  19.091  0.00  0.00    +0.000 A 
ATOM      8  N   UNL     1       1.191   9.801  17.843  0.00  0.00    +0.000 NA
ATOM      9  N   UNL     1       1.991   8.738  17.880  0.00  0.00    +0.000 NA
ATOM     10  N   UNL     1       1.934   8.197  19.126  0.00  0.00    +0.000 N 
ENDROOT
BRANCH  10  11
ATOM     11  C   UNL     1       2.406   6.893  19.439  0.00  0.00    +0.000 A 
ATOM     12  C   UNL     1       1.762   6.219  20.504  0.00  0.00    +0.000 A 
ATOM     13  C   UNL     1       2.043   4.897  20.814  0.00  0.00    +0.000 A 
ATOM     14  C   UNL     1       2.981   4.192  20.068  0.00  0.00    +0.000 A 
ATOM     15  C   UNL     1       3.659   4.865  19.042  0.00  0.00    +0.000 A 
ATOM     16  C   UNL     1       3.392   6.213  18.707  0.00  0.00    +0.000 A 
BRANCH  14  17
ATOM     17  C   UNL     1       3.190   2.721  20.369  0.00  0.00    +0.000 C 
ATOM     18  C   UNL     1       2.296   2.269  21.526  0.00  0.00    +0.000 C 
ATOM     19  C   UNL     1       2.985   1.852  19.130  0.00  0.00    +0.000 C 
ENDBRANCH  14  17
BRANCH  16  20
ATOM     20  S   UNL     1       4.378   6.831  17.340  0.00  0.00    +0.000 S 
ATOM     21  C   UNL     1       6.006   6.119  17.711  0.00  0.00    +0.000 C 
ENDBRANCH  16  20
ENDBRANCH  10  11
BRANCH   1  22
ATOM     22  N   UNL     1      -0.949  11.895  18.958  0.00  0.00    +0.000 N 
BRANCH  22  23
ATOM     23  C   UNL     1      -2.332  11.636  18.513  0.00  0.00    +0.000 C 
BRANCH  23  24
ATOM     24  C   UNL     1      -2.460  11.473  16.981  0.00  0.00    +0.000 C 
BRANCH  24  26
ATOM     25  C   UNL     1      -2.922   9.824  15.377  0.00  0.00    +0.000 C 
ATOM     26  O   UNL     1      -2.186  10.129  16.561  0.00  0.00    +0.000 OA
ENDBRANCH  24  26
ENDBRANCH  23  24
ENDBRANCH  22  23
BRANCH  22  27
ATOM     27  C   UNL     1      -0.165  13.067  18.532  0.00  0.00    +0.000 C 
BRANCH  27  28
ATOM     28  C   UNL     1       0.072  14.172  19.570  0.00  0.00    +0.000 C 
BRANCH  28  29
ATOM     29  O   UNL     1       1.457  14.502  19.702  0.00  0.00    +0.000 OA
ATOM     30  C   UNL     1       2.159  13.471  20.389  0.00  0.00    +0.000 C 
ENDBRANCH  28  29
ENDBRANCH  27  28
ENDBRANCH  22  27
ENDBRANCH   1  22
TORSDOF 10
ENDMDL
MODEL 5
REMARK VINA RESULT:      -6.5      1.322      2.017
REMARK  Name = 
REMARK  16 active torsions:
REMARK  status: ('A' for Active; 'I' for Inactive)
REMARK    1  A    between atoms: C_1  and  O_2
REMARK    2  A    between atoms: O_2  and  C_3
REMARK    3  A    between atoms: C_3  and  C_4
REMARK    4  A    between atoms: C_4  and  N_5
REMARK    5  A    between atoms: N_5  and  C_6
REMARK    6  A    between atoms: N_5  and  C_10
REMARK    7  A    between atoms: C_6  and  C_7
REMARK    8  A    between atoms: C_7  and  O_8
REMARK    9  A    between atoms: O_8  and  C_9
REMARK   10  A    between atoms: C_12  and  C_13
REMARK   11  A    between atoms: N_19  and  C_20
REMARK   12  A    between atoms: C_23  and  C_24
REMARK   13  A    between atoms: C_24  and  C_25
REMARK   14  A    between atoms: C_24  and  C_26
REMARK   15  A    between atoms: C_28  and  S_29
REMARK   16  A    between atoms: S_29  and  C_30
REMARK                            x       y       z     vdW  Elec       q    Type
REMARK                         _______ _______ _______ _____ _____    ______ ____
ROOT
ATOM      1  C   UNL     1       3.796   5.539  18.740  0.00  0.00    +0.000 A 
ATOM      2  N   UNL     1       3.450   4.752  19.806  0.00  0.00    +0.000 NA
ATOM      3  C   UNL     1       2.402   5.048  20.593  0.00  0.00    +0.000 A 
ATOM      4  C   UNL     1       2.059   4.089  21.686  0.00  0.00    +0.000 C 
ATOM      5  N   UNL     1       1.651   6.149  20.506  0.00  0.00    +0.000 NA
ATOM      6  C   UNL     1       2.055   6.968  19.516  0.00  0.00    +0.000 A 
ATOM      7  C   UNL     1       3.049   6.728  18.587  0.00  0.00    +0.000 A 
ATOM      8  N   UNL     1       3.068   7.760  17.686  0.00  0.00    +0.000 NA
ATOM      9  N   UNL     1       2.172   8.666  18.070  0.00  0.00    +0.000 NA
ATOM     10  N   UNL     1       1.609   8.250  19.235  0.00  0.00    +0.000 N 
ENDROOT
BRANCH  10  11
ATOM     11  C   UNL     1       0.850   9.098  20.088  0.00  0.00    +0.000 A 
ATOM     12  C   UNL     1       1.192   9.094  21.461  0.00  0.00    +0.000 A 
ATOM     13  C   UNL     1       0.615   9.973  22.365  0.00  0.00    +0.000 A 
ATOM     14  C   UNL     1      -0.329  10.897  21.930  0.00  0.00    +0.000 A 
ATOM     15  C   UNL     1      -0.708  10.877  20.581  0.00  0.00    +0.000 A 
ATOM     16  C   UNL     1      -0.136   9.990  19.640  0.00  0.00    +0.000 A 
BRANCH  14  17
ATOM     17  C   UNL     1      -0.864  11.910  22.923  0.00  0.00    +0.000 C 
ATOM     18  C   UNL     1      -0.569  13.338  22.456  0.00  0.00    +0.000 C 
ATOM     19  C   UNL     1      -2.351  11.706  23.199  0.00  0.00    +0.000 C 
ENDBRANCH  14  17
BRANCH  16  20
ATOM     20  S   UNL     1      -0.778  10.183  17.974  0.00  0.00    +0.000 S 
ATOM     21  C   UNL     1      -1.905  11.591  18.177  0.00  0.00    +0.000 C 
ENDBRANCH  16  20
ENDBRANCH  10  11
BRANCH   1  22
ATOM     22  N   UNL     1       4.836   5.108  17.917  0.00  0.00    +0.000 N 
BRANCH  22  23
ATOM     23  C   UNL     1       4.528   4.077  16.908  0.00  0.00    +0.000 C 
BRANCH  23  24
ATOM     24  C   UNL     1       3.824   2.834  17.500  0.00  0.00    +0.000 C 
BRANCH  24  26
ATOM     25  C   UNL     1       1.635   2.373  18.208  0.00  0.00    +0.000 C 
ATOM     26  O   UNL     1       2.449   2.756  17.099  0.00  0.00    +0.000 OA
ENDBRANCH  24  26
ENDBRANCH  23  24
ENDBRANCH  22  23
BRANCH  22  27
ATOM     27  C   UNL     1       6.206   5.538  18.247  0.00  0.00    +0.000 C 
BRANCH  27  28
ATOM     28  C   UNL     1       7.342   5.021  17.354  0.00  0.00    +0.000 C 
BRANCH  28  29
ATOM     29  O   UNL     1       7.479   5.786  16.154  0.00  0.00    +0.000 OA
ATOM     30  C   UNL     1       7.211   4.983  15.009  0.00  0.00    +0.000 C 
ENDBRANCH  28  29
ENDBRANCH  27  28
ENDBRANCH  22  27
ENDBRANCH   1  22
TORSDOF 10
ENDMDL
MODEL 6
REMARK VINA RESULT:      -6.5      3.704      8.441
REMARK  Name = 
REMARK  16 active torsions:
REMARK  status: ('A' for Active; 'I' for Inactive)
REMARK    1  A    between atoms: C_1  and  O_2
REMARK    2  A    between atoms: O_2  and  C_3
REMARK    3  A    between atoms: C_3  and  C_4
REMARK    4  A    between atoms: C_4  and  N_5
REMARK    5  A    between atoms: N_5  and  C_6
REMARK    6  A    between atoms: N_5  and  C_10
REMARK    7  A    between atoms: C_6  and  C_7
REMARK    8  A    between atoms: C_7  and  O_8
REMARK    9  A    between atoms: O_8  and  C_9
REMARK   10  A    between atoms: C_12  and  C_13
REMARK   11  A    between atoms: N_19  and  C_20
REMARK   12  A    between atoms: C_23  and  C_24
REMARK   13  A    between atoms: C_24  and  C_25
REMARK   14  A    between atoms: C_24  and  C_26
REMARK   15  A    between atoms: C_28  and  S_29
REMARK   16  A    between atoms: S_29  and  C_30
REMARK                            x       y       z     vdW  Elec       q    Type
REMARK                         _______ _______ _______ _____ _____    ______ ____
ROOT
ATOM      1  C   UNL     1      -0.253  10.924  19.543  0.00  0.00    +0.000 A 
ATOM      2  N   UNL     1      -0.564  10.760  20.866  0.00  0.00    +0.000 NA
ATOM      3  C   UNL     1       0.053   9.842  21.629  0.00  0.00    +0.000 A 
ATOM      4  C   UNL     1      -0.304   9.789  23.080  0.00  0.00    +0.000 C 
ATOM      5  N   UNL     1       0.942   8.943  21.199  0.00  0.00    +0.000 NA
ATOM      6  C   UNL     1       1.174   9.046  19.876  0.00  0.00    +0.000 A 
ATOM      7  C   UNL     1       0.677  10.003  19.013  0.00  0.00    +0.000 A 
ATOM      8  N   UNL     1       1.244   9.819  17.779  0.00  0.00    +0.000 NA
ATOM      9  N   UNL     1       2.016   8.736  17.831  0.00  0.00    +0.000 NA
ATOM     10  N   UNL     1       1.914   8.192  19.073  0.00  0.00    +0.000 N 
ENDROOT
BRANCH  10  11
ATOM     11  C   UNL     1       2.345   6.875  19.393  0.00  0.00    +0.000 A 
ATOM     12  C   UNL     1       1.652   6.211  20.432  0.00  0.00    +0.000 A 
ATOM     13  C   UNL     1       1.892   4.882  20.743  0.00  0.00    +0.000 A 
ATOM     14  C   UNL     1       2.836   4.158  20.023  0.00  0.00    +0.000 A 
ATOM     15  C   UNL     1       3.561   4.821  19.022  0.00  0.00    +0.000 A 
ATOM     16  C   UNL     1       3.336   6.176  18.687  0.00  0.00    +0.000 A 
BRANCH  14  17
ATOM     17  C   UNL     1       3.000   2.681  20.320  0.00  0.00    +0.000 C 
ATOM     18  C   UNL     1       4.464   2.256  20.176  0.00  0.00    +0.000 C 
ATOM     19  C   UNL     1       2.441   2.311  21.691  0.00  0.00    +0.000 C 
ENDBRANCH  14  17
BRANCH  16  20
ATOM     20  S   UNL     1       4.379   6.778  17.356  0.00  0.00    +0.000 S 
ATOM     21  C   UNL     1       5.386   5.314  16.988  0.00  0.00    +0.000 C 
ENDBRANCH  16  20
ENDBRANCH  10  11
BRANCH   1  22
ATOM     22  N   UNL     1      -0.871  11.962  18.847  0.00  0.00    +0.000 N 
BRANCH  22  23
ATOM     23  C   UNL     1      -0.064  13.160  18.546  0.00  0.00    +0.000 C 
BRANCH  23  24
ATOM     24  C   UNL     1      -0.419  14.375  19.436  0.00  0.00    +0.000 C 
BRANCH  24  26
ATOM     25  C   UNL     1       0.223  16.612  19.732  0.00  0.00    +0.000 C 
ATOM     26  O   UNL     1      -0.145  15.619  18.775  0.00  0.00    +0.000 OA
ENDBRANCH  24  26
ENDBRANCH  23  24
ENDBRANCH  22  23
BRANCH  22  27
ATOM     27  C   UNL     1      -2.330  11.897  18.653  0.00  0.00    +0.000 C 
BRANCH  27  28
ATOM     28  C   UNL     1      -2.856  10.938  17.578  0.00  0.00    +0.000 C 
BRANCH  28  29
ATOM     29  O   UNL     1      -2.311  11.220  16.286  0.00  0.00    +0.000 OA
ATOM     30  C   UNL     1      -3.001  10.492  15.276  0.00  0.00    +0.000 C 
ENDBRANCH  28  29
ENDBRANCH  27  28
ENDBRANCH  22  27
ENDBRANCH   1  22
TORSDOF 10
ENDMDL
MODEL 7
REMARK VINA RESULT:      -6.5      0.836      2.553
REMARK  Name = 
REMARK  16 active torsions:
REMARK  status: ('A' for Active; 'I' for Inactive)
REMARK    1  A    between atoms: C_1  and  O_2
REMARK    2  A    between atoms: O_2  and  C_3
REMARK    3  A    between atoms: C_3  and  C_4
REMARK    4  A    between atoms: C_4  and  N_5
REMARK    5  A    between atoms: N_5  and  C_6
REMARK    6  A    between atoms: N_5  and  C_10
REMARK    7  A    between atoms: C_6  and  C_7
REMARK    8  A    between atoms: C_7  and  O_8
REMARK    9  A    between atoms: O_8  and  C_9
REMARK   10  A    between atoms: C_12  and  C_13
REMARK   11  A    between atoms: N_19  and  C_20
REMARK   12  A    between atoms: C_23  and  C_24
REMARK   13  A    between atoms: C_24  and  C_25
REMARK   14  A    between atoms: C_24  and  C_26
REMARK   15  A    between atoms: C_28  and  S_29
REMARK   16  A    between atoms: S_29  and  C_30
REMARK                            x       y       z     vdW  Elec       q    Type
REMARK                         _______ _______ _______ _____ _____    ______ ____
ROOT
ATOM      1  C   UNL     1       3.950   6.115  18.305  0.00  0.00    +0.000 A 
ATOM      2  N   UNL     1       3.609   5.310  19.358  0.00  0.00    +0.000 NA
ATOM      3  C   UNL     1       2.515   5.542  20.102  0.00  0.00    +0.000 A 
ATOM      4  C   UNL     1       2.187   4.564  21.183  0.00  0.00    +0.000 C 
ATOM      5  N   UNL     1       1.703   6.595  19.983  0.00  0.00    +0.000 NA
ATOM      6  C   UNL     1       2.097   7.437  19.007  0.00  0.00    +0.000 A 
ATOM      7  C   UNL     1       3.140   7.257  18.120  0.00  0.00    +0.000 A 
ATOM      8  N   UNL     1       3.133   8.289  17.218  0.00  0.00    +0.000 NA
ATOM      9  N   UNL     1       2.169   9.139  17.563  0.00  0.00    +0.000 NA
ATOM     10  N   UNL     1       1.586   8.690  18.707  0.00  0.00    +0.000 N 
ENDROOT
BRANCH  10  11
ATOM     11  C   UNL     1       0.743   9.490  19.527  0.00  0.00    +0.000 A 
ATOM     12  C   UNL     1       1.167   9.706  20.859  0.00  0.00    +0.000 A 
ATOM     13  C   UNL     1       0.501  10.574  21.711  0.00  0.00    +0.000 A 
ATOM     14  C   UNL     1      -0.618  11.267  21.263  0.00  0.00    +0.000 A 
ATOM     15  C   UNL     1      -1.072  11.024  19.959  0.00  0.00    +0.000 A 
ATOM     16  C   UNL     1      -0.413  10.143  19.071  0.00  0.00    +0.000 A 
BRANCH  14  17
ATOM     17  C   UNL     1      -1.261  12.283  22.185  0.00  0.00    +0.000 C 
ATOM     18  C   UNL     1      -2.125  13.267  21.393  0.00  0.00    +0.000 C 
ATOM     19  C   UNL     1      -2.055  11.614  23.304  0.00  0.00    +0.000 C 
ENDBRANCH  14  17
BRANCH  16  20
ATOM     20  S   UNL     1      -1.183  10.028  17.454  0.00  0.00    +0.000 S 
ATOM     21  C   UNL     1      -2.946  10.064  17.884  0.00  0.00    +0.000 C 
ENDBRANCH  16  20
ENDBRANCH  10  11
BRANCH   1  22
ATOM     22  N   UNL     1       5.046   5.749  17.525  0.00  0.00    +0.000 N 
BRANCH  22  23
ATOM     23  C   UNL     1       5.861   6.830  16.939  0.00  0.00    +0.000 C 
BRANCH  23  24
ATOM     24  C   UNL     1       7.215   7.033  17.659  0.00  0.00    +0.000 C 
BRANCH  24  26
ATOM     25  C   UNL     1       8.275   9.081  18.091  0.00  0.00    +0.000 C 
ATOM     26  O   UNL     1       7.967   8.114  17.088  0.00  0.00    +0.000 OA
ENDBRANCH  24  26
ENDBRANCH  23  24
ENDBRANCH  22  23
BRANCH  22  27
ATOM     27  C   UNL     1       5.191   4.330  17.154  0.00  0.00    +0.000 C 
BRANCH  27  28
ATOM     28  C   UNL     1       6.068   4.005  15.938  0.00  0.00    +0.000 C 
BRANCH  28  29
ATOM     29  O   UNL     1       5.352   4.130  14.706  0.00  0.00    +0.000 OA
ATOM     30  C   UNL     1       6.214   3.905  13.595  0.00  0.00    +0.000 C 
ENDBRANCH  28  29
ENDBRANCH  27  28
ENDBRANCH  22  27
ENDBRANCH   1  22
TORSDOF 10
ENDMDL
MODEL 8
REMARK VINA RESULT:      -6.4      3.589      7.884
REMARK  Name = 
REMARK  16 active torsions:
REMARK  status: ('A' for Active; 'I' for Inactive)
REMARK    1  A    between atoms: C_1  and  O_2
REMARK    2  A    between atoms: O_2  and  C_3
REMARK    3  A    between atoms: C_3  and  C_4
REMARK    4  A    between atoms: C_4  and  N_5
REMARK    5  A    between atoms: N_5  and  C_6
REMARK    6  A    between atoms: N_5  and  C_10
REMARK    7  A    between atoms: C_6  and  C_7
REMARK    8  A    between atoms: C_7  and  O_8
REMARK    9  A    between atoms: O_8  and  C_9
REMARK   10  A    between atoms: C_12  and  C_13
REMARK   11  A    between atoms: N_19  and  C_20
REMARK   12  A    between atoms: C_23  and  C_24
REMARK   13  A    between atoms: C_24  and  C_25
REMARK   14  A    between atoms: C_24  and  C_26
REMARK   15  A    between atoms: C_28  and  S_29
REMARK   16  A    between atoms: S_29  and  C_30
REMARK                            x       y       z     vdW  Elec       q    Type
REMARK                         _______ _______ _______ _____ _____    ______ ____
ROOT
ATOM      1  C   UNL     1       0.024  10.727  19.553  0.00  0.00    +0.000 A 
ATOM      2  N   UNL     1      -0.258  10.461  20.866  0.00  0.00    +0.000 NA
ATOM      3  C   UNL     1       0.375   9.487  21.542  0.00  0.00    +0.000 A 
ATOM      4  C   UNL     1       0.050   9.321  22.991  0.00  0.00    +0.000 C 
ATOM      5  N   UNL     1       1.253   8.625  21.024  0.00  0.00    +0.000 NA
ATOM      6  C   UNL     1       1.455   8.830  19.708  0.00  0.00    +0.000 A 
ATOM      7  C   UNL     1       0.940   9.851  18.932  0.00  0.00    +0.000 A 
ATOM      8  N   UNL     1       1.479   9.764  17.675  0.00  0.00    +0.000 NA
ATOM      9  N   UNL     1       2.251   8.680  17.626  0.00  0.00    +0.000 NA
ATOM     10  N   UNL     1       2.176   8.042  18.824  0.00  0.00    +0.000 N 
ENDROOT
BRANCH  10  11
ATOM     11  C   UNL     1       2.612   6.704  19.031  0.00  0.00    +0.000 A 
ATOM     12  C   UNL     1       1.877   5.929  19.958  0.00  0.00    +0.000 A 
ATOM     13  C   UNL     1       2.123   4.577  20.144  0.00  0.00    +0.000 A 
ATOM     14  C   UNL     1       3.116   3.943  19.406  0.00  0.00    +0.000 A 
ATOM     15  C   UNL     1       3.882   4.713  18.519  0.00  0.00    +0.000 A 
ATOM     16  C   UNL     1       3.652   6.093  18.312  0.00  0.00    +0.000 A 
BRANCH  14  17
ATOM     17  C   UNL     1       3.291   2.445  19.560  0.00  0.00    +0.000 C 
ATOM     18  C   UNL     1       3.269   1.751  18.195  0.00  0.00    +0.000 C 
ATOM     19  C   UNL     1       4.552   2.096  20.346  0.00  0.00    +0.000 C 
ENDBRANCH  14  17
BRANCH  16  20
ATOM     20  S   UNL     1       4.753   6.841  17.108  0.00  0.00    +0.000 S 
ATOM     21  C   UNL     1       6.359   6.161  17.607  0.00  0.00    +0.000 C 
ENDBRANCH  16  20
ENDBRANCH  10  11
BRANCH   1  22
ATOM     22  N   UNL     1      -0.609  11.817  18.954  0.00  0.00    +0.000 N 
BRANCH  22  23
ATOM     23  C   UNL     1      -1.464  11.552  17.782  0.00  0.00    +0.000 C 
BRANCH  23  24
ATOM     24  C   UNL     1      -2.928  11.223  18.155  0.00  0.00    +0.000 C 
BRANCH  24  26
ATOM     25  C   UNL     1      -3.273  10.915  15.855  0.00  0.00    +0.000 C 
ATOM     26  O   UNL     1      -3.565  10.411  17.159  0.00  0.00    +0.000 OA
ENDBRANCH  24  26
ENDBRANCH  23  24
ENDBRANCH  22  23
BRANCH  22  27
ATOM     27  C   UNL     1      -0.214  13.170  19.382  0.00  0.00    +0.000 C 
BRANCH  27  28
ATOM     28  C   UNL     1       1.195  13.343  19.965  0.00  0.00    +0.000 C 
BRANCH  28  29
ATOM     29  O   UNL     1       2.061  14.061  19.083  0.00  0.00    +0.000 OA
ATOM     30  C   UNL     1       2.661  13.182  18.137  0.00  0.00    +0.000 C 
ENDBRANCH  28  29
ENDBRANCH  27  28
ENDBRANCH  22  27
ENDBRANCH   1  22
TORSDOF 10
ENDMDL
MODEL 9
REMARK VINA RESULT:      -6.4      3.179      4.886
REMARK  Name = 
REMARK  16 active torsions:
REMARK  status: ('A' for Active; 'I' for Inactive)
REMARK    1  A    between atoms: C_1  and  O_2
REMARK    2  A    between atoms: O_2  and  C_3
REMARK    3  A    between atoms: C_3  and  C_4
REMARK    4  A    between atoms: C_4  and  N_5
REMARK    5  A    between atoms: N_5  and  C_6
REMARK    6  A    between atoms: N_5  and  C_10
REMARK    7  A    between atoms: C_6  and  C_7
REMARK    8  A    between atoms: C_7  and  O_8
REMARK    9  A    between atoms: O_8  and  C_9
REMARK   10  A    between atoms: C_12  and  C_13
REMARK   11  A    between atoms: N_19  and  C_20
REMARK   12  A    between atoms: C_23  and  C_24
REMARK   13  A    between atoms: C_24  and  C_25
REMARK   14  A    between atoms: C_24  and  C_26
REMARK   15  A    between atoms: C_28  and  S_29
REMARK   16  A    between atoms: S_29  and  C_30
REMARK                            x       y       z     vdW  Elec       q    Type
REMARK                         _______ _______ _______ _____ _____    ______ ____
ROOT
ATOM      1  C   UNL     1       1.739   7.702  20.167  0.00  0.00    +0.000 A 
ATOM      2  N   UNL     1       1.280   7.967  21.430  0.00  0.00    +0.000 NA
ATOM      3  C   UNL     1       0.711   9.143  21.743  0.00  0.00    +0.000 A 
ATOM      4  C   UNL     1       0.175   9.310  23.128  0.00  0.00    +0.000 C 
ATOM      5  N   UNL     1       0.607  10.198  20.930  0.00  0.00    +0.000 NA
ATOM      6  C   UNL     1       1.146   9.964  19.718  0.00  0.00    +0.000 A 
ATOM      7  C   UNL     1       1.669   8.774  19.251  0.00  0.00    +0.000 A 
ATOM      8  N   UNL     1       2.009   8.930  17.933  0.00  0.00    +0.000 NA
ATOM      9  N   UNL     1       1.784  10.196  17.591  0.00  0.00    +0.000 NA
ATOM     10  N   UNL     1       1.349  10.870  18.688  0.00  0.00    +0.000 N 
ENDROOT
BRANCH  10  11
ATOM     11  C   UNL     1       1.310  12.289  18.776  0.00  0.00    +0.000 A 
ATOM     12  C   UNL     1       2.537  12.973  18.611  0.00  0.00    +0.000 A 
ATOM     13  C   UNL     1       2.604  14.356  18.543  0.00  0.00    +0.000 A 
ATOM     14  C   UNL     1       1.442  15.114  18.634  0.00  0.00    +0.000 A 
ATOM     15  C   UNL     1       0.227  14.447  18.845  0.00  0.00    +0.000 A 
ATOM     16  C   UNL     1       0.132  13.038  18.920  0.00  0.00    +0.000 A 
BRANCH  14  17
ATOM     17  C   UNL     1       1.539  16.616  18.454  0.00  0.00    +0.000 C 
ATOM     18  C   UNL     1       2.640  16.975  17.454  0.00  0.00    +0.000 C 
ATOM     19  C   UNL     1       0.199  17.229  18.056  0.00  0.00    +0.000 C 
ENDBRANCH  14  17
BRANCH  16  20
ATOM     20  S   UNL     1      -1.540  12.434  19.170  0.00  0.00    +0.000 S 
ATOM     21  C   UNL     1      -1.911  11.699  17.553  0.00  0.00    +0.000 C 
ENDBRANCH  16  20
ENDBRANCH  10  11
BRANCH   1  22
ATOM     22  N   UNL     1       2.228   6.423  19.902  0.00  0.00    +0.000 N 
BRANCH  22  23
ATOM     23  C   UNL     1       2.925   6.210  18.619  0.00  0.00    +0.000 C 
BRANCH  23  24
ATOM     24  C   UNL     1       4.282   5.485  18.775  0.00  0.00    +0.000 C 
BRANCH  24  26
ATOM     25  C   UNL     1       4.829   4.297  16.827  0.00  0.00    +0.000 C 
ATOM     26  O   UNL     1       4.277   4.198  18.139  0.00  0.00    +0.000 OA
ENDBRANCH  24  26
ENDBRANCH  23  24
ENDBRANCH  22  23
BRANCH  22  27
ATOM     27  C   UNL     1       1.831   5.327  20.802  0.00  0.00    +0.000 C 
BRANCH  27  28
ATOM     28  C   UNL     1       0.994   4.189  20.202  0.00  0.00    +0.000 C 
BRANCH  28  29
ATOM     29  O   UNL     1       1.744   2.980  20.061  0.00  0.00    +0.000 OA
ATOM     30  C   UNL     1       1.370   2.289  18.874  0.00  0.00    +0.000 C 
ENDBRANCH  28  29
ENDBRANCH  27  28
ENDBRANCH  22  27
ENDBRANCH   1  22
TORSDOF 10
ENDMDL
