MODEL 1
REMARK VINA RESULT:      -8.7      0.000      0.000
REMARK  Name = 
REMARK  9 active torsions:
REMARK  status: ('A' for Active; 'I' for Inactive)
REMARK    1  A    between atoms: C_1  and  C_2
REMARK    2  A    between atoms: C_4  and  C_5
REMARK    3  A    between atoms: C_6  and  C_7
REMARK    4  A    between atoms: C_7  and  N_8
REMARK    5  A    between atoms: C_9  and  C_11
REMARK    6  A    between atoms: C_16  and  O_17
REMARK    7  A    between atoms: O_17  and  C_18
REMARK    8  A    between atoms: C_18  and  C_19
REMARK    9  A    between atoms: C_22  and  C_23
REMARK                            x       y       z     vdW  Elec       q    Type
REMARK                         _______ _______ _______ _____ _____    ______ ____
ROOT
ATOM      1  N   UNL     1       5.691   3.570  19.107  0.00  0.00    +0.000 N 
ATOM      2  C   UNL     1       4.750   2.796  19.728  0.00  0.00    +0.000 C 
ATOM      3  O   UNL     1       5.140   2.018  20.603  0.00  0.00    +0.000 OA
ATOM      4  H   UNL     1       6.605   3.480  19.534  0.00  0.00    +0.000 HD
ENDROOT
BRANCH   2   5
ATOM      5  C   UNL     1       3.284   2.963  19.513  0.00  0.00    +0.000 A 
ATOM      6  C   UNL     1       2.698   1.851  18.867  0.00  0.00    +0.000 A 
ATOM      7  C   UNL     1       1.331   1.792  18.606  0.00  0.00    +0.000 A 
ATOM      8  C   UNL     1       0.523   2.852  18.985  0.00  0.00    +0.000 A 
ATOM      9  C   UNL     1       1.087   3.974  19.590  0.00  0.00    +0.000 A 
ATOM     10  C   UNL     1       2.467   4.054  19.863  0.00  0.00    +0.000 A 
BRANCH  10  11
ATOM     11  O   UNL     1       2.998   5.222  20.376  0.00  0.00    +0.000 OA
BRANCH  11  12
ATOM     12  C   UNL     1       2.980   6.325  19.437  0.00  0.00    +0.000 C 
BRANCH  12  13
ATOM     13  C   UNL     1       2.098   7.476  19.832  0.00  0.00    +0.000 A 
ATOM     14  C   UNL     1       1.467   7.706  21.039  0.00  0.00    +0.000 A 
ATOM     15  S   UNL     1       0.586   9.177  20.978  0.00  0.00    +0.000 S 
ATOM     16  C   UNL     1       1.105   9.417  19.360  0.00  0.00    +0.000 A 
ATOM     17  C   UNL     1       0.697  10.629  18.593  0.00  0.00    +0.000 C 
ATOM     18  N   UNL     1       1.867   8.461  18.872  0.00  0.00    +0.000 NA
ENDBRANCH  12  13
ENDBRANCH  11  12
ENDBRANCH  10  11
ENDBRANCH   2   5
BRANCH   1  19
ATOM     19  C   UNL     1       5.572   4.480  18.003  0.00  0.00    +0.000 C 
BRANCH  19  25
ATOM     20  C   UNL     1       8.732   9.369  18.093  0.00  0.00    +0.000 C 
ATOM     21  C   UNL     1       7.897   8.129  18.026  0.00  0.00    +0.000 A 
ATOM     22  C   UNL     1       6.885   7.964  17.164  0.00  0.00    +0.000 A 
ATOM     23  C   UNL     1       6.114   6.733  17.159  0.00  0.00    +0.000 A 
ATOM     24  C   UNL     1       4.914   6.724  16.246  0.00  0.00    +0.000 C 
ATOM     25  C   UNL     1       6.436   5.697  17.981  0.00  0.00    +0.000 A 
ATOM     26  C   UNL     1       7.573   5.895  18.936  0.00  0.00    +0.000 A 
ATOM     27  O   UNL     1       7.945   5.054  19.745  0.00  0.00    +0.000 OA
ATOM     28  N   UNL     1       8.205   7.115  18.891  0.00  0.00    +0.000 N 
ATOM     29  H   UNL     1       8.953   7.225  19.564  0.00  0.00    +0.000 HD
ENDBRANCH  19  25
ENDBRANCH   1  19
TORSDOF 6
ENDMDL
MODEL 2
REMARK VINA RESULT:      -8.5      0.794      1.175
REMARK  Name = 
REMARK  9 active torsions:
REMARK  status: ('A' for Active; 'I' for Inactive)
REMARK    1  A    between atoms: C_1  and  C_2
REMARK    2  A    between atoms: C_4  and  C_5
REMARK    3  A    between atoms: C_6  and  C_7
REMARK    4  A    between atoms: C_7  and  N_8
REMARK    5  A    between atoms: C_9  and  C_11
REMARK    6  A    between atoms: C_16  and  O_17
REMARK    7  A    between atoms: O_17  and  C_18
REMARK    8  A    between atoms: C_18  and  C_19
REMARK    9  A    between atoms: C_22  and  C_23
REMARK                            x       y       z     vdW  Elec       q    Type
REMARK                         _______ _______ _______ _____ _____    ______ ____
ROOT
ATOM      1  N   UNL     1       5.853   3.569  19.109  0.00  0.00    +0.000 N 
ATOM      2  C   UNL     1       4.799   2.928  19.699  0.00  0.00    +0.000 C 
ATOM      3  O   UNL     1       5.038   2.223  20.684  0.00  0.00    +0.000 OA
ATOM      4  H   UNL     1       6.710   3.465  19.640  0.00  0.00    +0.000 HD
ENDROOT
BRANCH   2   5
ATOM      5  C   UNL     1       3.378   3.166  19.311  0.00  0.00    +0.000 A 
ATOM      6  C   UNL     1       2.702   1.975  18.962  0.00  0.00    +0.000 A 
ATOM      7  C   UNL     1       1.355   1.976  18.605  0.00  0.00    +0.000 A 
ATOM      8  C   UNL     1       0.660   3.174  18.587  0.00  0.00    +0.000 A 
ATOM      9  C   UNL     1       1.319   4.365  18.893  0.00  0.00    +0.000 A 
ATOM     10  C   UNL     1       2.680   4.387  19.256  0.00  0.00    +0.000 A 
BRANCH  10  11
ATOM     11  O   UNL     1       3.316   5.596  19.458  0.00  0.00    +0.000 OA
BRANCH  11  12
ATOM     12  C   UNL     1       2.921   6.621  18.512  0.00  0.00    +0.000 C 
BRANCH  12  13
ATOM     13  C   UNL     1       2.147   7.763  19.107  0.00  0.00    +0.000 A 
ATOM     14  C   UNL     1       1.705   8.919  18.494  0.00  0.00    +0.000 A 
ATOM     15  S   UNL     1       0.852   9.897  19.617  0.00  0.00    +0.000 S 
ATOM     16  C   UNL     1       1.117   8.721  20.838  0.00  0.00    +0.000 A 
ATOM     17  C   UNL     1       0.585   8.913  22.218  0.00  0.00    +0.000 C 
ATOM     18  N   UNL     1       1.814   7.672  20.459  0.00  0.00    +0.000 NA
ENDBRANCH  12  13
ENDBRANCH  11  12
ENDBRANCH  10  11
ENDBRANCH   2   5
BRANCH   1  19
ATOM     19  C   UNL     1       5.915   4.362  17.915  0.00  0.00    +0.000 C 
BRANCH  19  25
ATOM     20  C   UNL     1       8.718   9.459  18.176  0.00  0.00    +0.000 C 
ATOM     21  C   UNL     1       7.977   8.163  18.065  0.00  0.00    +0.000 A 
ATOM     22  C   UNL     1       7.031   7.930  17.145  0.00  0.00    +0.000 A 
ATOM     23  C   UNL     1       6.349   6.649  17.098  0.00  0.00    +0.000 A 
ATOM     24  C   UNL     1       5.207   6.558  16.117  0.00  0.00    +0.000 C 
ATOM     25  C   UNL     1       6.693   5.636  17.940  0.00  0.00    +0.000 A 
ATOM     26  C   UNL     1       7.756   5.911  18.959  0.00  0.00    +0.000 A 
ATOM     27  O   UNL     1       8.138   5.096  19.790  0.00  0.00    +0.000 OA
ATOM     28  N   UNL     1       8.303   7.172  18.948  0.00  0.00    +0.000 N 
ATOM     29  H   UNL     1       9.001   7.333  19.663  0.00  0.00    +0.000 HD
ENDBRANCH  19  25
ENDBRANCH   1  19
TORSDOF 6
ENDMDL
MODEL 3
REMARK VINA RESULT:      -8.3      1.886      2.494
REMARK  Name = 
REMARK  9 active torsions:
REMARK  status: ('A' for Active; 'I' for Inactive)
REMARK    1  A    between atoms: C_1  and  C_2
REMARK    2  A    between atoms: C_4  and  C_5
REMARK    3  A    between atoms: C_6  and  C_7
REMARK    4  A    between atoms: C_7  and  N_8
REMARK    5  A    between atoms: C_9  and  C_11
REMARK    6  A    between atoms: C_16  and  O_17
REMARK    7  A    between atoms: O_17  and  C_18
REMARK    8  A    between atoms: C_18  and  C_19
REMARK    9  A    between atoms: C_22  and  C_23
REMARK                            x       y       z     vdW  Elec       q    Type
REMARK                         _______ _______ _______ _____ _____    ______ ____
ROOT
ATOM      1  N   UNL     1       5.533   3.777  19.320  0.00  0.00    +0.000 N 
ATOM      2  C   UNL     1       4.661   2.834  19.789  0.00  0.00    +0.000 C 
ATOM      3  O   UNL     1       5.126   1.915  20.469  0.00  0.00    +0.000 OA
ATOM      4  H   UNL     1       6.467   3.655  19.694  0.00  0.00    +0.000 HD
ENDROOT
BRANCH   2   5
ATOM      5  C   UNL     1       3.180   2.952  19.654  0.00  0.00    +0.000 A 
ATOM      6  C   UNL     1       2.608   1.860  18.963  0.00  0.00    +0.000 A 
ATOM      7  C   UNL     1       1.233   1.761  18.763  0.00  0.00    +0.000 A 
ATOM      8  C   UNL     1       0.404   2.759  19.248  0.00  0.00    +0.000 A 
ATOM      9  C   UNL     1       0.953   3.862  19.900  0.00  0.00    +0.000 A 
ATOM     10  C   UNL     1       2.340   3.983  20.113  0.00  0.00    +0.000 A 
BRANCH  10  11
ATOM     11  O   UNL     1       2.849   5.137  20.678  0.00  0.00    +0.000 OA
BRANCH  11  12
ATOM     12  C   UNL     1       1.853   6.170  20.875  0.00  0.00    +0.000 C 
BRANCH  12  13
ATOM     13  C   UNL     1       1.897   7.289  19.872  0.00  0.00    +0.000 A 
ATOM     14  C   UNL     1       2.475   7.302  18.618  0.00  0.00    +0.000 A 
ATOM     15  S   UNL     1       2.231   8.825  17.868  0.00  0.00    +0.000 S 
ATOM     16  C   UNL     1       1.369   9.365  19.250  0.00  0.00    +0.000 A 
ATOM     17  C   UNL     1       0.786  10.736  19.305  0.00  0.00    +0.000 C 
ATOM     18  N   UNL     1       1.279   8.488  20.227  0.00  0.00    +0.000 NA
ENDBRANCH  12  13
ENDBRANCH  11  12
ENDBRANCH  10  11
ENDBRANCH   2   5
BRANCH   1  19
ATOM     19  C   UNL     1       5.322   4.888  18.437  0.00  0.00    +0.000 C 
BRANCH  19  25
ATOM     20  C   UNL     1       7.413   4.914  13.002  0.00  0.00    +0.000 C 
ATOM     21  C   UNL     1       6.840   4.873  14.385  0.00  0.00    +0.000 A 
ATOM     22  C   UNL     1       5.691   4.256  14.690  0.00  0.00    +0.000 A 
ATOM     23  C   UNL     1       5.192   4.260  16.054  0.00  0.00    +0.000 A 
ATOM     24  C   UNL     1       3.822   3.660  16.246  0.00  0.00    +0.000 C 
ATOM     25  C   UNL     1       5.905   4.833  17.063  0.00  0.00    +0.000 A 
ATOM     26  C   UNL     1       7.190   5.515  16.706  0.00  0.00    +0.000 A 
ATOM     27  O   UNL     1       7.910   6.090  17.513  0.00  0.00    +0.000 OA
ATOM     28  N   UNL     1       7.546   5.493  15.378  0.00  0.00    +0.000 N 
ATOM     29  H   UNL     1       8.407   5.982  15.166  0.00  0.00    +0.000 HD
ENDBRANCH  19  25
ENDBRANCH   1  19
TORSDOF 6
ENDMDL
MODEL 4
REMARK VINA RESULT:      -8.0      1.802      2.400
REMARK  Name = 
REMARK  9 active torsions:
REMARK  status: ('A' for Active; 'I' for Inactive)
REMARK    1  A    between atoms: C_1  and  C_2
REMARK    2  A    between atoms: C_4  and  C_5
REMARK    3  A    between atoms: C_6  and  C_7
REMARK    4  A    between atoms: C_7  and  N_8
REMARK    5  A    between atoms: C_9  and  C_11
REMARK    6  A    between atoms: C_16  and  O_17
REMARK    7  A    between atoms: O_17  and  C_18
REMARK    8  A    between atoms: C_18  and  C_19
REMARK    9  A    between atoms: C_22  and  C_23
REMARK                            x       y       z     vdW  Elec       q    Type
REMARK                         _______ _______ _______ _____ _____    ______ ____
ROOT
ATOM      1  N   UNL     1       5.529   3.928  19.315  0.00  0.00    +0.000 N 
ATOM      2  C   UNL     1       4.681   2.955  19.767  0.00  0.00    +0.000 C 
ATOM      3  O   UNL     1       5.157   2.073  20.487  0.00  0.00    +0.000 OA
ATOM      4  H   UNL     1       6.451   3.857  19.731  0.00  0.00    +0.000 HD
ENDROOT
BRANCH   2   5
ATOM      5  C   UNL     1       3.204   3.001  19.565  0.00  0.00    +0.000 A 
ATOM      6  C   UNL     1       2.703   1.835  18.945  0.00  0.00    +0.000 A 
ATOM      7  C   UNL     1       1.342   1.663  18.701  0.00  0.00    +0.000 A 
ATOM      8  C   UNL     1       0.456   2.662  19.070  0.00  0.00    +0.000 A 
ATOM      9  C   UNL     1       0.935   3.837  19.650  0.00  0.00    +0.000 A 
ATOM     10  C   UNL     1       2.307   4.031  19.906  0.00  0.00    +0.000 A 
BRANCH  10  11
ATOM     11  O   UNL     1       2.748   5.246  20.393  0.00  0.00    +0.000 OA
BRANCH  11  12
ATOM     12  C   UNL     1       1.736   5.973  21.133  0.00  0.00    +0.000 C 
BRANCH  12  13
ATOM     13  C   UNL     1       1.467   7.364  20.633  0.00  0.00    +0.000 A 
ATOM     14  C   UNL     1       0.799   8.395  21.264  0.00  0.00    +0.000 A 
ATOM     15  S   UNL     1       0.781   9.790  20.265  0.00  0.00    +0.000 S 
ATOM     16  C   UNL     1       1.666   8.940  19.066  0.00  0.00    +0.000 A 
ATOM     17  C   UNL     1       2.065   9.602  17.791  0.00  0.00    +0.000 C 
ATOM     18  N   UNL     1       1.946   7.689  19.363  0.00  0.00    +0.000 NA
ENDBRANCH  12  13
ENDBRANCH  11  12
ENDBRANCH  10  11
ENDBRANCH   2   5
BRANCH   1  19
ATOM     19  C   UNL     1       5.307   5.009  18.398  0.00  0.00    +0.000 C 
BRANCH  19  25
ATOM     20  C   UNL     1       7.397   4.892  12.965  0.00  0.00    +0.000 C 
ATOM     21  C   UNL     1       6.823   4.888  14.347  0.00  0.00    +0.000 A 
ATOM     22  C   UNL     1       5.666   4.293  14.666  0.00  0.00    +0.000 A 
ATOM     23  C   UNL     1       5.168   4.333  16.030  0.00  0.00    +0.000 A 
ATOM     24  C   UNL     1       3.791   3.755  16.234  0.00  0.00    +0.000 C 
ATOM     25  C   UNL     1       5.889   4.917  17.026  0.00  0.00    +0.000 A 
ATOM     26  C   UNL     1       7.182   5.575  16.654  0.00  0.00    +0.000 A 
ATOM     27  O   UNL     1       7.910   6.157  17.449  0.00  0.00    +0.000 OA
ATOM     28  N   UNL     1       7.538   5.520  15.328  0.00  0.00    +0.000 N 
ATOM     29  H   UNL     1       8.405   5.993  15.105  0.00  0.00    +0.000 HD
ENDBRANCH  19  25
ENDBRANCH   1  19
TORSDOF 6
ENDMDL
MODEL 5
REMARK VINA RESULT:      -8.0      2.380      5.577
REMARK  Name = 
REMARK  9 active torsions:
REMARK  status: ('A' for Active; 'I' for Inactive)
REMARK    1  A    between atoms: C_1  and  C_2
REMARK    2  A    between atoms: C_4  and  C_5
REMARK    3  A    between atoms: C_6  and  C_7
REMARK    4  A    between atoms: C_7  and  N_8
REMARK    5  A    between atoms: C_9  and  C_11
REMARK    6  A    between atoms: C_16  and  O_17
REMARK    7  A    between atoms: O_17  and  C_18
REMARK    8  A    between atoms: C_18  and  C_19
REMARK    9  A    between atoms: C_22  and  C_23
REMARK                            x       y       z     vdW  Elec       q    Type
REMARK                         _______ _______ _______ _____ _____    ______ ____
ROOT
ATOM      1  N   UNL     1       2.033   5.971  18.178  0.00  0.00    +0.000 N 
ATOM      2  C   UNL     1       1.795   4.626  18.236  0.00  0.00    +0.000 C 
ATOM      3  O   UNL     1       1.418   4.068  17.202  0.00  0.00    +0.000 OA
ATOM      4  H   UNL     1       1.969   6.331  17.233  0.00  0.00    +0.000 HD
ENDROOT
BRANCH   2   5
ATOM      5  C   UNL     1       2.122   3.789  19.427  0.00  0.00    +0.000 A 
ATOM      6  C   UNL     1       1.113   3.833  20.416  0.00  0.00    +0.000 A 
ATOM      7  C   UNL     1       1.208   3.091  21.592  0.00  0.00    +0.000 A 
ATOM      8  C   UNL     1       2.321   2.293  21.801  0.00  0.00    +0.000 A 
ATOM      9  C   UNL     1       3.344   2.265  20.854  0.00  0.00    +0.000 A 
ATOM     10  C   UNL     1       3.268   3.007  19.658  0.00  0.00    +0.000 A 
BRANCH  10  11
ATOM     11  O   UNL     1       4.345   3.024  18.794  0.00  0.00    +0.000 OA
BRANCH  11  12
ATOM     12  C   UNL     1       5.372   3.974  19.170  0.00  0.00    +0.000 C 
BRANCH  12  13
ATOM     13  C   UNL     1       5.693   5.003  18.123  0.00  0.00    +0.000 A 
ATOM     14  C   UNL     1       5.176   5.130  16.849  0.00  0.00    +0.000 A 
ATOM     15  S   UNL     1       5.866   6.488  16.059  0.00  0.00    +0.000 S 
ATOM     16  C   UNL     1       6.799   6.824  17.460  0.00  0.00    +0.000 A 
ATOM     17  C   UNL     1       7.719   7.996  17.507  0.00  0.00    +0.000 C 
ATOM     18  N   UNL     1       6.637   5.976  18.453  0.00  0.00    +0.000 NA
ENDBRANCH  12  13
ENDBRANCH  11  12
ENDBRANCH  10  11
ENDBRANCH   2   5
BRANCH   1  19
ATOM     19  C   UNL     1       2.377   6.904  19.212  0.00  0.00    +0.000 C 
BRANCH  19  25
ATOM     20  C   UNL     1       0.541  12.428  19.047  0.00  0.00    +0.000 C 
ATOM     21  C   UNL     1       0.985  11.001  19.132  0.00  0.00    +0.000 A 
ATOM     22  C   UNL     1       0.751  10.217  20.193  0.00  0.00    +0.000 A 
ATOM     23  C   UNL     1       1.216   8.841  20.208  0.00  0.00    +0.000 A 
ATOM     24  C   UNL     1       1.021   8.105  21.510  0.00  0.00    +0.000 C 
ATOM     25  C   UNL     1       1.842   8.296  19.129  0.00  0.00    +0.000 A 
ATOM     26  C   UNL     1       2.092   9.185  17.949  0.00  0.00    +0.000 A 
ATOM     27  O   UNL     1       2.668   8.827  16.929  0.00  0.00    +0.000 OA
ATOM     28  N   UNL     1       1.654  10.483  18.057  0.00  0.00    +0.000 N 
ATOM     29  H   UNL     1       1.858  11.064  17.253  0.00  0.00    +0.000 HD
ENDBRANCH  19  25
ENDBRANCH   1  19
TORSDOF 6
ENDMDL
MODEL 6
REMARK VINA RESULT:      -7.9      1.967      2.526
REMARK  Name = 
REMARK  9 active torsions:
REMARK  status: ('A' for Active; 'I' for Inactive)
REMARK    1  A    between atoms: C_1  and  C_2
REMARK    2  A    between atoms: C_4  and  C_5
REMARK    3  A    between atoms: C_6  and  C_7
REMARK    4  A    between atoms: C_7  and  N_8
REMARK    5  A    between atoms: C_9  and  C_11
REMARK    6  A    between atoms: C_16  and  O_17
REMARK    7  A    between atoms: O_17  and  C_18
REMARK    8  A    between atoms: C_18  and  C_19
REMARK    9  A    between atoms: C_22  and  C_23
REMARK                            x       y       z     vdW  Elec       q    Type
REMARK                         _______ _______ _______ _____ _____    ______ ____
ROOT
ATOM      1  N   UNL     1       2.969   3.596  16.787  0.00  0.00    +0.000 N 
ATOM      2  C   UNL     1       1.944   4.014  17.590  0.00  0.00    +0.000 C 
ATOM      3  O   UNL     1       0.899   4.375  17.040  0.00  0.00    +0.000 OA
ATOM      4  H   UNL     1       2.692   3.533  15.814  0.00  0.00    +0.000 HD
ENDROOT
BRANCH   2   5
ATOM      5  C   UNL     1       1.974   3.901  19.077  0.00  0.00    +0.000 A 
ATOM      6  C   UNL     1       1.737   2.583  19.528  0.00  0.00    +0.000 A 
ATOM      7  C   UNL     1       1.759   2.258  20.883  0.00  0.00    +0.000 A 
ATOM      8  C   UNL     1       2.015   3.252  21.813  0.00  0.00    +0.000 A 
ATOM      9  C   UNL     1       2.215   4.565  21.391  0.00  0.00    +0.000 A 
ATOM     10  C   UNL     1       2.197   4.916  20.026  0.00  0.00    +0.000 A 
BRANCH  10  11
ATOM     11  O   UNL     1       2.304   6.243  19.658  0.00  0.00    +0.000 OA
BRANCH  11  12
ATOM     12  C   UNL     1       1.731   7.158  20.625  0.00  0.00    +0.000 C 
BRANCH  12  13
ATOM     13  C   UNL     1       1.445   8.535  20.096  0.00  0.00    +0.000 A 
ATOM     14  C   UNL     1       1.575   9.010  18.806  0.00  0.00    +0.000 A 
ATOM     15  S   UNL     1       1.102  10.657  18.728  0.00  0.00    +0.000 S 
ATOM     16  C   UNL     1       0.748  10.631  20.407  0.00  0.00    +0.000 A 
ATOM     17  C   UNL     1       0.219  11.842  21.100  0.00  0.00    +0.000 C 
ATOM     18  N   UNL     1       0.983   9.485  21.008  0.00  0.00    +0.000 NA
ENDBRANCH  12  13
ENDBRANCH  11  12
ENDBRANCH  10  11
ENDBRANCH   2   5
BRANCH   1  19
ATOM     19  C   UNL     1       4.315   3.218  17.110  0.00  0.00    +0.000 C 
BRANCH  19  25
ATOM     20  C   UNL     1       8.011   7.618  18.051  0.00  0.00    +0.000 C 
ATOM     21  C   UNL     1       7.070   6.491  17.759  0.00  0.00    +0.000 A 
ATOM     22  C   UNL     1       6.699   6.140  16.520  0.00  0.00    +0.000 A 
ATOM     23  C   UNL     1       5.779   5.036  16.311  0.00  0.00    +0.000 A 
ATOM     24  C   UNL     1       5.325   4.832  14.888  0.00  0.00    +0.000 C 
ATOM     25  C   UNL     1       5.321   4.293  17.356  0.00  0.00    +0.000 A 
ATOM     26  C   UNL     1       5.749   4.695  18.734  0.00  0.00    +0.000 A 
ATOM     27  O   UNL     1       5.388   4.128  19.758  0.00  0.00    +0.000 OA
ATOM     28  N   UNL     1       6.583   5.783  18.823  0.00  0.00    +0.000 N 
ATOM     29  H   UNL     1       6.836   6.043  19.769  0.00  0.00    +0.000 HD
ENDBRANCH  19  25
ENDBRANCH   1  19
TORSDOF 6
ENDMDL
MODEL 7
REMARK VINA RESULT:      -7.9      2.774      5.753
REMARK  Name = 
REMARK  9 active torsions:
REMARK  status: ('A' for Active; 'I' for Inactive)
REMARK    1  A    between atoms: C_1  and  C_2
REMARK    2  A    between atoms: C_4  and  C_5
REMARK    3  A    between atoms: C_6  and  C_7
REMARK    4  A    between atoms: C_7  and  N_8
REMARK    5  A    between atoms: C_9  and  C_11
REMARK    6  A    between atoms: C_16  and  O_17
REMARK    7  A    between atoms: O_17  and  C_18
REMARK    8  A    between atoms: C_18  and  C_19
REMARK    9  A    between atoms: C_22  and  C_23
REMARK                            x       y       z     vdW  Elec       q    Type
REMARK                         _______ _______ _______ _____ _____    ______ ____
ROOT
ATOM      1  N   UNL     1       1.922   5.897  18.202  0.00  0.00    +0.000 N 
ATOM      2  C   UNL     1       1.716   4.547  18.277  0.00  0.00    +0.000 C 
ATOM      3  O   UNL     1       1.321   3.972  17.259  0.00  0.00    +0.000 OA
ATOM      4  H   UNL     1       1.822   6.248  17.256  0.00  0.00    +0.000 HD
ENDROOT
BRANCH   2   5
ATOM      5  C   UNL     1       2.097   3.728  19.465  0.00  0.00    +0.000 A 
ATOM      6  C   UNL     1       1.147   3.810  20.508  0.00  0.00    +0.000 A 
ATOM      7  C   UNL     1       1.298   3.089  21.692  0.00  0.00    +0.000 A 
ATOM      8  C   UNL     1       2.407   2.276  21.853  0.00  0.00    +0.000 A 
ATOM      9  C   UNL     1       3.373   2.211  20.850  0.00  0.00    +0.000 A 
ATOM     10  C   UNL     1       3.241   2.931  19.646  0.00  0.00    +0.000 A 
BRANCH  10  11
ATOM     11  O   UNL     1       4.268   2.912  18.721  0.00  0.00    +0.000 OA
BRANCH  11  12
ATOM     12  C   UNL     1       5.091   4.104  18.749  0.00  0.00    +0.000 C 
BRANCH  12  13
ATOM     13  C   UNL     1       5.295   4.760  17.412  0.00  0.00    +0.000 A 
ATOM     14  C   UNL     1       5.263   6.104  17.095  0.00  0.00    +0.000 A 
ATOM     15  S   UNL     1       5.575   6.327  15.423  0.00  0.00    +0.000 S 
ATOM     16  C   UNL     1       5.740   4.630  15.230  0.00  0.00    +0.000 A 
ATOM     17  C   UNL     1       6.065   4.036  13.901  0.00  0.00    +0.000 C 
ATOM     18  N   UNL     1       5.556   3.925  16.325  0.00  0.00    +0.000 NA
ENDBRANCH  12  13
ENDBRANCH  11  12
ENDBRANCH  10  11
ENDBRANCH   2   5
BRANCH   1  19
ATOM     19  C   UNL     1       2.275   6.847  19.218  0.00  0.00    +0.000 C 
BRANCH  19  25
ATOM     20  C   UNL     1       0.806  12.463  18.762  0.00  0.00    +0.000 C 
ATOM     21  C   UNL     1       1.154  11.016  18.921  0.00  0.00    +0.000 A 
ATOM     22  C   UNL     1       0.822  10.290  19.997  0.00  0.00    +0.000 A 
ATOM     23  C   UNL     1       1.196   8.889  20.085  0.00  0.00    +0.000 A 
ATOM     24  C   UNL     1       0.895   8.219  21.402  0.00  0.00    +0.000 C 
ATOM     25  C   UNL     1       1.835   8.265  19.057  0.00  0.00    +0.000 A 
ATOM     26  C   UNL     1       2.196   9.089  17.860  0.00  0.00    +0.000 A 
ATOM     27  O   UNL     1       2.793   8.656  16.883  0.00  0.00    +0.000 OA
ATOM     28  N   UNL     1       1.837  10.415  17.899  0.00  0.00    +0.000 N 
ATOM     29  H   UNL     1       2.114  10.950  17.085  0.00  0.00    +0.000 HD
ENDBRANCH  19  25
ENDBRANCH   1  19
TORSDOF 6
ENDMDL
MODEL 8
REMARK VINA RESULT:      -7.7      2.282      3.025
REMARK  Name = 
REMARK  9 active torsions:
REMARK  status: ('A' for Active; 'I' for Inactive)
REMARK    1  A    between atoms: C_1  and  C_2
REMARK    2  A    between atoms: C_4  and  C_5
REMARK    3  A    between atoms: C_6  and  C_7
REMARK    4  A    between atoms: C_7  and  N_8
REMARK    5  A    between atoms: C_9  and  C_11
REMARK    6  A    between atoms: C_16  and  O_17
REMARK    7  A    between atoms: O_17  and  C_18
REMARK    8  A    between atoms: C_18  and  C_19
REMARK    9  A    between atoms: C_22  and  C_23
REMARK                            x       y       z     vdW  Elec       q    Type
REMARK                         _______ _______ _______ _____ _____    ______ ____
ROOT
ATOM      1  N   UNL     1       2.889   3.592  16.708  0.00  0.00    +0.000 N 
ATOM      2  C   UNL     1       1.831   3.970  17.488  0.00  0.00    +0.000 C 
ATOM      3  O   UNL     1       0.752   4.172  16.926  0.00  0.00    +0.000 OA
ATOM      4  H   UNL     1       2.614   3.416  15.748  0.00  0.00    +0.000 HD
ENDROOT
BRANCH   2   5
ATOM      5  C   UNL     1       1.882   3.990  18.978  0.00  0.00    +0.000 A 
ATOM      6  C   UNL     1       1.797   2.698  19.544  0.00  0.00    +0.000 A 
ATOM      7  C   UNL     1       1.864   2.497  20.921  0.00  0.00    +0.000 A 
ATOM      8  C   UNL     1       2.013   3.589  21.759  0.00  0.00    +0.000 A 
ATOM      9  C   UNL     1       2.062   4.875  21.223  0.00  0.00    +0.000 A 
ATOM     10  C   UNL     1       1.997   5.102  19.834  0.00  0.00    +0.000 A 
BRANCH  10  11
ATOM     11  O   UNL     1       1.952   6.396  19.352  0.00  0.00    +0.000 OA
BRANCH  11  12
ATOM     12  C   UNL     1       2.382   7.387  20.319  0.00  0.00    +0.000 C 
BRANCH  12  13
ATOM     13  C   UNL     1       1.405   8.505  20.552  0.00  0.00    +0.000 A 
ATOM     14  C   UNL     1       0.925   9.434  19.651  0.00  0.00    +0.000 A 
ATOM     15  S   UNL     1      -0.186  10.491  20.422  0.00  0.00    +0.000 S 
ATOM     16  C   UNL     1       0.036   9.642  21.897  0.00  0.00    +0.000 A 
ATOM     17  C   UNL     1      -0.705  10.036  23.129  0.00  0.00    +0.000 C 
ATOM     18  N   UNL     1       0.896   8.648  21.843  0.00  0.00    +0.000 NA
ENDBRANCH  12  13
ENDBRANCH  11  12
ENDBRANCH  10  11
ENDBRANCH   2   5
BRANCH   1  19
ATOM     19  C   UNL     1       4.269   3.384  17.041  0.00  0.00    +0.000 C 
BRANCH  19  25
ATOM     20  C   UNL     1       7.937   7.844  17.794  0.00  0.00    +0.000 C 
ATOM     21  C   UNL     1       6.990   6.693  17.651  0.00  0.00    +0.000 A 
ATOM     22  C   UNL     1       6.597   5.929  18.679  0.00  0.00    +0.000 A 
ATOM     23  C   UNL     1       5.678   4.824  18.466  0.00  0.00    +0.000 A 
ATOM     24  C   UNL     1       5.424   3.951  19.669  0.00  0.00    +0.000 C 
ATOM     25  C   UNL     1       5.146   4.577  17.237  0.00  0.00    +0.000 A 
ATOM     26  C   UNL     1       5.593   5.443  16.099  0.00  0.00    +0.000 A 
ATOM     27  O   UNL     1       5.213   5.308  14.943  0.00  0.00    +0.000 OA
ATOM     28  N   UNL     1       6.502   6.429  16.401  0.00  0.00    +0.000 N 
ATOM     29  H   UNL     1       6.801   6.982  15.608  0.00  0.00    +0.000 HD
ENDBRANCH  19  25
ENDBRANCH   1  19
TORSDOF 6
ENDMDL
MODEL 9
REMARK VINA RESULT:      -7.7      1.957      2.716
REMARK  Name = 
REMARK  9 active torsions:
REMARK  status: ('A' for Active; 'I' for Inactive)
REMARK    1  A    between atoms: C_1  and  C_2
REMARK    2  A    between atoms: C_4  and  C_5
REMARK    3  A    between atoms: C_6  and  C_7
REMARK    4  A    between atoms: C_7  and  N_8
REMARK    5  A    between atoms: C_9  and  C_11
REMARK    6  A    between atoms: C_16  and  O_17
REMARK    7  A    between atoms: O_17  and  C_18
REMARK    8  A    between atoms: C_18  and  C_19
REMARK    9  A    between atoms: C_22  and  C_23
REMARK                            x       y       z     vdW  Elec       q    Type
REMARK                         _______ _______ _______ _____ _____    ______ ____
ROOT
ATOM      1  N   UNL     1       5.533   3.840  19.361  0.00  0.00    +0.000 N 
ATOM      2  C   UNL     1       4.660   2.867  19.762  0.00  0.00    +0.000 C 
ATOM      3  O   UNL     1       5.122   1.906  20.383  0.00  0.00    +0.000 OA
ATOM      4  H   UNL     1       6.466   3.694  19.732  0.00  0.00    +0.000 HD
ENDROOT
BRANCH   2   5
ATOM      5  C   UNL     1       3.179   2.993  19.627  0.00  0.00    +0.000 A 
ATOM      6  C   UNL     1       2.603   1.909  18.928  0.00  0.00    +0.000 A 
ATOM      7  C   UNL     1       1.227   1.818  18.727  0.00  0.00    +0.000 A 
ATOM      8  C   UNL     1       0.402   2.816  19.218  0.00  0.00    +0.000 A 
ATOM      9  C   UNL     1       0.956   3.913  19.878  0.00  0.00    +0.000 A 
ATOM     10  C   UNL     1       2.344   4.025  20.093  0.00  0.00    +0.000 A 
BRANCH  10  11
ATOM     11  O   UNL     1       2.858   5.173  20.666  0.00  0.00    +0.000 OA
BRANCH  11  12
ATOM     12  C   UNL     1       1.863   6.204  20.885  0.00  0.00    +0.000 C 
BRANCH  12  13
ATOM     13  C   UNL     1       1.891   7.328  19.889  0.00  0.00    +0.000 A 
ATOM     14  C   UNL     1       2.455   7.352  18.628  0.00  0.00    +0.000 A 
ATOM     15  S   UNL     1       2.195   8.879  17.890  0.00  0.00    +0.000 S 
ATOM     16  C   UNL     1       1.345   9.405  19.285  0.00  0.00    +0.000 A 
ATOM     17  C   UNL     1       0.754  10.772  19.354  0.00  0.00    +0.000 C 
ATOM     18  N   UNL     1       1.270   8.522  20.257  0.00  0.00    +0.000 NA
ENDBRANCH  12  13
ENDBRANCH  11  12
ENDBRANCH  10  11
ENDBRANCH   2   5
BRANCH   1  19
ATOM     19  C   UNL     1       5.327   5.006  18.552  0.00  0.00    +0.000 C 
BRANCH  19  25
ATOM     20  C   UNL     1       7.255   4.697  13.067  0.00  0.00    +0.000 C 
ATOM     21  C   UNL     1       6.788   4.819  14.484  0.00  0.00    +0.000 A 
ATOM     22  C   UNL     1       7.317   5.678  15.365  0.00  0.00    +0.000 A 
ATOM     23  C   UNL     1       6.816   5.739  16.727  0.00  0.00    +0.000 A 
ATOM     24  C   UNL     1       7.584   6.639  17.661  0.00  0.00    +0.000 C 
ATOM     25  C   UNL     1       5.761   4.975  17.124  0.00  0.00    +0.000 A 
ATOM     26  C   UNL     1       5.178   4.022  16.126  0.00  0.00    +0.000 A 
ATOM     27  O   UNL     1       4.248   3.262  16.364  0.00  0.00    +0.000 OA
ATOM     28  N   UNL     1       5.758   4.010  14.880  0.00  0.00    +0.000 N 
ATOM     29  H   UNL     1       5.356   3.340  14.236  0.00  0.00    +0.000 HD
ENDBRANCH  19  25
ENDBRANCH   1  19
TORSDOF 6
ENDMDL
