MODEL 1
REMARK VINA RESULT:      -6.8      0.000      0.000
REMARK  Name = 
REMARK  14 active torsions:
REMARK  status: ('A' for Active; 'I' for Inactive)
REMARK    1  A    between atoms: C_1  and  O_2
REMARK    2  A    between atoms: O_2  and  C_3
REMARK    3  A    between atoms: C_6  and  C_7
REMARK    4  A    between atoms: C_7  and  N_8
REMARK    5  A    between atoms: C_7  and  C_15
REMARK    6  A    between atoms: C_17  and  C_18
REMARK    7  A    between atoms: C_18  and  C_19
REMARK    8  A    between atoms: C_18  and  C_20
REMARK    9  A    between atoms: C_18  and  C_21
REMARK   10  A    between atoms: C_23  and  C_24
REMARK   11  A    between atoms: C_24  and  C_25
REMARK   12  A    between atoms: C_24  and  C_26
REMARK   13  A    between atoms: C_24  and  C_27
REMARK   14  A    between atoms: C_28  and  O_29
REMARK                            x       y       z     vdW  Elec       q    Type
REMARK                         _______ _______ _______ _____ _____    ______ ____
ROOT
ATOM      1  C   UNL     1       1.101  11.487  19.391  0.00  0.00    +0.000 C 
ENDROOT
BRANCH   1   2
ATOM      2  N   UNL     1       1.780  12.303  18.363  0.00  0.00    +0.000 N 
ATOM      3  C   UNL     1       2.585  13.364  18.823  0.00  0.00    +0.000 A 
ATOM      4  C   UNL     1       3.294  14.096  17.871  0.00  0.00    +0.000 A 
ATOM      5  C   UNL     1       4.096  15.163  18.277  0.00  0.00    +0.000 A 
ATOM      6  C   UNL     1       4.169  15.482  19.625  0.00  0.00    +0.000 A 
ATOM      7  C   UNL     1       3.428  14.718  20.506  0.00  0.00    +0.000 A 
ATOM      8  N   UNL     1       2.648  13.682  20.130  0.00  0.00    +0.000 NA
ATOM      9  H   UNL     1       1.095  12.732  17.749  0.00  0.00    +0.000 HD
ENDBRANCH   1   2
BRANCH   1  13
ATOM     10  C   UNL     1       2.246   7.279  18.999  0.00  0.00    +0.000 A 
ATOM     11  C   UNL     1       1.715   7.777  20.186  0.00  0.00    +0.000 A 
ATOM     12  C   UNL     1       1.312   9.113  20.284  0.00  0.00    +0.000 A 
ATOM     13  C   UNL     1       1.461  10.001  19.206  0.00  0.00    +0.000 A 
ATOM     14  C   UNL     1       1.988   9.479  18.012  0.00  0.00    +0.000 A 
ATOM     15  C   UNL     1       2.364   8.131  17.904  0.00  0.00    +0.000 A 
BRANCH  10  17
ATOM     16  C   UNL     1       2.186   5.196  20.141  0.00  0.00    +0.000 C 
ATOM     17  O   UNL     1       2.663   5.978  19.054  0.00  0.00    +0.000 OA
ENDBRANCH  10  17
ENDBRANCH   1  13
BRANCH   1  18
ATOM     18  C   UNL     1      -0.419  11.739  19.348  0.00  0.00    +0.000 A 
ATOM     19  C   UNL     1      -1.233  11.150  18.362  0.00  0.00    +0.000 A 
ATOM     20  C   UNL     1      -2.618  11.351  18.326  0.00  0.00    +0.000 A 
ATOM     21  C   UNL     1      -3.189  12.058  19.404  0.00  0.00    +0.000 A 
ATOM     22  C   UNL     1      -2.432  12.686  20.420  0.00  0.00    +0.000 A 
ATOM     23  C   UNL     1      -1.038  12.514  20.347  0.00  0.00    +0.000 A 
BRANCH  20  24
ATOM     24  C   UNL     1      -3.473  10.828  17.157  0.00  0.00    +0.000 C 
ATOM     25  C   UNL     1      -3.805   9.341  17.379  0.00  0.00    +0.000 C 
ATOM     26  C   UNL     1      -4.797  11.617  17.009  0.00  0.00    +0.000 C 
ATOM     27  C   UNL     1      -2.740  10.975  15.801  0.00  0.00    +0.000 C 
ENDBRANCH  20  24
BRANCH  22  28
ATOM     28  C   UNL     1      -3.162  13.458  21.548  0.00  0.00    +0.000 C 
ATOM     29  C   UNL     1      -2.946  12.688  22.867  0.00  0.00    +0.000 C 
ATOM     30  C   UNL     1      -2.679  14.915  21.739  0.00  0.00    +0.000 C 
ATOM     31  C   UNL     1      -4.692  13.572  21.311  0.00  0.00    +0.000 C 
ENDBRANCH  22  28
BRANCH  23  32
ATOM     32  O   UNL     1      -0.204  13.086  21.263  0.00  0.00    +0.000 OA
ATOM     33  H   UNL     1       0.268  12.352  21.702  0.00  0.00    +0.000 HD
ENDBRANCH  23  32
ENDBRANCH   1  18
TORSDOF 7
ENDMDL
MODEL 2
REMARK VINA RESULT:      -6.8      0.376      1.142
REMARK  Name = 
REMARK  14 active torsions:
REMARK  status: ('A' for Active; 'I' for Inactive)
REMARK    1  A    between atoms: C_1  and  O_2
REMARK    2  A    between atoms: O_2  and  C_3
REMARK    3  A    between atoms: C_6  and  C_7
REMARK    4  A    between atoms: C_7  and  N_8
REMARK    5  A    between atoms: C_7  and  C_15
REMARK    6  A    between atoms: C_17  and  C_18
REMARK    7  A    between atoms: C_18  and  C_19
REMARK    8  A    between atoms: C_18  and  C_20
REMARK    9  A    between atoms: C_18  and  C_21
REMARK   10  A    between atoms: C_23  and  C_24
REMARK   11  A    between atoms: C_24  and  C_25
REMARK   12  A    between atoms: C_24  and  C_26
REMARK   13  A    between atoms: C_24  and  C_27
REMARK   14  A    between atoms: C_28  and  O_29
REMARK                            x       y       z     vdW  Elec       q    Type
REMARK                         _______ _______ _______ _____ _____    ______ ____
ROOT
ATOM      1  C   UNL     1       1.131  11.378  19.413  0.00  0.00    +0.000 C 
ENDROOT
BRANCH   1   2
ATOM      2  N   UNL     1       1.807  12.215  18.399  0.00  0.00    +0.000 N 
ATOM      3  C   UNL     1       2.587  13.286  18.877  0.00  0.00    +0.000 A 
ATOM      4  C   UNL     1       3.294  14.038  17.940  0.00  0.00    +0.000 A 
ATOM      5  C   UNL     1       4.073  15.115  18.364  0.00  0.00    +0.000 A 
ATOM      6  C   UNL     1       4.125  15.424  19.714  0.00  0.00    +0.000 A 
ATOM      7  C   UNL     1       3.388  14.639  20.582  0.00  0.00    +0.000 A 
ATOM      8  N   UNL     1       2.631  13.593  20.188  0.00  0.00    +0.000 NA
ATOM      9  H   UNL     1       1.121  12.637  17.781  0.00  0.00    +0.000 HD
ENDBRANCH   1   2
BRANCH   1  13
ATOM     10  C   UNL     1       2.237   7.173  18.902  0.00  0.00    +0.000 A 
ATOM     11  C   UNL     1       1.721   7.645  20.107  0.00  0.00    +0.000 A 
ATOM     12  C   UNL     1       1.330   8.980  20.242  0.00  0.00    +0.000 A 
ATOM     13  C   UNL     1       1.477   9.895  19.186  0.00  0.00    +0.000 A 
ATOM     14  C   UNL     1       1.988   9.399  17.974  0.00  0.00    +0.000 A 
ATOM     15  C   UNL     1       2.353   8.052  17.828  0.00  0.00    +0.000 A 
BRANCH  10  17
ATOM     16  C   UNL     1       3.936   5.604  19.450  0.00  0.00    +0.000 C 
ATOM     17  O   UNL     1       2.643   5.868  18.920  0.00  0.00    +0.000 OA
ENDBRANCH  10  17
ENDBRANCH   1  13
BRANCH   1  18
ATOM     18  C   UNL     1      -0.388  11.643  19.391  0.00  0.00    +0.000 A 
ATOM     19  C   UNL     1      -1.212  11.108  18.383  0.00  0.00    +0.000 A 
ATOM     20  C   UNL     1      -2.596  11.321  18.365  0.00  0.00    +0.000 A 
ATOM     21  C   UNL     1      -3.154  11.980  19.479  0.00  0.00    +0.000 A 
ATOM     22  C   UNL     1      -2.387  12.553  20.520  0.00  0.00    +0.000 A 
ATOM     23  C   UNL     1      -0.995  12.374  20.429  0.00  0.00    +0.000 A 
BRANCH  20  24
ATOM     24  C   UNL     1      -3.461  10.861  17.178  0.00  0.00    +0.000 C 
ATOM     25  C   UNL     1      -4.761  11.685  17.131  0.00  0.00    +0.000 C 
ATOM     26  C   UNL     1      -2.722  11.018  15.827  0.00  0.00    +0.000 C 
ATOM     27  C   UNL     1      -3.830   9.361  17.286  0.00  0.00    +0.000 C 
ENDBRANCH  20  24
BRANCH  22  28
ATOM     28  C   UNL     1      -3.104  13.275  21.687  0.00  0.00    +0.000 C 
ATOM     29  C   UNL     1      -4.622  13.225  21.416  0.00  0.00    +0.000 C 
ATOM     30  C   UNL     1      -2.829  12.664  23.081  0.00  0.00    +0.000 C 
ATOM     31  C   UNL     1      -2.696  14.767  21.818  0.00  0.00    +0.000 C 
ENDBRANCH  22  28
BRANCH  23  32
ATOM     32  O   UNL     1      -0.151  12.895  21.367  0.00  0.00    +0.000 OA
ATOM     33  H   UNL     1       0.490  12.192  21.582  0.00  0.00    +0.000 HD
ENDBRANCH  23  32
ENDBRANCH   1  18
TORSDOF 7
ENDMDL
MODEL 3
REMARK VINA RESULT:      -6.6      0.425      1.222
REMARK  Name = 
REMARK  14 active torsions:
REMARK  status: ('A' for Active; 'I' for Inactive)
REMARK    1  A    between atoms: C_1  and  O_2
REMARK    2  A    between atoms: O_2  and  C_3
REMARK    3  A    between atoms: C_6  and  C_7
REMARK    4  A    between atoms: C_7  and  N_8
REMARK    5  A    between atoms: C_7  and  C_15
REMARK    6  A    between atoms: C_17  and  C_18
REMARK    7  A    between atoms: C_18  and  C_19
REMARK    8  A    between atoms: C_18  and  C_20
REMARK    9  A    between atoms: C_18  and  C_21
REMARK   10  A    between atoms: C_23  and  C_24
REMARK   11  A    between atoms: C_24  and  C_25
REMARK   12  A    between atoms: C_24  and  C_26
REMARK   13  A    between atoms: C_24  and  C_27
REMARK   14  A    between atoms: C_28  and  O_29
REMARK                            x       y       z     vdW  Elec       q    Type
REMARK                         _______ _______ _______ _____ _____    ______ ____
ROOT
ATOM      1  C   UNL     1       1.105  11.614  19.400  0.00  0.00    +0.000 C 
ENDROOT
BRANCH   1   2
ATOM      2  N   UNL     1       1.743  12.422  18.339  0.00  0.00    +0.000 N 
ATOM      3  C   UNL     1       2.423  13.585  18.749  0.00  0.00    +0.000 A 
ATOM      4  C   UNL     1       3.096  14.317  17.772  0.00  0.00    +0.000 A 
ATOM      5  C   UNL     1       3.776  15.482  18.127  0.00  0.00    +0.000 A 
ATOM      6  C   UNL     1       3.766  15.897  19.450  0.00  0.00    +0.000 A 
ATOM      7  C   UNL     1       3.067  15.125  20.359  0.00  0.00    +0.000 A 
ATOM      8  N   UNL     1       2.405  13.994  20.032  0.00  0.00    +0.000 NA
ATOM      9  H   UNL     1       1.043  12.739  17.675  0.00  0.00    +0.000 HD
ENDBRANCH   1   2
BRANCH   1  13
ATOM     10  C   UNL     1       2.159   7.400  18.853  0.00  0.00    +0.000 A 
ATOM     11  C   UNL     1       2.341   8.330  17.832  0.00  0.00    +0.000 A 
ATOM     12  C   UNL     1       2.043   9.681  18.035  0.00  0.00    +0.000 A 
ATOM     13  C   UNL     1       1.517  10.137  19.256  0.00  0.00    +0.000 A 
ATOM     14  C   UNL     1       1.351   9.187  20.278  0.00  0.00    +0.000 A 
ATOM     15  C   UNL     1       1.679   7.836  20.085  0.00  0.00    +0.000 A 
BRANCH  10  17
ATOM     16  C   UNL     1       3.645   5.549  18.978  0.00  0.00    +0.000 C 
ATOM     17  O   UNL     1       2.424   6.104  18.507  0.00  0.00    +0.000 OA
ENDBRANCH  10  17
ENDBRANCH   1  13
BRANCH   1  18
ATOM     18  C   UNL     1      -0.424  11.809  19.368  0.00  0.00    +0.000 A 
ATOM     19  C   UNL     1      -1.220  11.210  18.373  0.00  0.00    +0.000 A 
ATOM     20  C   UNL     1      -2.612  11.360  18.347  0.00  0.00    +0.000 A 
ATOM     21  C   UNL     1      -3.203  12.022  19.442  0.00  0.00    +0.000 A 
ATOM     22  C   UNL     1      -2.465  12.658  20.468  0.00  0.00    +0.000 A 
ATOM     23  C   UNL     1      -1.067  12.540  20.385  0.00  0.00    +0.000 A 
BRANCH  20  24
ATOM     24  C   UNL     1      -3.452  10.829  17.171  0.00  0.00    +0.000 C 
ATOM     25  C   UNL     1      -3.787   9.344  17.399  0.00  0.00    +0.000 C 
ATOM     26  C   UNL     1      -4.773  11.617  17.001  0.00  0.00    +0.000 C 
ATOM     27  C   UNL     1      -2.701  10.967  15.824  0.00  0.00    +0.000 C 
ENDBRANCH  20  24
BRANCH  22  28
ATOM     28  C   UNL     1      -3.218  13.379  21.614  0.00  0.00    +0.000 C 
ATOM     29  C   UNL     1      -4.727  13.329  21.296  0.00  0.00    +0.000 C 
ATOM     30  C   UNL     1      -2.986  12.766  23.015  0.00  0.00    +0.000 C 
ATOM     31  C   UNL     1      -2.814  14.871  21.760  0.00  0.00    +0.000 C 
ENDBRANCH  22  28
BRANCH  23  32
ATOM     32  O   UNL     1      -0.250  13.124  21.310  0.00  0.00    +0.000 OA
ATOM     33  H   UNL     1       0.332  12.418  21.649  0.00  0.00    +0.000 HD
ENDBRANCH  23  32
ENDBRANCH   1  18
TORSDOF 7
ENDMDL
MODEL 4
REMARK VINA RESULT:      -6.6      0.969      3.339
REMARK  Name = 
REMARK  14 active torsions:
REMARK  status: ('A' for Active; 'I' for Inactive)
REMARK    1  A    between atoms: C_1  and  O_2
REMARK    2  A    between atoms: O_2  and  C_3
REMARK    3  A    between atoms: C_6  and  C_7
REMARK    4  A    between atoms: C_7  and  N_8
REMARK    5  A    between atoms: C_7  and  C_15
REMARK    6  A    between atoms: C_17  and  C_18
REMARK    7  A    between atoms: C_18  and  C_19
REMARK    8  A    between atoms: C_18  and  C_20
REMARK    9  A    between atoms: C_18  and  C_21
REMARK   10  A    between atoms: C_23  and  C_24
REMARK   11  A    between atoms: C_24  and  C_25
REMARK   12  A    between atoms: C_24  and  C_26
REMARK   13  A    between atoms: C_24  and  C_27
REMARK   14  A    between atoms: C_28  and  O_29
REMARK                            x       y       z     vdW  Elec       q    Type
REMARK                         _______ _______ _______ _____ _____    ______ ____
ROOT
ATOM      1  C   UNL     1       0.931  11.251  19.663  0.00  0.00    +0.000 C 
ENDROOT
BRANCH   1   2
ATOM      2  N   UNL     1       1.571  11.951  18.529  0.00  0.00    +0.000 N 
ATOM      3  C   UNL     1       2.403  13.044  18.844  0.00  0.00    +0.000 A 
ATOM      4  C   UNL     1       3.075  13.666  17.793  0.00  0.00    +0.000 A 
ATOM      5  C   UNL     1       3.902  14.759  18.054  0.00  0.00    +0.000 A 
ATOM      6  C   UNL     1       4.037  15.212  19.357  0.00  0.00    +0.000 A 
ATOM      7  C   UNL     1       3.329  14.550  20.343  0.00  0.00    +0.000 A 
ATOM      8  N   UNL     1       2.526  13.491  20.108  0.00  0.00    +0.000 NA
ATOM      9  H   UNL     1       0.862  12.324  17.904  0.00  0.00    +0.000 HD
ENDBRANCH   1   2
BRANCH   1  13
ATOM     10  C   UNL     1       2.115   7.037  19.746  0.00  0.00    +0.000 A 
ATOM     11  C   UNL     1       1.456   7.625  20.823  0.00  0.00    +0.000 A 
ATOM     12  C   UNL     1       1.043   8.960  20.766  0.00  0.00    +0.000 A 
ATOM     13  C   UNL     1       1.311   9.759  19.641  0.00  0.00    +0.000 A 
ATOM     14  C   UNL     1       1.966   9.145  18.559  0.00  0.00    +0.000 A 
ATOM     15  C   UNL     1       2.353   7.797  18.604  0.00  0.00    +0.000 A 
BRANCH  10  17
ATOM     16  C   UNL     1       1.564   4.848  20.490  0.00  0.00    +0.000 C 
ATOM     17  O   UNL     1       2.524   5.749  19.954  0.00  0.00    +0.000 OA
ENDBRANCH  10  17
ENDBRANCH   1  13
BRANCH   1  18
ATOM     18  C   UNL     1      -0.593  11.477  19.632  0.00  0.00    +0.000 A 
ATOM     19  C   UNL     1      -1.254  12.165  20.667  0.00  0.00    +0.000 A 
ATOM     20  C   UNL     1      -2.635  12.398  20.640  0.00  0.00    +0.000 A 
ATOM     21  C   UNL     1      -3.320  12.036  19.462  0.00  0.00    +0.000 A 
ATOM     22  C   UNL     1      -2.723  11.332  18.390  0.00  0.00    +0.000 A 
ATOM     23  C   UNL     1      -1.351  11.056  18.523  0.00  0.00    +0.000 A 
BRANCH  20  24
ATOM     24  C   UNL     1      -3.367  13.015  21.846  0.00  0.00    +0.000 C 
ATOM     25  C   UNL     1      -2.942  12.294  23.137  0.00  0.00    +0.000 C 
ATOM     26  C   UNL     1      -3.065  14.526  21.995  0.00  0.00    +0.000 C 
ATOM     27  C   UNL     1      -4.905  12.903  21.699  0.00  0.00    +0.000 C 
ENDBRANCH  20  24
BRANCH  22  28
ATOM     28  C   UNL     1      -3.576  10.963  17.151  0.00  0.00    +0.000 C 
ATOM     29  C   UNL     1      -3.886   9.454  17.219  0.00  0.00    +0.000 C 
ATOM     30  C   UNL     1      -4.910  11.739  17.040  0.00  0.00    +0.000 C 
ATOM     31  C   UNL     1      -2.844  11.236  15.809  0.00  0.00    +0.000 C 
ENDBRANCH  22  28
BRANCH  23  32
ATOM     32  O   UNL     1      -0.670  10.369  17.559  0.00  0.00    +0.000 OA
ATOM     33  H   UNL     1       0.279  10.530  17.724  0.00  0.00    +0.000 HD
ENDBRANCH  23  32
ENDBRANCH   1  18
TORSDOF 7
ENDMDL
MODEL 5
REMARK VINA RESULT:      -6.5      1.017      3.382
REMARK  Name = 
REMARK  14 active torsions:
REMARK  status: ('A' for Active; 'I' for Inactive)
REMARK    1  A    between atoms: C_1  and  O_2
REMARK    2  A    between atoms: O_2  and  C_3
REMARK    3  A    between atoms: C_6  and  C_7
REMARK    4  A    between atoms: C_7  and  N_8
REMARK    5  A    between atoms: C_7  and  C_15
REMARK    6  A    between atoms: C_17  and  C_18
REMARK    7  A    between atoms: C_18  and  C_19
REMARK    8  A    between atoms: C_18  and  C_20
REMARK    9  A    between atoms: C_18  and  C_21
REMARK   10  A    between atoms: C_23  and  C_24
REMARK   11  A    between atoms: C_24  and  C_25
REMARK   12  A    between atoms: C_24  and  C_26
REMARK   13  A    between atoms: C_24  and  C_27
REMARK   14  A    between atoms: C_28  and  O_29
REMARK                            x       y       z     vdW  Elec       q    Type
REMARK                         _______ _______ _______ _____ _____    ______ ____
ROOT
ATOM      1  C   UNL     1       1.011  11.193  19.573  0.00  0.00    +0.000 C 
ENDROOT
BRANCH   1   2
ATOM      2  N   UNL     1       1.649  11.915  18.452  0.00  0.00    +0.000 N 
ATOM      3  C   UNL     1       2.389  13.068  18.778  0.00  0.00    +0.000 A 
ATOM      4  C   UNL     1       3.062  13.717  17.744  0.00  0.00    +0.000 A 
ATOM      5  C   UNL     1       3.800  14.869  18.015  0.00  0.00    +0.000 A 
ATOM      6  C   UNL     1       3.846  15.354  19.313  0.00  0.00    +0.000 A 
ATOM      7  C   UNL     1       3.144  14.663  20.283  0.00  0.00    +0.000 A 
ATOM      8  N   UNL     1       2.427  13.546  20.037  0.00  0.00    +0.000 NA
ATOM      9  H   UNL     1       0.944  12.225  17.791  0.00  0.00    +0.000 HD
ENDBRANCH   1   2
BRANCH   1  13
ATOM     10  C   UNL     1       2.176   6.973  19.557  0.00  0.00    +0.000 A 
ATOM     11  C   UNL     1       1.541   7.544  20.657  0.00  0.00    +0.000 A 
ATOM     12  C   UNL     1       1.134   8.881  20.632  0.00  0.00    +0.000 A 
ATOM     13  C   UNL     1       1.383   9.700  19.517  0.00  0.00    +0.000 A 
ATOM     14  C   UNL     1       2.014   9.103  18.411  0.00  0.00    +0.000 A 
ATOM     15  C   UNL     1       2.395   7.753  18.424  0.00  0.00    +0.000 A 
BRANCH  10  17
ATOM     16  C   UNL     1       3.957   5.400  19.500  0.00  0.00    +0.000 C 
ATOM     17  O   UNL     1       2.583   5.679  19.733  0.00  0.00    +0.000 OA
ENDBRANCH  10  17
ENDBRANCH   1  13
BRANCH   1  18
ATOM     18  C   UNL     1      -0.513  11.426  19.554  0.00  0.00    +0.000 A 
ATOM     19  C   UNL     1      -1.164  12.109  20.600  0.00  0.00    +0.000 A 
ATOM     20  C   UNL     1      -2.543  12.349  20.583  0.00  0.00    +0.000 A 
ATOM     21  C   UNL     1      -3.237  12.001  19.407  0.00  0.00    +0.000 A 
ATOM     22  C   UNL     1      -2.651  11.303  18.325  0.00  0.00    +0.000 A 
ATOM     23  C   UNL     1      -1.279  11.019  18.446  0.00  0.00    +0.000 A 
BRANCH  20  24
ATOM     24  C   UNL     1      -3.265  12.959  21.799  0.00  0.00    +0.000 C 
ATOM     25  C   UNL     1      -2.960  14.466  21.882  0.00  0.00    +0.000 C 
ATOM     26  C   UNL     1      -4.798  12.765  21.720  0.00  0.00    +0.000 C 
ATOM     27  C   UNL     1      -2.821  12.289  23.123  0.00  0.00    +0.000 C 
ENDBRANCH  20  24
BRANCH  22  28
ATOM     28  C   UNL     1      -3.514  10.949  17.088  0.00  0.00    +0.000 C 
ATOM     29  C   UNL     1      -4.859  11.692  17.220  0.00  0.00    +0.000 C 
ATOM     30  C   UNL     1      -2.871  11.326  15.733  0.00  0.00    +0.000 C 
ATOM     31  C   UNL     1      -3.819   9.431  16.976  0.00  0.00    +0.000 C 
ENDBRANCH  22  28
BRANCH  23  32
ATOM     32  O   UNL     1      -0.608  10.337  17.473  0.00  0.00    +0.000 OA
ATOM     33  H   UNL     1       0.341  10.409  17.690  0.00  0.00    +0.000 HD
ENDBRANCH  23  32
ENDBRANCH   1  18
TORSDOF 7
ENDMDL
MODEL 6
REMARK VINA RESULT:      -6.5      2.392      3.265
REMARK  Name = 
REMARK  14 active torsions:
REMARK  status: ('A' for Active; 'I' for Inactive)
REMARK    1  A    between atoms: C_1  and  O_2
REMARK    2  A    between atoms: O_2  and  C_3
REMARK    3  A    between atoms: C_6  and  C_7
REMARK    4  A    between atoms: C_7  and  N_8
REMARK    5  A    between atoms: C_7  and  C_15
REMARK    6  A    between atoms: C_17  and  C_18
REMARK    7  A    between atoms: C_18  and  C_19
REMARK    8  A    between atoms: C_18  and  C_20
REMARK    9  A    between atoms: C_18  and  C_21
REMARK   10  A    between atoms: C_23  and  C_24
REMARK   11  A    between atoms: C_24  and  C_25
REMARK   12  A    between atoms: C_24  and  C_26
REMARK   13  A    between atoms: C_24  and  C_27
REMARK   14  A    between atoms: C_28  and  O_29
REMARK                            x       y       z     vdW  Elec       q    Type
REMARK                         _______ _______ _______ _____ _____    ______ ____
ROOT
ATOM      1  C   UNL     1      -1.194  13.085  20.249  0.00  0.00    +0.000 C 
ENDROOT
BRANCH   1   2
ATOM      2  N   UNL     1      -0.930  14.043  19.154  0.00  0.00    +0.000 N 
ATOM      3  C   UNL     1      -0.650  15.373  19.527  0.00  0.00    +0.000 A 
ATOM      4  C   UNL     1      -0.322  16.271  18.513  0.00  0.00    +0.000 A 
ATOM      5  C   UNL     1      -0.046  17.602  18.832  0.00  0.00    +0.000 A 
ATOM      6  C   UNL     1      -0.110  18.009  20.156  0.00  0.00    +0.000 A 
ATOM      7  C   UNL     1      -0.454  17.063  21.103  0.00  0.00    +0.000 A 
ATOM      8  N   UNL     1      -0.722  15.772  20.812  0.00  0.00    +0.000 NA
ATOM      9  H   UNL     1      -1.735  14.100  18.539  0.00  0.00    +0.000 HD
ENDBRANCH   1   2
BRANCH   1  13
ATOM     10  C   UNL     1       1.004   9.364  19.556  0.00  0.00    +0.000 A 
ATOM     11  C   UNL     1       0.664   9.774  20.842  0.00  0.00    +0.000 A 
ATOM     12  C   UNL     1      -0.077  10.942  21.047  0.00  0.00    +0.000 A 
ATOM     13  C   UNL     1      -0.470  11.755  19.970  0.00  0.00    +0.000 A 
ATOM     14  C   UNL     1      -0.129  11.319  18.678  0.00  0.00    +0.000 A 
ATOM     15  C   UNL     1       0.589  10.132  18.471  0.00  0.00    +0.000 A 
BRANCH  10  17
ATOM     16  C   UNL     1       2.472   8.003  18.274  0.00  0.00    +0.000 C 
ATOM     17  O   UNL     1       1.786   8.244  19.495  0.00  0.00    +0.000 OA
ENDBRANCH  10  17
ENDBRANCH   1  13
BRANCH   1  18
ATOM     18  C   UNL     1      -2.714  12.906  20.439  0.00  0.00    +0.000 A 
ATOM     19  C   UNL     1      -3.523  12.373  19.418  0.00  0.00    +0.000 A 
ATOM     20  C   UNL     1      -4.900  12.182  19.586  0.00  0.00    +0.000 A 
ATOM     21  C   UNL     1      -5.424  12.415  20.874  0.00  0.00    +0.000 A 
ATOM     22  C   UNL     1      -4.673  12.960  21.941  0.00  0.00    +0.000 A 
ATOM     23  C   UNL     1      -3.315  13.208  21.676  0.00  0.00    +0.000 A 
BRANCH  20  24
ATOM     24  C   UNL     1      -5.797  11.744  18.414  0.00  0.00    +0.000 C 
ATOM     25  C   UNL     1      -6.731  10.608  18.869  0.00  0.00    +0.000 C 
ATOM     26  C   UNL     1      -6.659  12.911  17.876  0.00  0.00    +0.000 C 
ATOM     27  C   UNL     1      -4.961  11.245  17.209  0.00  0.00    +0.000 C 
ENDBRANCH  20  24
BRANCH  22  28
ATOM     28  C   UNL     1      -5.356  13.197  23.311  0.00  0.00    +0.000 C 
ATOM     29  C   UNL     1      -6.810  12.694  23.210  0.00  0.00    +0.000 C 
ATOM     30  C   UNL     1      -4.666  12.486  24.500  0.00  0.00    +0.000 C 
ATOM     31  C   UNL     1      -5.400  14.696  23.715  0.00  0.00    +0.000 C 
ENDBRANCH  22  28
BRANCH  23  32
ATOM     32  O   UNL     1      -2.494  13.747  22.623  0.00  0.00    +0.000 OA
ATOM     33  H   UNL     1      -1.987  14.453  22.180  0.00  0.00    +0.000 HD
ENDBRANCH  23  32
ENDBRANCH   1  18
TORSDOF 7
ENDMDL
MODEL 7
REMARK VINA RESULT:      -6.4      2.434      3.575
REMARK  Name = 
REMARK  14 active torsions:
REMARK  status: ('A' for Active; 'I' for Inactive)
REMARK    1  A    between atoms: C_1  and  O_2
REMARK    2  A    between atoms: O_2  and  C_3
REMARK    3  A    between atoms: C_6  and  C_7
REMARK    4  A    between atoms: C_7  and  N_8
REMARK    5  A    between atoms: C_7  and  C_15
REMARK    6  A    between atoms: C_17  and  C_18
REMARK    7  A    between atoms: C_18  and  C_19
REMARK    8  A    between atoms: C_18  and  C_20
REMARK    9  A    between atoms: C_18  and  C_21
REMARK   10  A    between atoms: C_23  and  C_24
REMARK   11  A    between atoms: C_24  and  C_25
REMARK   12  A    between atoms: C_24  and  C_26
REMARK   13  A    between atoms: C_24  and  C_27
REMARK   14  A    between atoms: C_28  and  O_29
REMARK                            x       y       z     vdW  Elec       q    Type
REMARK                         _______ _______ _______ _____ _____    ______ ____
ROOT
ATOM      1  C   UNL     1      -1.230  13.314  20.360  0.00  0.00    +0.000 C 
ENDROOT
BRANCH   1   2
ATOM      2  N   UNL     1      -0.978  14.280  19.270  0.00  0.00    +0.000 N 
ATOM      3  C   UNL     1      -0.762  15.620  19.646  0.00  0.00    +0.000 A 
ATOM      4  C   UNL     1      -0.446  16.530  18.638  0.00  0.00    +0.000 A 
ATOM      5  C   UNL     1      -0.234  17.871  18.960  0.00  0.00    +0.000 A 
ATOM      6  C   UNL     1      -0.347  18.277  20.281  0.00  0.00    +0.000 A 
ATOM      7  C   UNL     1      -0.675  17.319  21.222  0.00  0.00    +0.000 A 
ATOM      8  N   UNL     1      -0.883  16.018  20.927  0.00  0.00    +0.000 NA
ATOM      9  H   UNL     1      -1.770  14.302  18.634  0.00  0.00    +0.000 HD
ENDBRANCH   1   2
BRANCH   1  13
ATOM     10  C   UNL     1       0.997   9.638  19.525  0.00  0.00    +0.000 A 
ATOM     11  C   UNL     1       1.089  10.747  18.686  0.00  0.00    +0.000 A 
ATOM     12  C   UNL     1       0.407  11.930  18.989  0.00  0.00    +0.000 A 
ATOM     13  C   UNL     1      -0.417  12.028  20.122  0.00  0.00    +0.000 A 
ATOM     14  C   UNL     1      -0.488  10.904  20.963  0.00  0.00    +0.000 A 
ATOM     15  C   UNL     1       0.219   9.726  20.676  0.00  0.00    +0.000 A 
BRANCH  10  17
ATOM     16  C   UNL     1       2.258   8.601  17.798  0.00  0.00    +0.000 C 
ATOM     17  O   UNL     1       1.656   8.524  19.083  0.00  0.00    +0.000 OA
ENDBRANCH  10  17
ENDBRANCH   1  13
BRANCH   1  18
ATOM     18  C   UNL     1      -2.743  13.044  20.489  0.00  0.00    +0.000 A 
ATOM     19  C   UNL     1      -3.475  12.454  19.442  0.00  0.00    +0.000 A 
ATOM     20  C   UNL     1      -4.844  12.181  19.556  0.00  0.00    +0.000 A 
ATOM     21  C   UNL     1      -5.434  12.394  20.817  0.00  0.00    +0.000 A 
ATOM     22  C   UNL     1      -4.763  12.995  21.908  0.00  0.00    +0.000 A 
ATOM     23  C   UNL     1      -3.412  13.321  21.696  0.00  0.00    +0.000 A 
BRANCH  20  24
ATOM     24  C   UNL     1      -5.663  11.678  18.352  0.00  0.00    +0.000 C 
ATOM     25  C   UNL     1      -4.718  11.096  17.286  0.00  0.00    +0.000 C 
ATOM     26  C   UNL     1      -6.684  10.589  18.761  0.00  0.00    +0.000 C 
ATOM     27  C   UNL     1      -6.494  12.816  17.710  0.00  0.00    +0.000 C 
ENDBRANCH  20  24
BRANCH  22  28
ATOM     28  C   UNL     1      -5.516  13.203  23.246  0.00  0.00    +0.000 C 
ATOM     29  C   UNL     1      -6.940  12.631  23.083  0.00  0.00    +0.000 C 
ATOM     30  C   UNL     1      -4.847  12.529  24.467  0.00  0.00    +0.000 C 
ATOM     31  C   UNL     1      -5.649  14.699  23.639  0.00  0.00    +0.000 C 
ENDBRANCH  22  28
BRANCH  23  32
ATOM     32  O   UNL     1      -2.666  13.918  22.671  0.00  0.00    +0.000 OA
ATOM     33  H   UNL     1      -2.728  13.343  23.457  0.00  0.00    +0.000 HD
ENDBRANCH  23  32
ENDBRANCH   1  18
TORSDOF 7
ENDMDL
MODEL 8
REMARK VINA RESULT:      -6.4      2.627      3.828
REMARK  Name = 
REMARK  14 active torsions:
REMARK  status: ('A' for Active; 'I' for Inactive)
REMARK    1  A    between atoms: C_1  and  O_2
REMARK    2  A    between atoms: O_2  and  C_3
REMARK    3  A    between atoms: C_6  and  C_7
REMARK    4  A    between atoms: C_7  and  N_8
REMARK    5  A    between atoms: C_7  and  C_15
REMARK    6  A    between atoms: C_17  and  C_18
REMARK    7  A    between atoms: C_18  and  C_19
REMARK    8  A    between atoms: C_18  and  C_20
REMARK    9  A    between atoms: C_18  and  C_21
REMARK   10  A    between atoms: C_23  and  C_24
REMARK   11  A    between atoms: C_24  and  C_25
REMARK   12  A    between atoms: C_24  and  C_26
REMARK   13  A    between atoms: C_24  and  C_27
REMARK   14  A    between atoms: C_28  and  O_29
REMARK                            x       y       z     vdW  Elec       q    Type
REMARK                         _______ _______ _______ _____ _____    ______ ____
ROOT
ATOM      1  C   UNL     1      -1.771  13.160  20.879  0.00  0.00    +0.000 C 
ENDROOT
BRANCH   1   2
ATOM      2  N   UNL     1      -1.353  13.813  19.621  0.00  0.00    +0.000 N 
ATOM      3  C   UNL     1      -0.691  15.051  19.737  0.00  0.00    +0.000 A 
ATOM      4  C   UNL     1      -0.221  15.643  18.565  0.00  0.00    +0.000 A 
ATOM      5  C   UNL     1       0.433  16.874  18.628  0.00  0.00    +0.000 A 
ATOM      6  C   UNL     1       0.598  17.492  19.858  0.00  0.00    +0.000 A 
ATOM      7  C   UNL     1       0.094  16.848  20.973  0.00  0.00    +0.000 A 
ATOM      8  N   UNL     1      -0.539  15.657  20.930  0.00  0.00    +0.000 NA
ATOM      9  H   UNL     1      -2.163  13.995  19.036  0.00  0.00    +0.000 HD
ENDBRANCH   1   2
BRANCH   1  13
ATOM     10  C   UNL     1       0.356   9.361  21.342  0.00  0.00    +0.000 A 
ATOM     11  C   UNL     1       0.224   9.970  20.096  0.00  0.00    +0.000 A 
ATOM     12  C   UNL     1      -0.418  11.205  19.969  0.00  0.00    +0.000 A 
ATOM     13  C   UNL     1      -0.982  11.853  21.081  0.00  0.00    +0.000 A 
ATOM     14  C   UNL     1      -0.830  11.230  22.332  0.00  0.00    +0.000 A 
ATOM     15  C   UNL     1      -0.158  10.005  22.464  0.00  0.00    +0.000 A 
BRANCH  10  17
ATOM     16  C   UNL     1       1.791   7.836  20.218  0.00  0.00    +0.000 C 
ATOM     17  O   UNL     1       0.943   8.127  21.321  0.00  0.00    +0.000 OA
ENDBRANCH  10  17
ENDBRANCH   1  13
BRANCH   1  18
ATOM     18  C   UNL     1      -3.297  12.938  20.879  0.00  0.00    +0.000 A 
ATOM     19  C   UNL     1      -3.967  12.444  19.744  0.00  0.00    +0.000 A 
ATOM     20  C   UNL     1      -5.348  12.215  19.739  0.00  0.00    +0.000 A 
ATOM     21  C   UNL     1      -6.025  12.368  20.966  0.00  0.00    +0.000 A 
ATOM     22  C   UNL     1      -5.419  12.872  22.140  0.00  0.00    +0.000 A 
ATOM     23  C   UNL     1      -4.046  13.161  22.050  0.00  0.00    +0.000 A 
BRANCH  20  24
ATOM     24  C   UNL     1      -6.090  11.822  18.448  0.00  0.00    +0.000 C 
ATOM     25  C   UNL     1      -5.095  11.758  17.275  0.00  0.00    +0.000 C 
ATOM     26  C   UNL     1      -6.794  10.450  18.580  0.00  0.00    +0.000 C 
ATOM     27  C   UNL     1      -7.205  12.837  18.097  0.00  0.00    +0.000 C 
ENDBRANCH  20  24
BRANCH  22  28
ATOM     28  C   UNL     1      -6.263  13.021  23.430  0.00  0.00    +0.000 C 
ATOM     29  C   UNL     1      -6.465  14.527  23.695  0.00  0.00    +0.000 C 
ATOM     30  C   UNL     1      -7.650  12.338  23.368  0.00  0.00    +0.000 C 
ATOM     31  C   UNL     1      -5.574  12.408  24.679  0.00  0.00    +0.000 C 
ENDBRANCH  22  28
BRANCH  23  32
ATOM     32  O   UNL     1      -3.357  13.666  23.114  0.00  0.00    +0.000 OA
ATOM     33  H   UNL     1      -3.110  12.903  23.670  0.00  0.00    +0.000 HD
ENDBRANCH  23  32
ENDBRANCH   1  18
TORSDOF 7
ENDMDL
MODEL 9
REMARK VINA RESULT:      -6.4      2.488      3.647
REMARK  Name = 
REMARK  14 active torsions:
REMARK  status: ('A' for Active; 'I' for Inactive)
REMARK    1  A    between atoms: C_1  and  O_2
REMARK    2  A    between atoms: O_2  and  C_3
REMARK    3  A    between atoms: C_6  and  C_7
REMARK    4  A    between atoms: C_7  and  N_8
REMARK    5  A    between atoms: C_7  and  C_15
REMARK    6  A    between atoms: C_17  and  C_18
REMARK    7  A    between atoms: C_18  and  C_19
REMARK    8  A    between atoms: C_18  and  C_20
REMARK    9  A    between atoms: C_18  and  C_21
REMARK   10  A    between atoms: C_23  and  C_24
REMARK   11  A    between atoms: C_24  and  C_25
REMARK   12  A    between atoms: C_24  and  C_26
REMARK   13  A    between atoms: C_24  and  C_27
REMARK   14  A    between atoms: C_28  and  O_29
REMARK                            x       y       z     vdW  Elec       q    Type
REMARK                         _______ _______ _______ _____ _____    ______ ____
ROOT
ATOM      1  C   UNL     1      -1.323  13.358  20.400  0.00  0.00    +0.000 C 
ENDROOT
BRANCH   1   2
ATOM      2  N   UNL     1      -1.098  14.315  19.297  0.00  0.00    +0.000 N 
ATOM      3  C   UNL     1      -0.851  15.655  19.658  0.00  0.00    +0.000 A 
ATOM      4  C   UNL     1      -0.560  16.555  18.634  0.00  0.00    +0.000 A 
ATOM      5  C   UNL     1      -0.319  17.895  18.941  0.00  0.00    +0.000 A 
ATOM      6  C   UNL     1      -0.380  18.309  20.262  0.00  0.00    +0.000 A 
ATOM      7  C   UNL     1      -0.686  17.360  21.220  0.00  0.00    +0.000 A 
ATOM      8  N   UNL     1      -0.921  16.061  20.940  0.00  0.00    +0.000 NA
ATOM      9  H   UNL     1      -1.911  14.345  18.690  0.00  0.00    +0.000 HD
ENDBRANCH   1   2
BRANCH   1  13
ATOM     10  C   UNL     1       0.938   9.704  19.562  0.00  0.00    +0.000 A 
ATOM     11  C   UNL     1       1.068  10.835  18.760  0.00  0.00    +0.000 A 
ATOM     12  C   UNL     1       0.374  12.011  19.065  0.00  0.00    +0.000 A 
ATOM     13  C   UNL     1      -0.501  12.078  20.163  0.00  0.00    +0.000 A 
ATOM     14  C   UNL     1      -0.610  10.931  20.968  0.00  0.00    +0.000 A 
ATOM     15  C   UNL     1       0.109   9.761  20.679  0.00  0.00    +0.000 A 
BRANCH  10  17
ATOM     16  C   UNL     1       2.140   8.658  17.799  0.00  0.00    +0.000 C 
ATOM     17  O   UNL     1       1.615   8.602  19.118  0.00  0.00    +0.000 OA
ENDBRANCH  10  17
ENDBRANCH   1  13
BRANCH   1  18
ATOM     18  C   UNL     1      -2.830  13.075  20.556  0.00  0.00    +0.000 A 
ATOM     19  C   UNL     1      -3.572  12.463  19.527  0.00  0.00    +0.000 A 
ATOM     20  C   UNL     1      -4.937  12.178  19.666  0.00  0.00    +0.000 A 
ATOM     21  C   UNL     1      -5.510  12.402  20.933  0.00  0.00    +0.000 A 
ATOM     22  C   UNL     1      -4.829  13.023  22.006  0.00  0.00    +0.000 A 
ATOM     23  C   UNL     1      -3.485  13.361  21.769  0.00  0.00    +0.000 A 
BRANCH  20  24
ATOM     24  C   UNL     1      -5.768  11.651  18.481  0.00  0.00    +0.000 C 
ATOM     25  C   UNL     1      -6.731  12.748  17.993  0.00  0.00    +0.000 C 
ATOM     26  C   UNL     1      -4.874  11.209  17.298  0.00  0.00    +0.000 C 
ATOM     27  C   UNL     1      -6.596  10.403  18.875  0.00  0.00    +0.000 C 
ENDBRANCH  20  24
BRANCH  22  28
ATOM     28  C   UNL     1      -5.564  13.241  23.352  0.00  0.00    +0.000 C 
ATOM     29  C   UNL     1      -4.763  12.516  24.453  0.00  0.00    +0.000 C 
ATOM     30  C   UNL     1      -5.729  14.725  23.756  0.00  0.00    +0.000 C 
ATOM     31  C   UNL     1      -7.005  12.664  23.355  0.00  0.00    +0.000 C 
ENDBRANCH  22  28
BRANCH  23  32
ATOM     32  O   UNL     1      -2.730  13.978  22.724  0.00  0.00    +0.000 OA
ATOM     33  H   UNL     1      -3.348  14.505  23.266  0.00  0.00    +0.000 HD
ENDBRANCH  23  32
ENDBRANCH   1  18
TORSDOF 7
ENDMDL
