MODEL 1
REMARK VINA RESULT:      -7.8      0.000      0.000
REMARK  Name = 
REMARK  9 active torsions:
REMARK  status: ('A' for Active; 'I' for Inactive)
REMARK    1  A    between atoms: O_1  and  C_2
REMARK    2  A    between atoms: C_2  and  C_3
REMARK    3  A    between atoms: C_3  and  C_4
REMARK    4  A    between atoms: C_4  and  C_5
REMARK    5  A    between atoms: C_5  and  C_6
REMARK    6  A    between atoms: C_7  and  C_8
REMARK    7  A    between atoms: C_13  and  C_14
REMARK    8  A    between atoms: C_15  and  C_16
REMARK    9  A    between atoms: C_21  and  C_22
REMARK                            x       y       z     vdW  Elec       q    Type
REMARK                         _______ _______ _______ _____ _____    ______ ____
ROOT
ATOM      1  C   UNL     1       6.842   4.968  14.644  0.00  0.00    +0.000 A 
ATOM      2  C   UNL     1       7.693   5.127  13.543  0.00  0.00    +0.000 A 
ATOM      3  C   UNL     1       7.416   4.476  12.344  0.00  0.00    +0.000 A 
ATOM      4  C   UNL     1       6.329   3.604  12.273  0.00  0.00    +0.000 A 
ATOM      5  C   UNL     1       5.522   3.382  13.396  0.00  0.00    +0.000 A 
ATOM      6  C   UNL     1       5.746   4.095  14.586  0.00  0.00    +0.000 A 
ENDROOT
BRANCH   1   8
ATOM      7  C   UNL     1       7.353   6.430  16.893  0.00  0.00    +0.000 C 
ATOM      8  C   UNL     1       7.092   5.747  15.814  0.00  0.00    +0.000 C 
BRANCH   7   9
ATOM      9  C   UNL     1       7.657   7.227  18.151  0.00  0.00    +0.000 C 
BRANCH   9  10
ATOM     10  C   UNL     1       7.968   8.668  17.795  0.00  0.00    +0.000 C 
BRANCH  10  11
ATOM     11  C   UNL     1       8.853   9.323  18.852  0.00  0.00    +0.000 C 
BRANCH  11  12
ATOM     12  C   UNL     1       9.027  10.807  18.564  0.00  0.00    +0.000 C 
BRANCH  12  13
ATOM     13  O   UNL     1      10.135  10.988  17.691  0.00  0.00    +0.000 OA
ATOM     14  H   UNL     1      10.486  10.103  17.490  0.00  0.00    +0.000 HD
ENDBRANCH  12  13
ENDBRANCH  11  12
ENDBRANCH  10  11
ENDBRANCH   9  10
ENDBRANCH   7   9
ENDBRANCH   1   8
BRANCH   6  15
ATOM     15  C   UNL     1       4.848   3.957  15.704  0.00  0.00    +0.000 C 
ATOM     16  C   UNL     1       4.087   3.867  16.648  0.00  0.00    +0.000 C 
BRANCH  16  17
ATOM     17  C   UNL     1       3.141   3.723  17.720  0.00  0.00    +0.000 A 
ATOM     18  C   UNL     1       2.331   2.578  17.751  0.00  0.00    +0.000 A 
ATOM     19  C   UNL     1       1.309   2.443  18.693  0.00  0.00    +0.000 A 
ATOM     20  C   UNL     1       1.129   3.421  19.666  0.00  0.00    +0.000 A 
ATOM     21  C   UNL     1       1.976   4.529  19.693  0.00  0.00    +0.000 A 
ATOM     22  C   UNL     1       2.968   4.714  18.705  0.00  0.00    +0.000 A 
BRANCH  22  23
ATOM     23  C   UNL     1       3.743   6.008  18.702  0.00  0.00    +0.000 C 
ATOM     24  F   UNL     1       5.028   5.921  19.142  0.00  0.00    +0.000 F 
ATOM     25  F   UNL     1       3.834   6.540  17.448  0.00  0.00    +0.000 F 
ATOM     26  F   UNL     1       3.170   6.982  19.466  0.00  0.00    +0.000 F 
ENDBRANCH  22  23
ENDBRANCH  16  17
ENDBRANCH   6  15
TORSDOF 9
ENDMDL
MODEL 2
REMARK VINA RESULT:      -7.8      1.901      2.419
REMARK  Name = 
REMARK  9 active torsions:
REMARK  status: ('A' for Active; 'I' for Inactive)
REMARK    1  A    between atoms: O_1  and  C_2
REMARK    2  A    between atoms: C_2  and  C_3
REMARK    3  A    between atoms: C_3  and  C_4
REMARK    4  A    between atoms: C_4  and  C_5
REMARK    5  A    between atoms: C_5  and  C_6
REMARK    6  A    between atoms: C_7  and  C_8
REMARK    7  A    between atoms: C_13  and  C_14
REMARK    8  A    between atoms: C_15  and  C_16
REMARK    9  A    between atoms: C_21  and  C_22
REMARK                            x       y       z     vdW  Elec       q    Type
REMARK                         _______ _______ _______ _____ _____    ______ ____
ROOT
ATOM      1  C   UNL     1       6.679   5.052  15.124  0.00  0.00    +0.000 A 
ATOM      2  C   UNL     1       7.511   4.983  14.000  0.00  0.00    +0.000 A 
ATOM      3  C   UNL     1       7.101   4.286  12.866  0.00  0.00    +0.000 A 
ATOM      4  C   UNL     1       5.891   3.592  12.890  0.00  0.00    +0.000 A 
ATOM      5  C   UNL     1       5.093   3.593  14.041  0.00  0.00    +0.000 A 
ATOM      6  C   UNL     1       5.460   4.359  15.161  0.00  0.00    +0.000 A 
ENDROOT
BRANCH   1   8
ATOM      7  C   UNL     1       7.490   6.616  17.210  0.00  0.00    +0.000 C 
ATOM      8  C   UNL     1       7.082   5.877  16.218  0.00  0.00    +0.000 C 
BRANCH   7   9
ATOM      9  C   UNL     1       7.967   7.478  18.368  0.00  0.00    +0.000 C 
BRANCH   9  10
ATOM     10  C   UNL     1       8.154   8.912  17.910  0.00  0.00    +0.000 C 
BRANCH  10  11
ATOM     11  C   UNL     1       9.028   9.696  18.885  0.00  0.00    +0.000 C 
BRANCH  11  12
ATOM     12  C   UNL     1       9.279  11.105  18.368  0.00  0.00    +0.000 C 
BRANCH  12  13
ATOM     13  O   UNL     1      10.412  11.653  19.029  0.00  0.00    +0.000 OA
ATOM     14  H   UNL     1      10.965  12.071  18.346  0.00  0.00    +0.000 HD
ENDBRANCH  12  13
ENDBRANCH  11  12
ENDBRANCH  10  11
ENDBRANCH   9  10
ENDBRANCH   7   9
ENDBRANCH   1   8
BRANCH   6  15
ATOM     15  C   UNL     1       4.586   4.457  16.301  0.00  0.00    +0.000 C 
ATOM     16  C   UNL     1       3.869   4.547  17.280  0.00  0.00    +0.000 C 
BRANCH  16  17
ATOM     17  C   UNL     1       2.986   4.709  18.402  0.00  0.00    +0.000 A 
ATOM     18  C   UNL     1       2.797   5.996  18.926  0.00  0.00    +0.000 A 
ATOM     19  C   UNL     1       2.052   6.197  20.092  0.00  0.00    +0.000 A 
ATOM     20  C   UNL     1       1.425   5.120  20.708  0.00  0.00    +0.000 A 
ATOM     21  C   UNL     1       1.542   3.845  20.154  0.00  0.00    +0.000 A 
ATOM     22  C   UNL     1       2.349   3.615  19.018  0.00  0.00    +0.000 A 
BRANCH  22  23
ATOM     23  C   UNL     1       2.557   2.191  18.563  0.00  0.00    +0.000 C 
ATOM     24  F   UNL     1       3.816   1.703  18.727  0.00  0.00    +0.000 F 
ATOM     25  F   UNL     1       1.750   1.322  19.240  0.00  0.00    +0.000 F 
ATOM     26  F   UNL     1       2.268   1.999  17.244  0.00  0.00    +0.000 F 
ENDBRANCH  22  23
ENDBRANCH  16  17
ENDBRANCH   6  15
TORSDOF 9
ENDMDL
MODEL 3
REMARK VINA RESULT:      -7.7      3.756      7.558
REMARK  Name = 
REMARK  9 active torsions:
REMARK  status: ('A' for Active; 'I' for Inactive)
REMARK    1  A    between atoms: O_1  and  C_2
REMARK    2  A    between atoms: C_2  and  C_3
REMARK    3  A    between atoms: C_3  and  C_4
REMARK    4  A    between atoms: C_4  and  C_5
REMARK    5  A    between atoms: C_5  and  C_6
REMARK    6  A    between atoms: C_7  and  C_8
REMARK    7  A    between atoms: C_13  and  C_14
REMARK    8  A    between atoms: C_15  and  C_16
REMARK    9  A    between atoms: C_21  and  C_22
REMARK                            x       y       z     vdW  Elec       q    Type
REMARK                         _______ _______ _______ _____ _____    ______ ____
ROOT
ATOM      1  C   UNL     1       1.815   7.841  19.767  0.00  0.00    +0.000 A 
ATOM      2  C   UNL     1       0.945   8.715  20.430  0.00  0.00    +0.000 A 
ATOM      3  C   UNL     1       0.569   9.916  19.832  0.00  0.00    +0.000 A 
ATOM      4  C   UNL     1       1.128  10.275  18.606  0.00  0.00    +0.000 A 
ATOM      5  C   UNL     1       2.060   9.439  17.977  0.00  0.00    +0.000 A 
ATOM      6  C   UNL     1       2.384   8.190  18.533  0.00  0.00    +0.000 A 
ENDROOT
BRANCH   1   8
ATOM      7  C   UNL     1       2.325   5.390  20.856  0.00  0.00    +0.000 C 
ATOM      8  C   UNL     1       2.079   6.568  20.357  0.00  0.00    +0.000 C 
BRANCH   7   9
ATOM      9  C   UNL     1       2.613   4.015  21.438  0.00  0.00    +0.000 C 
BRANCH   9  10
ATOM     10  C   UNL     1       1.351   3.173  21.439  0.00  0.00    +0.000 C 
BRANCH  10  11
ATOM     11  C   UNL     1       0.707   3.137  20.056  0.00  0.00    +0.000 C 
BRANCH  11  12
ATOM     12  C   UNL     1       1.045   1.838  19.339  0.00  0.00    +0.000 C 
BRANCH  12  13
ATOM     13  O   UNL     1       0.281   1.748  18.144  0.00  0.00    +0.000 OA
ATOM     14  H   UNL     1       0.091   2.659  17.860  0.00  0.00    +0.000 HD
ENDBRANCH  12  13
ENDBRANCH  11  12
ENDBRANCH  10  11
ENDBRANCH   9  10
ENDBRANCH   7   9
ENDBRANCH   1   8
BRANCH   6  15
ATOM     15  C   UNL     1       3.251   7.278  17.832  0.00  0.00    +0.000 C 
ATOM     16  C   UNL     1       3.964   6.488  17.243  0.00  0.00    +0.000 C 
BRANCH  16  17
ATOM     17  C   UNL     1       4.801   5.597  16.487  0.00  0.00    +0.000 A 
ATOM     18  C   UNL     1       5.661   6.142  15.523  0.00  0.00    +0.000 A 
ATOM     19  C   UNL     1       6.403   5.319  14.671  0.00  0.00    +0.000 A 
ATOM     20  C   UNL     1       6.349   3.938  14.821  0.00  0.00    +0.000 A 
ATOM     21  C   UNL     1       5.555   3.385  15.827  0.00  0.00    +0.000 A 
ATOM     22  C   UNL     1       4.746   4.200  16.648  0.00  0.00    +0.000 A 
BRANCH  22  23
ATOM     23  C   UNL     1       3.796   3.528  17.609  0.00  0.00    +0.000 C 
ATOM     24  F   UNL     1       3.665   2.183  17.458  0.00  0.00    +0.000 F 
ATOM     25  F   UNL     1       4.182   3.704  18.907  0.00  0.00    +0.000 F 
ATOM     26  F   UNL     1       2.525   4.020  17.542  0.00  0.00    +0.000 F 
ENDBRANCH  22  23
ENDBRANCH  16  17
ENDBRANCH   6  15
TORSDOF 9
ENDMDL
MODEL 4
REMARK VINA RESULT:      -7.7      3.349      7.104
REMARK  Name = 
REMARK  9 active torsions:
REMARK  status: ('A' for Active; 'I' for Inactive)
REMARK    1  A    between atoms: O_1  and  C_2
REMARK    2  A    between atoms: C_2  and  C_3
REMARK    3  A    between atoms: C_3  and  C_4
REMARK    4  A    between atoms: C_4  and  C_5
REMARK    5  A    between atoms: C_5  and  C_6
REMARK    6  A    between atoms: C_7  and  C_8
REMARK    7  A    between atoms: C_13  and  C_14
REMARK    8  A    between atoms: C_15  and  C_16
REMARK    9  A    between atoms: C_21  and  C_22
REMARK                            x       y       z     vdW  Elec       q    Type
REMARK                         _______ _______ _______ _____ _____    ______ ____
ROOT
ATOM      1  C   UNL     1       1.969   7.609  19.578  0.00  0.00    +0.000 A 
ATOM      2  C   UNL     1       1.054   8.405  20.279  0.00  0.00    +0.000 A 
ATOM      3  C   UNL     1       0.699   9.659  19.790  0.00  0.00    +0.000 A 
ATOM      4  C   UNL     1       1.321  10.148  18.642  0.00  0.00    +0.000 A 
ATOM      5  C   UNL     1       2.295   9.387  17.982  0.00  0.00    +0.000 A 
ATOM      6  C   UNL     1       2.601   8.088  18.421  0.00  0.00    +0.000 A 
ENDROOT
BRANCH   1   8
ATOM      7  C   UNL     1       2.414   5.056  20.438  0.00  0.00    +0.000 C 
ATOM      8  C   UNL     1       2.213   6.282  20.046  0.00  0.00    +0.000 C 
BRANCH   7   9
ATOM      9  C   UNL     1       2.649   3.625  20.895  0.00  0.00    +0.000 C 
BRANCH   9  10
ATOM     10  C   UNL     1       3.878   3.054  20.216  0.00  0.00    +0.000 C 
BRANCH  10  11
ATOM     11  C   UNL     1       3.745   3.101  18.696  0.00  0.00    +0.000 C 
BRANCH  11  12
ATOM     12  C   UNL     1       3.255   1.764  18.158  0.00  0.00    +0.000 C 
BRANCH  12  13
ATOM     13  O   UNL     1       4.248   0.773  18.388  0.00  0.00    +0.000 OA
ATOM     14  H   UNL     1       4.091   0.059  17.747  0.00  0.00    +0.000 HD
ENDBRANCH  12  13
ENDBRANCH  11  12
ENDBRANCH  10  11
ENDBRANCH   9  10
ENDBRANCH   7   9
ENDBRANCH   1   8
BRANCH   6  15
ATOM     15  C   UNL     1       3.516   7.259  17.679  0.00  0.00    +0.000 C 
ATOM     16  C   UNL     1       4.291   6.580  17.034  0.00  0.00    +0.000 C 
BRANCH  16  17
ATOM     17  C   UNL     1       5.253   5.777  16.330  0.00  0.00    +0.000 A 
ATOM     18  C   UNL     1       4.924   5.303  15.052  0.00  0.00    +0.000 A 
ATOM     19  C   UNL     1       5.764   4.415  14.374  0.00  0.00    +0.000 A 
ATOM     20  C   UNL     1       6.981   4.046  14.936  0.00  0.00    +0.000 A 
ATOM     21  C   UNL     1       7.355   4.570  16.174  0.00  0.00    +0.000 A 
ATOM     22  C   UNL     1       6.487   5.412  16.903  0.00  0.00    +0.000 A 
BRANCH  22  23
ATOM     23  C   UNL     1       6.886   5.816  18.300  0.00  0.00    +0.000 C 
ATOM     24  F   UNL     1       5.946   5.609  19.260  0.00  0.00    +0.000 F 
ATOM     25  F   UNL     1       7.987   5.131  18.728  0.00  0.00    +0.000 F 
ATOM     26  F   UNL     1       7.220   7.134  18.405  0.00  0.00    +0.000 F 
ENDBRANCH  22  23
ENDBRANCH  16  17
ENDBRANCH   6  15
TORSDOF 9
ENDMDL
MODEL 5
REMARK VINA RESULT:      -7.7      3.197      6.696
REMARK  Name = 
REMARK  9 active torsions:
REMARK  status: ('A' for Active; 'I' for Inactive)
REMARK    1  A    between atoms: O_1  and  C_2
REMARK    2  A    between atoms: C_2  and  C_3
REMARK    3  A    between atoms: C_3  and  C_4
REMARK    4  A    between atoms: C_4  and  C_5
REMARK    5  A    between atoms: C_5  and  C_6
REMARK    6  A    between atoms: C_7  and  C_8
REMARK    7  A    between atoms: C_13  and  C_14
REMARK    8  A    between atoms: C_15  and  C_16
REMARK    9  A    between atoms: C_21  and  C_22
REMARK                            x       y       z     vdW  Elec       q    Type
REMARK                         _______ _______ _______ _____ _____    ______ ____
ROOT
ATOM      1  C   UNL     1       2.116   4.774  19.288  0.00  0.00    +0.000 A 
ATOM      2  C   UNL     1       1.225   4.535  20.342  0.00  0.00    +0.000 A 
ATOM      3  C   UNL     1       1.093   3.254  20.871  0.00  0.00    +0.000 A 
ATOM      4  C   UNL     1       1.795   2.198  20.292  0.00  0.00    +0.000 A 
ATOM      5  C   UNL     1       2.628   2.419  19.187  0.00  0.00    +0.000 A 
ATOM      6  C   UNL     1       2.830   3.720  18.697  0.00  0.00    +0.000 A 
ENDROOT
BRANCH   1   8
ATOM      7  C   UNL     1       2.492   7.335  18.420  0.00  0.00    +0.000 C 
ATOM      8  C   UNL     1       2.313   6.120  18.856  0.00  0.00    +0.000 C 
BRANCH   7   9
ATOM      9  C   UNL     1       2.700   8.752  17.912  0.00  0.00    +0.000 C 
BRANCH   9  10
ATOM     10  C   UNL     1       1.366   9.461  17.777  0.00  0.00    +0.000 C 
BRANCH  10  11
ATOM     11  C   UNL     1       0.736   9.723  19.143  0.00  0.00    +0.000 C 
BRANCH  11  12
ATOM     12  C   UNL     1      -0.638  10.358  18.988  0.00  0.00    +0.000 C 
BRANCH  12  13
ATOM     13  O   UNL     1      -0.956  10.458  17.607  0.00  0.00    +0.000 OA
ATOM     14  H   UNL     1      -0.493   9.730  17.155  0.00  0.00    +0.000 HD
ENDBRANCH  12  13
ENDBRANCH  11  12
ENDBRANCH  10  11
ENDBRANCH   9  10
ENDBRANCH   7   9
ENDBRANCH   1   8
BRANCH   6  15
ATOM     15  C   UNL     1       3.774   3.967  17.637  0.00  0.00    +0.000 C 
ATOM     16  C   UNL     1       4.572   4.149  16.738  0.00  0.00    +0.000 C 
BRANCH  16  17
ATOM     17  C   UNL     1       5.463   4.399  15.638  0.00  0.00    +0.000 A 
ATOM     18  C   UNL     1       5.237   3.727  14.427  0.00  0.00    +0.000 A 
ATOM     19  C   UNL     1       6.141   3.832  13.366  0.00  0.00    +0.000 A 
ATOM     20  C   UNL     1       7.245   4.670  13.477  0.00  0.00    +0.000 A 
ATOM     21  C   UNL     1       7.440   5.402  14.648  0.00  0.00    +0.000 A 
ATOM     22  C   UNL     1       6.576   5.253  15.754  0.00  0.00    +0.000 A 
BRANCH  22  23
ATOM     23  C   UNL     1       6.932   5.954  17.042  0.00  0.00    +0.000 C 
ATOM     24  F   UNL     1       5.891   6.532  17.700  0.00  0.00    +0.000 F 
ATOM     25  F   UNL     1       7.491   5.097  17.946  0.00  0.00    +0.000 F 
ATOM     26  F   UNL     1       7.848   6.951  16.876  0.00  0.00    +0.000 F 
ENDBRANCH  22  23
ENDBRANCH  16  17
ENDBRANCH   6  15
TORSDOF 9
ENDMDL
MODEL 6
REMARK VINA RESULT:      -7.6      2.965      6.477
REMARK  Name = 
REMARK  9 active torsions:
REMARK  status: ('A' for Active; 'I' for Inactive)
REMARK    1  A    between atoms: O_1  and  C_2
REMARK    2  A    between atoms: C_2  and  C_3
REMARK    3  A    between atoms: C_3  and  C_4
REMARK    4  A    between atoms: C_4  and  C_5
REMARK    5  A    between atoms: C_5  and  C_6
REMARK    6  A    between atoms: C_7  and  C_8
REMARK    7  A    between atoms: C_13  and  C_14
REMARK    8  A    between atoms: C_15  and  C_16
REMARK    9  A    between atoms: C_21  and  C_22
REMARK                            x       y       z     vdW  Elec       q    Type
REMARK                         _______ _______ _______ _____ _____    ______ ____
ROOT
ATOM      1  C   UNL     1       2.108   4.743  19.184  0.00  0.00    +0.000 A 
ATOM      2  C   UNL     1       1.232   4.524  20.254  0.00  0.00    +0.000 A 
ATOM      3  C   UNL     1       1.141   3.263  20.839  0.00  0.00    +0.000 A 
ATOM      4  C   UNL     1       1.871   2.204  20.299  0.00  0.00    +0.000 A 
ATOM      5  C   UNL     1       2.689   2.402  19.179  0.00  0.00    +0.000 A 
ATOM      6  C   UNL     1       2.849   3.686  18.633  0.00  0.00    +0.000 A 
ENDROOT
BRANCH   1   8
ATOM      7  C   UNL     1       2.425   7.301  18.283  0.00  0.00    +0.000 C 
ATOM      8  C   UNL     1       2.262   6.075  18.694  0.00  0.00    +0.000 C 
BRANCH   7   9
ATOM      9  C   UNL     1       2.615   8.730  17.803  0.00  0.00    +0.000 C 
BRANCH   9  10
ATOM     10  C   UNL     1       1.340   9.526  18.012  0.00  0.00    +0.000 C 
BRANCH  10  11
ATOM     11  C   UNL     1       0.918   9.523  19.478  0.00  0.00    +0.000 C 
BRANCH  11  12
ATOM     12  C   UNL     1       0.863  10.941  20.025  0.00  0.00    +0.000 C 
BRANCH  12  13
ATOM     13  O   UNL     1       1.170  10.922  21.413  0.00  0.00    +0.000 OA
ATOM     14  H   UNL     1       1.495  10.028  21.620  0.00  0.00    +0.000 HD
ENDBRANCH  12  13
ENDBRANCH  11  12
ENDBRANCH  10  11
ENDBRANCH   9  10
ENDBRANCH   7   9
ENDBRANCH   1   8
BRANCH   6  15
ATOM     15  C   UNL     1       3.778   3.916  17.556  0.00  0.00    +0.000 C 
ATOM     16  C   UNL     1       4.541   4.113  16.630  0.00  0.00    +0.000 C 
BRANCH  16  17
ATOM     17  C   UNL     1       5.466   4.407  15.570  0.00  0.00    +0.000 A 
ATOM     18  C   UNL     1       5.315   3.741  14.344  0.00  0.00    +0.000 A 
ATOM     19  C   UNL     1       6.256   3.890  13.322  0.00  0.00    +0.000 A 
ATOM     20  C   UNL     1       7.324   4.765  13.486  0.00  0.00    +0.000 A 
ATOM     21  C   UNL     1       7.445   5.490  14.672  0.00  0.00    +0.000 A 
ATOM     22  C   UNL     1       6.542   5.298  15.740  0.00  0.00    +0.000 A 
BRANCH  22  23
ATOM     23  C   UNL     1       6.820   5.997  17.048  0.00  0.00    +0.000 C 
ATOM     24  F   UNL     1       7.229   5.193  18.066  0.00  0.00    +0.000 F 
ATOM     25  F   UNL     1       7.805   6.934  16.920  0.00  0.00    +0.000 F 
ATOM     26  F   UNL     1       5.741   6.673  17.537  0.00  0.00    +0.000 F 
ENDBRANCH  22  23
ENDBRANCH  16  17
ENDBRANCH   6  15
TORSDOF 9
ENDMDL
MODEL 7
REMARK VINA RESULT:      -7.6      3.320      7.076
REMARK  Name = 
REMARK  9 active torsions:
REMARK  status: ('A' for Active; 'I' for Inactive)
REMARK    1  A    between atoms: O_1  and  C_2
REMARK    2  A    between atoms: C_2  and  C_3
REMARK    3  A    between atoms: C_3  and  C_4
REMARK    4  A    between atoms: C_4  and  C_5
REMARK    5  A    between atoms: C_5  and  C_6
REMARK    6  A    between atoms: C_7  and  C_8
REMARK    7  A    between atoms: C_13  and  C_14
REMARK    8  A    between atoms: C_15  and  C_16
REMARK    9  A    between atoms: C_21  and  C_22
REMARK                            x       y       z     vdW  Elec       q    Type
REMARK                         _______ _______ _______ _____ _____    ______ ____
ROOT
ATOM      1  C   UNL     1       1.923   7.722  19.580  0.00  0.00    +0.000 A 
ATOM      2  C   UNL     1       1.014   8.552  20.248  0.00  0.00    +0.000 A 
ATOM      3  C   UNL     1       0.688   9.800  19.723  0.00  0.00    +0.000 A 
ATOM      4  C   UNL     1       1.333  10.248  18.570  0.00  0.00    +0.000 A 
ATOM      5  C   UNL     1       2.301   9.452  17.943  0.00  0.00    +0.000 A 
ATOM      6  C   UNL     1       2.577   8.160  18.419  0.00  0.00    +0.000 A 
ENDROOT
BRANCH   1   8
ATOM      7  C   UNL     1       2.326   5.185  20.504  0.00  0.00    +0.000 C 
ATOM      8  C   UNL     1       2.136   6.404  20.085  0.00  0.00    +0.000 C 
BRANCH   7   9
ATOM      9  C   UNL     1       2.548   3.763  20.994  0.00  0.00    +0.000 C 
BRANCH   9  10
ATOM     10  C   UNL     1       2.510   2.796  19.826  0.00  0.00    +0.000 C 
BRANCH  10  11
ATOM     11  C   UNL     1       3.351   3.303  18.658  0.00  0.00    +0.000 C 
BRANCH  11  12
ATOM     12  C   UNL     1       2.551   3.270  17.365  0.00  0.00    +0.000 C 
BRANCH  12  13
ATOM     13  O   UNL     1       1.183   3.528  17.653  0.00  0.00    +0.000 OA
ATOM     14  H   UNL     1       0.944   4.348  17.187  0.00  0.00    +0.000 HD
ENDBRANCH  12  13
ENDBRANCH  11  12
ENDBRANCH  10  11
ENDBRANCH   9  10
ENDBRANCH   7   9
ENDBRANCH   1   8
BRANCH   6  15
ATOM     15  C   UNL     1       3.485   7.295  17.710  0.00  0.00    +0.000 C 
ATOM     16  C   UNL     1       4.243   6.576  17.087  0.00  0.00    +0.000 C 
BRANCH  16  17
ATOM     17  C   UNL     1       5.195   5.761  16.384  0.00  0.00    +0.000 A 
ATOM     18  C   UNL     1       4.846   5.260  15.121  0.00  0.00    +0.000 A 
ATOM     19  C   UNL     1       5.676   4.361  14.447  0.00  0.00    +0.000 A 
ATOM     20  C   UNL     1       6.904   4.007  14.996  0.00  0.00    +0.000 A 
ATOM     21  C   UNL     1       7.298   4.557  16.216  0.00  0.00    +0.000 A 
ATOM     22  C   UNL     1       6.439   5.411  16.942  0.00  0.00    +0.000 A 
BRANCH  22  23
ATOM     23  C   UNL     1       6.861   5.845  18.324  0.00  0.00    +0.000 C 
ATOM     24  F   UNL     1       7.978   5.241  18.811  0.00  0.00    +0.000 F 
ATOM     25  F   UNL     1       7.133   7.183  18.372  0.00  0.00    +0.000 F 
ATOM     26  F   UNL     1       5.901   5.639  19.271  0.00  0.00    +0.000 F 
ENDBRANCH  22  23
ENDBRANCH  16  17
ENDBRANCH   6  15
TORSDOF 9
ENDMDL
MODEL 8
REMARK VINA RESULT:      -7.6      3.299      5.653
REMARK  Name = 
REMARK  9 active torsions:
REMARK  status: ('A' for Active; 'I' for Inactive)
REMARK    1  A    between atoms: O_1  and  C_2
REMARK    2  A    between atoms: C_2  and  C_3
REMARK    3  A    between atoms: C_3  and  C_4
REMARK    4  A    between atoms: C_4  and  C_5
REMARK    5  A    between atoms: C_5  and  C_6
REMARK    6  A    between atoms: C_7  and  C_8
REMARK    7  A    between atoms: C_13  and  C_14
REMARK    8  A    between atoms: C_15  and  C_16
REMARK    9  A    between atoms: C_21  and  C_22
REMARK                            x       y       z     vdW  Elec       q    Type
REMARK                         _______ _______ _______ _____ _____    ______ ____
ROOT
ATOM      1  C   UNL     1       3.345   4.121  18.564  0.00  0.00    +0.000 A 
ATOM      2  C   UNL     1       3.598   2.805  18.157  0.00  0.00    +0.000 A 
ATOM      3  C   UNL     1       2.730   1.779  18.523  0.00  0.00    +0.000 A 
ATOM      4  C   UNL     1       1.653   2.061  19.363  0.00  0.00    +0.000 A 
ATOM      5  C   UNL     1       1.442   3.363  19.837  0.00  0.00    +0.000 A 
ATOM      6  C   UNL     1       2.264   4.418  19.408  0.00  0.00    +0.000 A 
ENDROOT
BRANCH   1   8
ATOM      7  C   UNL     1       4.987   6.100  17.645  0.00  0.00    +0.000 C 
ATOM      8  C   UNL     1       4.189   5.160  18.067  0.00  0.00    +0.000 C 
BRANCH   7   9
ATOM      9  C   UNL     1       5.917   7.196  17.153  0.00  0.00    +0.000 C 
BRANCH   9  10
ATOM     10  C   UNL     1       7.356   6.716  17.188  0.00  0.00    +0.000 C 
BRANCH  10  11
ATOM     11  C   UNL     1       7.928   6.779  18.602  0.00  0.00    +0.000 C 
BRANCH  11  12
ATOM     12  C   UNL     1       7.989   5.390  19.219  0.00  0.00    +0.000 C 
BRANCH  12  13
ATOM     13  O   UNL     1       8.082   5.508  20.633  0.00  0.00    +0.000 OA
ATOM     14  H   UNL     1       8.550   6.341  20.818  0.00  0.00    +0.000 HD
ENDBRANCH  12  13
ENDBRANCH  11  12
ENDBRANCH  10  11
ENDBRANCH   9  10
ENDBRANCH   7   9
ENDBRANCH   1   8
BRANCH   6  15
ATOM     15  C   UNL     1       1.981   5.775  19.800  0.00  0.00    +0.000 C 
ATOM     16  C   UNL     1       1.744   6.928  20.103  0.00  0.00    +0.000 C 
BRANCH  16  17
ATOM     17  C   UNL     1       1.396   8.270  20.483  0.00  0.00    +0.000 A 
ATOM     18  C   UNL     1       0.946   8.501  21.791  0.00  0.00    +0.000 A 
ATOM     19  C   UNL     1       0.474   9.758  22.179  0.00  0.00    +0.000 A 
ATOM     20  C   UNL     1       0.514  10.821  21.284  0.00  0.00    +0.000 A 
ATOM     21  C   UNL     1       1.031  10.623  20.003  0.00  0.00    +0.000 A 
ATOM     22  C   UNL     1       1.445   9.343  19.573  0.00  0.00    +0.000 A 
BRANCH  22  23
ATOM     23  C   UNL     1       1.846   9.167  18.129  0.00  0.00    +0.000 C 
ATOM     24  F   UNL     1       3.023   8.518  17.924  0.00  0.00    +0.000 F 
ATOM     25  F   UNL     1       0.918   8.448  17.431  0.00  0.00    +0.000 F 
ATOM     26  F   UNL     1       1.967  10.347  17.456  0.00  0.00    +0.000 F 
ENDBRANCH  22  23
ENDBRANCH  16  17
ENDBRANCH   6  15
TORSDOF 9
ENDMDL
MODEL 9
REMARK VINA RESULT:      -7.5      3.436      7.342
REMARK  Name = 
REMARK  9 active torsions:
REMARK  status: ('A' for Active; 'I' for Inactive)
REMARK    1  A    between atoms: O_1  and  C_2
REMARK    2  A    between atoms: C_2  and  C_3
REMARK    3  A    between atoms: C_3  and  C_4
REMARK    4  A    between atoms: C_4  and  C_5
REMARK    5  A    between atoms: C_5  and  C_6
REMARK    6  A    between atoms: C_7  and  C_8
REMARK    7  A    between atoms: C_13  and  C_14
REMARK    8  A    between atoms: C_15  and  C_16
REMARK    9  A    between atoms: C_21  and  C_22
REMARK                            x       y       z     vdW  Elec       q    Type
REMARK                         _______ _______ _______ _____ _____    ______ ____
ROOT
ATOM      1  C   UNL     1       1.904   7.863  19.531  0.00  0.00    +0.000 A 
ATOM      2  C   UNL     1       0.972   8.685  20.177  0.00  0.00    +0.000 A 
ATOM      3  C   UNL     1       0.633   9.922  19.635  0.00  0.00    +0.000 A 
ATOM      4  C   UNL     1       1.289  10.369  18.487  0.00  0.00    +0.000 A 
ATOM      5  C   UNL     1       2.279   9.584  17.883  0.00  0.00    +0.000 A 
ATOM      6  C   UNL     1       2.570   8.301  18.375  0.00  0.00    +0.000 A 
ENDROOT
BRANCH   1   8
ATOM      7  C   UNL     1       2.299   5.359  20.543  0.00  0.00    +0.000 C 
ATOM      8  C   UNL     1       2.132   6.554  20.051  0.00  0.00    +0.000 C 
BRANCH   7   9
ATOM      9  C   UNL     1       2.495   3.965  21.117  0.00  0.00    +0.000 C 
BRANCH   9  10
ATOM     10  C   UNL     1       1.269   3.112  20.847  0.00  0.00    +0.000 C 
BRANCH  10  11
ATOM     11  C   UNL     1       1.102   2.837  19.355  0.00  0.00    +0.000 C 
BRANCH  11  12
ATOM     12  C   UNL     1       2.316   2.103  18.804  0.00  0.00    +0.000 C 
BRANCH  12  13
ATOM     13  O   UNL     1       2.106   1.816  17.428  0.00  0.00    +0.000 OA
ATOM     14  H   UNL     1       1.175   2.024  17.233  0.00  0.00    +0.000 HD
ENDBRANCH  12  13
ENDBRANCH  11  12
ENDBRANCH  10  11
ENDBRANCH   9  10
ENDBRANCH   7   9
ENDBRANCH   1   8
BRANCH   6  15
ATOM     15  C   UNL     1       3.502   7.445  17.688  0.00  0.00    +0.000 C 
ATOM     16  C   UNL     1       4.305   6.722  17.131  0.00  0.00    +0.000 C 
BRANCH  16  17
ATOM     17  C   UNL     1       5.203   5.814  16.470  0.00  0.00    +0.000 A 
ATOM     18  C   UNL     1       4.823   5.281  15.229  0.00  0.00    +0.000 A 
ATOM     19  C   UNL     1       5.594   4.299  14.600  0.00  0.00    +0.000 A 
ATOM     20  C   UNL     1       6.794   3.890  15.171  0.00  0.00    +0.000 A 
ATOM     21  C   UNL     1       7.221   4.467  16.367  0.00  0.00    +0.000 A 
ATOM     22  C   UNL     1       6.419   5.408  17.050  0.00  0.00    +0.000 A 
BRANCH  22  23
ATOM     23  C   UNL     1       6.866   5.875  18.413  0.00  0.00    +0.000 C 
ATOM     24  F   UNL     1       7.169   7.197  18.508  0.00  0.00    +0.000 F 
ATOM     25  F   UNL     1       5.906   5.662  19.360  0.00  0.00    +0.000 F 
ATOM     26  F   UNL     1       7.973   5.221  18.870  0.00  0.00    +0.000 F 
ENDBRANCH  22  23
ENDBRANCH  16  17
ENDBRANCH   6  15
TORSDOF 9
ENDMDL
