MODEL 1
REMARK VINA RESULT:      -9.1      0.000      0.000
REMARK  Name = 
REMARK  5 active torsions:
REMARK  status: ('A' for Active; 'I' for Inactive)
REMARK    1  A    between atoms: C_2  and  C_3
REMARK    2  A    between atoms: C_3  and  O_4
REMARK    3  A    between atoms: O_4  and  C_5
REMARK    4  A    between atoms: N_12  and  C_13
REMARK    5  A    between atoms: C_18  and  C_19
REMARK                            x       y       z     vdW  Elec       q    Type
REMARK                         _______ _______ _______ _____ _____    ______ ____
ROOT
ATOM      1  C   UNL     1       4.409   4.053  18.093  0.00  0.00    +0.000 A 
ATOM      2  C   UNL     1       3.814   2.871  18.532  0.00  0.00    +0.000 A 
ATOM      3  C   UNL     1       2.678   2.904  19.341  0.00  0.00    +0.000 A 
ATOM      4  C   UNL     1       2.118   4.124  19.725  0.00  0.00    +0.000 A 
ATOM      5 CL   UNL     1       0.697   4.029  20.710  0.00  0.00    +0.000 Cl
ATOM      6  C   UNL     1       2.710   5.337  19.325  0.00  0.00    +0.000 A 
ATOM      7  C   UNL     1       3.875   5.277  18.526  0.00  0.00    +0.000 A 
ENDROOT
BRANCH   6   8
ATOM      8  C   UNL     1       2.178   6.663  19.678  0.00  0.00    +0.000 A 
ATOM      9  N   UNL     1       1.963   7.670  18.848  0.00  0.00    +0.000 NA
ATOM     10  C   UNL     1       1.473   8.703  19.617  0.00  0.00    +0.000 A 
ATOM     11  C   UNL     1       1.114  10.011  19.258  0.00  0.00    +0.000 A 
ATOM     12  C   UNL     1       0.632  10.875  20.253  0.00  0.00    +0.000 A 
ATOM     13  C   UNL     1       0.511  10.447  21.578  0.00  0.00    +0.000 A 
ATOM     14  C   UNL     1       0.868   9.148  21.957  0.00  0.00    +0.000 A 
ATOM     15  C   UNL     1       1.344   8.312  20.942  0.00  0.00    +0.000 A 
ATOM     16  N   UNL     1       1.781   7.018  20.948  0.00  0.00    +0.000 N 
ATOM     17  H   UNL     1       1.849   6.421  21.760  0.00  0.00    +0.000 HD
ENDBRANCH   6   8
BRANCH   1  20
ATOM     18  O   UNL     1       7.184   4.784  18.736  0.00  0.00    +0.000 OA
ATOM     19  C   UNL     1       6.814   4.506  17.597  0.00  0.00    +0.000 C 
ATOM     20  N   UNL     1       5.541   4.069  17.246  0.00  0.00    +0.000 N 
ATOM     21  H   UNL     1       5.442   3.622  16.342  0.00  0.00    +0.000 HD
BRANCH  19  22
ATOM     22  C   UNL     1       7.767   4.655  16.410  0.00  0.00    +0.000 C 
BRANCH  22  23
ATOM     23  O   UNL     1       7.249   5.506  15.396  0.00  0.00    +0.000 OA
BRANCH  23  24
ATOM     24  C   UNL     1       7.022   4.913  14.177  0.00  0.00    +0.000 A 
ATOM     25  C   UNL     1       5.895   4.083  14.122  0.00  0.00    +0.000 A 
ATOM     26  C   UNL     1       5.545   3.430  12.934  0.00  0.00    +0.000 A 
ATOM     27  C   UNL     1       6.318   3.597  11.788  0.00  0.00    +0.000 A 
ATOM     28  C   UNL     1       7.442   4.414  11.829  0.00  0.00    +0.000 A 
ATOM     29  C   UNL     1       7.785   5.065  13.012  0.00  0.00    +0.000 A 
ATOM     30  F   UNL     1       8.873   5.850  12.983  0.00  0.00    +0.000 F 
ENDBRANCH  23  24
ENDBRANCH  22  23
ENDBRANCH  19  22
ENDBRANCH   1  20
TORSDOF 5
ENDMDL
MODEL 2
REMARK VINA RESULT:      -9.0      0.387      1.154
REMARK  Name = 
REMARK  5 active torsions:
REMARK  status: ('A' for Active; 'I' for Inactive)
REMARK    1  A    between atoms: C_2  and  C_3
REMARK    2  A    between atoms: C_3  and  O_4
REMARK    3  A    between atoms: O_4  and  C_5
REMARK    4  A    between atoms: N_12  and  C_13
REMARK    5  A    between atoms: C_18  and  C_19
REMARK                            x       y       z     vdW  Elec       q    Type
REMARK                         _______ _______ _______ _____ _____    ______ ____
ROOT
ATOM      1  C   UNL     1       4.649   3.855  18.409  0.00  0.00    +0.000 A 
ATOM      2  C   UNL     1       4.190   2.661  18.964  0.00  0.00    +0.000 A 
ATOM      3  C   UNL     1       3.093   2.652  19.825  0.00  0.00    +0.000 A 
ATOM      4  C   UNL     1       2.434   3.841  20.145  0.00  0.00    +0.000 A 
ATOM      5 CL   UNL     1       1.073   3.692  21.206  0.00  0.00    +0.000 Cl
ATOM      6  C   UNL     1       2.888   5.068  19.627  0.00  0.00    +0.000 A 
ATOM      7  C   UNL     1       4.018   5.055  18.776  0.00  0.00    +0.000 A 
ENDROOT
BRANCH   6   8
ATOM      8  C   UNL     1       2.246   6.363  19.906  0.00  0.00    +0.000 A 
ATOM      9  N   UNL     1       1.648   6.718  21.030  0.00  0.00    +0.000 NA
ATOM     10  C   UNL     1       1.193   8.004  20.833  0.00  0.00    +0.000 A 
ATOM     11  C   UNL     1       0.460   8.848  21.682  0.00  0.00    +0.000 A 
ATOM     12  C   UNL     1       0.123  10.132  21.228  0.00  0.00    +0.000 A 
ATOM     13  C   UNL     1       0.506  10.567  19.956  0.00  0.00    +0.000 A 
ATOM     14  C   UNL     1       1.234   9.739  19.094  0.00  0.00    +0.000 A 
ATOM     15  C   UNL     1       1.554   8.467  19.576  0.00  0.00    +0.000 A 
ATOM     16  N   UNL     1       2.230   7.418  19.020  0.00  0.00    +0.000 N 
ATOM     17  H   UNL     1       2.620   7.393  18.089  0.00  0.00    +0.000 HD
ENDBRANCH   6   8
BRANCH   1  20
ATOM     18  O   UNL     1       7.307   5.051  18.794  0.00  0.00    +0.000 OA
ATOM     19  C   UNL     1       6.942   4.566  17.724  0.00  0.00    +0.000 C 
ATOM     20  N   UNL     1       5.735   3.910  17.506  0.00  0.00    +0.000 N 
ATOM     21  H   UNL     1       5.672   3.330  16.677  0.00  0.00    +0.000 HD
BRANCH  19  22
ATOM     22  C   UNL     1       7.821   4.677  16.478  0.00  0.00    +0.000 C 
BRANCH  22  23
ATOM     23  O   UNL     1       7.253   5.517  15.482  0.00  0.00    +0.000 OA
BRANCH  23  24
ATOM     24  C   UNL     1       7.007   4.921  14.267  0.00  0.00    +0.000 A 
ATOM     25  C   UNL     1       5.872   4.101  14.229  0.00  0.00    +0.000 A 
ATOM     26  C   UNL     1       5.503   3.447  13.047  0.00  0.00    +0.000 A 
ATOM     27  C   UNL     1       6.265   3.601  11.892  0.00  0.00    +0.000 A 
ATOM     28  C   UNL     1       7.397   4.408  11.917  0.00  0.00    +0.000 A 
ATOM     29  C   UNL     1       7.759   5.061  13.094  0.00  0.00    +0.000 A 
ATOM     30  F   UNL     1       8.854   5.835  13.050  0.00  0.00    +0.000 F 
ENDBRANCH  23  24
ENDBRANCH  22  23
ENDBRANCH  19  22
ENDBRANCH   1  20
TORSDOF 5
ENDMDL
MODEL 3
REMARK VINA RESULT:      -8.7      1.013      1.356
REMARK  Name = 
REMARK  5 active torsions:
REMARK  status: ('A' for Active; 'I' for Inactive)
REMARK    1  A    between atoms: C_2  and  C_3
REMARK    2  A    between atoms: C_3  and  O_4
REMARK    3  A    between atoms: O_4  and  C_5
REMARK    4  A    between atoms: N_12  and  C_13
REMARK    5  A    between atoms: C_18  and  C_19
REMARK                            x       y       z     vdW  Elec       q    Type
REMARK                         _______ _______ _______ _____ _____    ______ ____
ROOT
ATOM      1  C   UNL     1       4.666   3.884  18.507  0.00  0.00    +0.000 A 
ATOM      2  C   UNL     1       4.148   2.708  19.047  0.00  0.00    +0.000 A 
ATOM      3  C   UNL     1       3.018   2.737  19.864  0.00  0.00    +0.000 A 
ATOM      4  C   UNL     1       2.386   3.947  20.156  0.00  0.00    +0.000 A 
ATOM      5 CL   UNL     1       0.981   3.846  21.163  0.00  0.00    +0.000 Cl
ATOM      6  C   UNL     1       2.899   5.158  19.653  0.00  0.00    +0.000 A 
ATOM      7  C   UNL     1       4.060   5.105  18.847  0.00  0.00    +0.000 A 
ENDROOT
BRANCH   6   8
ATOM      8  C   UNL     1       2.289   6.473  19.904  0.00  0.00    +0.000 A 
ATOM      9  N   UNL     1       2.072   7.423  19.010  0.00  0.00    +0.000 NA
ATOM     10  C   UNL     1       1.495   8.470  19.695  0.00  0.00    +0.000 A 
ATOM     11  C   UNL     1       1.094   9.738  19.246  0.00  0.00    +0.000 A 
ATOM     12  C   UNL     1       0.522  10.628  20.166  0.00  0.00    +0.000 A 
ATOM     13  C   UNL     1       0.352  10.266  21.506  0.00  0.00    +0.000 A 
ATOM     14  C   UNL     1       0.748   9.008  21.973  0.00  0.00    +0.000 A 
ATOM     15  C   UNL     1       1.315   8.145  21.031  0.00  0.00    +0.000 A 
ATOM     16  N   UNL     1       1.811   6.876  21.132  0.00  0.00    +0.000 N 
ATOM     17  H   UNL     1       1.864   6.326  21.978  0.00  0.00    +0.000 HD
ENDBRANCH   6   8
BRANCH   1  20
ATOM     18  O   UNL     1       6.971   5.709  18.518  0.00  0.00    +0.000 OA
ATOM     19  C   UNL     1       6.807   4.847  17.657  0.00  0.00    +0.000 C 
ATOM     20  N   UNL     1       5.788   3.901  17.647  0.00  0.00    +0.000 N 
ATOM     21  H   UNL     1       5.917   3.094  17.047  0.00  0.00    +0.000 HD
BRANCH  19  22
ATOM     22  C   UNL     1       7.743   4.762  16.451  0.00  0.00    +0.000 C 
BRANCH  22  23
ATOM     23  O   UNL     1       7.311   5.572  15.366  0.00  0.00    +0.000 OA
BRANCH  23  24
ATOM     24  C   UNL     1       6.862   4.895  14.257  0.00  0.00    +0.000 A 
ATOM     25  C   UNL     1       7.742   4.892  13.168  0.00  0.00    +0.000 A 
ATOM     26  C   UNL     1       7.410   4.225  11.982  0.00  0.00    +0.000 A 
ATOM     27  C   UNL     1       6.193   3.558  11.870  0.00  0.00    +0.000 A 
ATOM     28  C   UNL     1       5.307   3.557  12.942  0.00  0.00    +0.000 A 
ATOM     29  C   UNL     1       5.644   4.217  14.122  0.00  0.00    +0.000 A 
ATOM     30  F   UNL     1       4.752   4.168  15.123  0.00  0.00    +0.000 F 
ENDBRANCH  23  24
ENDBRANCH  22  23
ENDBRANCH  19  22
ENDBRANCH   1  20
TORSDOF 5
ENDMDL
MODEL 4
REMARK VINA RESULT:      -8.5      1.061      1.767
REMARK  Name = 
REMARK  5 active torsions:
REMARK  status: ('A' for Active; 'I' for Inactive)
REMARK    1  A    between atoms: C_2  and  C_3
REMARK    2  A    between atoms: C_3  and  O_4
REMARK    3  A    between atoms: O_4  and  C_5
REMARK    4  A    between atoms: N_12  and  C_13
REMARK    5  A    between atoms: C_18  and  C_19
REMARK                            x       y       z     vdW  Elec       q    Type
REMARK                         _______ _______ _______ _____ _____    ______ ____
ROOT
ATOM      1  C   UNL     1       4.685   3.812  18.544  0.00  0.00    +0.000 A 
ATOM      2  C   UNL     1       4.254   2.624  19.133  0.00  0.00    +0.000 A 
ATOM      3  C   UNL     1       3.162   2.614  20.000  0.00  0.00    +0.000 A 
ATOM      4  C   UNL     1       2.480   3.797  20.293  0.00  0.00    +0.000 A 
ATOM      5 CL   UNL     1       1.128   3.648  21.365  0.00  0.00    +0.000 Cl
ATOM      6  C   UNL     1       2.906   5.020  19.741  0.00  0.00    +0.000 A 
ATOM      7  C   UNL     1       4.031   5.008  18.885  0.00  0.00    +0.000 A 
ENDROOT
BRANCH   6   8
ATOM      8  C   UNL     1       2.239   6.308  19.991  0.00  0.00    +0.000 A 
ATOM      9  N   UNL     1       1.611   6.668  21.097  0.00  0.00    +0.000 NA
ATOM     10  C   UNL     1       1.141   7.944  20.874  0.00  0.00    +0.000 A 
ATOM     11  C   UNL     1       0.378   8.786  21.696  0.00  0.00    +0.000 A 
ATOM     12  C   UNL     1       0.032  10.059  21.220  0.00  0.00    +0.000 A 
ATOM     13  C   UNL     1       0.436  10.486  19.951  0.00  0.00    +0.000 A 
ATOM     14  C   UNL     1       1.195   9.659  19.116  0.00  0.00    +0.000 A 
ATOM     15  C   UNL     1       1.523   8.397  19.620  0.00  0.00    +0.000 A 
ATOM     16  N   UNL     1       2.226   7.352  19.091  0.00  0.00    +0.000 N 
ATOM     17  H   UNL     1       2.637   7.322  18.169  0.00  0.00    +0.000 HD
ENDBRANCH   6   8
BRANCH   1  20
ATOM     18  O   UNL     1       7.266   5.191  18.826  0.00  0.00    +0.000 OA
ATOM     19  C   UNL     1       6.931   4.607  17.798  0.00  0.00    +0.000 C 
ATOM     20  N   UNL     1       5.765   3.866  17.635  0.00  0.00    +0.000 N 
ATOM     21  H   UNL     1       5.736   3.224  16.851  0.00  0.00    +0.000 HD
BRANCH  19  22
ATOM     22  C   UNL     1       7.800   4.680  16.541  0.00  0.00    +0.000 C 
BRANCH  22  23
ATOM     23  O   UNL     1       7.247   5.524  15.542  0.00  0.00    +0.000 OA
BRANCH  23  24
ATOM     24  C   UNL     1       6.865   4.901  14.377  0.00  0.00    +0.000 A 
ATOM     25  C   UNL     1       7.769   5.025  13.315  0.00  0.00    +0.000 A 
ATOM     26  C   UNL     1       7.504   4.424  12.078  0.00  0.00    +0.000 A 
ATOM     27  C   UNL     1       6.333   3.697  11.887  0.00  0.00    +0.000 A 
ATOM     28  C   UNL     1       5.424   3.570  12.932  0.00  0.00    +0.000 A 
ATOM     29  C   UNL     1       5.692   4.165  14.163  0.00  0.00    +0.000 A 
ATOM     30  F   UNL     1       4.782   3.995  15.134  0.00  0.00    +0.000 F 
ENDBRANCH  23  24
ENDBRANCH  22  23
ENDBRANCH  19  22
ENDBRANCH   1  20
TORSDOF 5
ENDMDL
MODEL 5
REMARK VINA RESULT:      -8.5      5.178      7.163
REMARK  Name = 
REMARK  5 active torsions:
REMARK  status: ('A' for Active; 'I' for Inactive)
REMARK    1  A    between atoms: C_2  and  C_3
REMARK    2  A    between atoms: C_3  and  O_4
REMARK    3  A    between atoms: O_4  and  C_5
REMARK    4  A    between atoms: N_12  and  C_13
REMARK    5  A    between atoms: C_18  and  C_19
REMARK                            x       y       z     vdW  Elec       q    Type
REMARK                         _______ _______ _______ _____ _____    ______ ____
ROOT
ATOM      1  C   UNL     1       6.960   6.536  16.690  0.00  0.00    +0.000 A 
ATOM      2  C   UNL     1       7.347   5.780  15.584  0.00  0.00    +0.000 A 
ATOM      3  C   UNL     1       6.780   4.529  15.343  0.00  0.00    +0.000 A 
ATOM      4  C   UNL     1       5.813   4.012  16.208  0.00  0.00    +0.000 A 
ATOM      5 CL   UNL     1       5.171   2.460  15.786  0.00  0.00    +0.000 Cl
ATOM      6  C   UNL     1       5.420   4.734  17.350  0.00  0.00    +0.000 A 
ATOM      7  C   UNL     1       6.028   5.989  17.586  0.00  0.00    +0.000 A 
ENDROOT
BRANCH   6   8
ATOM      8  C   UNL     1       4.403   4.266  18.306  0.00  0.00    +0.000 A 
ATOM      9  N   UNL     1       4.623   3.598  19.425  0.00  0.00    +0.000 NA
ATOM     10  C   UNL     1       3.385   3.369  19.985  0.00  0.00    +0.000 A 
ATOM     11  C   UNL     1       3.032   2.676  21.153  0.00  0.00    +0.000 A 
ATOM     12  C   UNL     1       1.676   2.593  21.502  0.00  0.00    +0.000 A 
ATOM     13  C   UNL     1       0.692   3.187  20.706  0.00  0.00    +0.000 A 
ATOM     14  C   UNL     1       1.024   3.879  19.537  0.00  0.00    +0.000 A 
ATOM     15  C   UNL     1       2.383   3.944  19.217  0.00  0.00    +0.000 A 
ATOM     16  N   UNL     1       3.054   4.515  18.173  0.00  0.00    +0.000 N 
ATOM     17  H   UNL     1       2.633   5.006  17.397  0.00  0.00    +0.000 HD
ENDBRANCH   6   8
BRANCH   1  20
ATOM     18  O   UNL     1       8.617   7.421  18.951  0.00  0.00    +0.000 OA
ATOM     19  C   UNL     1       8.194   8.192  18.092  0.00  0.00    +0.000 C 
ATOM     20  N   UNL     1       7.483   7.822  16.956  0.00  0.00    +0.000 N 
ATOM     21  H   UNL     1       7.430   8.502  16.206  0.00  0.00    +0.000 HD
BRANCH  19  22
ATOM     22  C   UNL     1       8.403   9.701  18.229  0.00  0.00    +0.000 C 
BRANCH  22  23
ATOM     23  O   UNL     1       9.254  10.039  19.315  0.00  0.00    +0.000 OA
BRANCH  23  24
ATOM     24  C   UNL     1      10.079  11.120  19.114  0.00  0.00    +0.000 A 
ATOM     25  C   UNL     1      10.360  11.410  17.773  0.00  0.00    +0.000 A 
ATOM     26  C   UNL     1      11.177  12.494  17.432  0.00  0.00    +0.000 A 
ATOM     27  C   UNL     1      11.726  13.299  18.427  0.00  0.00    +0.000 A 
ATOM     28  C   UNL     1      11.460  13.020  19.763  0.00  0.00    +0.000 A 
ATOM     29  C   UNL     1      10.642  11.943  20.098  0.00  0.00    +0.000 A 
ATOM     30  F   UNL     1      10.413  11.735  21.404  0.00  0.00    +0.000 F 
ENDBRANCH  23  24
ENDBRANCH  22  23
ENDBRANCH  19  22
ENDBRANCH   1  20
TORSDOF 5
ENDMDL
MODEL 6
REMARK VINA RESULT:      -8.4      1.667      2.398
REMARK  Name = 
REMARK  5 active torsions:
REMARK  status: ('A' for Active; 'I' for Inactive)
REMARK    1  A    between atoms: C_2  and  C_3
REMARK    2  A    between atoms: C_3  and  O_4
REMARK    3  A    between atoms: O_4  and  C_5
REMARK    4  A    between atoms: N_12  and  C_13
REMARK    5  A    between atoms: C_18  and  C_19
REMARK                            x       y       z     vdW  Elec       q    Type
REMARK                         _______ _______ _______ _____ _____    ______ ____
ROOT
ATOM      1  C   UNL     1       4.687   4.038  17.179  0.00  0.00    +0.000 A 
ATOM      2  C   UNL     1       4.068   2.841  17.537  0.00  0.00    +0.000 A 
ATOM      3  C   UNL     1       2.912   2.843  18.318  0.00  0.00    +0.000 A 
ATOM      4  C   UNL     1       2.355   4.047  18.753  0.00  0.00    +0.000 A 
ATOM      5 CL   UNL     1       0.908   3.915  19.696  0.00  0.00    +0.000 Cl
ATOM      6  C   UNL     1       2.969   5.273  18.436  0.00  0.00    +0.000 A 
ATOM      7  C   UNL     1       4.154   5.243  17.665  0.00  0.00    +0.000 A 
ENDROOT
BRANCH   6   8
ATOM      8  C   UNL     1       2.442   6.584  18.847  0.00  0.00    +0.000 A 
ATOM      9  N   UNL     1       2.081   6.940  20.068  0.00  0.00    +0.000 NA
ATOM     10  C   UNL     1       1.647   8.244  19.975  0.00  0.00    +0.000 A 
ATOM     11  C   UNL     1       1.121   9.097  20.957  0.00  0.00    +0.000 A 
ATOM     12  C   UNL     1       0.754  10.401  20.590  0.00  0.00    +0.000 A 
ATOM     13  C   UNL     1       0.907  10.846  19.274  0.00  0.00    +0.000 A 
ATOM     14  C   UNL     1       1.427  10.009  18.280  0.00  0.00    +0.000 A 
ATOM     15  C   UNL     1       1.782   8.718  18.679  0.00  0.00    +0.000 A 
ATOM     16  N   UNL     1       2.299   7.656  17.992  0.00  0.00    +0.000 N 
ATOM     17  H   UNL     1       2.506   7.634  17.004  0.00  0.00    +0.000 HD
ENDBRANCH   6   8
BRANCH   1  20
ATOM     18  O   UNL     1       5.373   5.968  15.069  0.00  0.00    +0.000 OA
ATOM     19  C   UNL     1       6.065   4.984  15.324  0.00  0.00    +0.000 C 
ATOM     20  N   UNL     1       5.840   4.087  16.363  0.00  0.00    +0.000 N 
ATOM     21  H   UNL     1       6.615   3.491  16.629  0.00  0.00    +0.000 HD
BRANCH  19  22
ATOM     22  C   UNL     1       7.272   4.634  14.453  0.00  0.00    +0.000 C 
BRANCH  22  23
ATOM     23  O   UNL     1       7.024   4.832  13.068  0.00  0.00    +0.000 OA
BRANCH  23  24
ATOM     24  C   UNL     1       6.672   3.709  12.358  0.00  0.00    +0.000 A 
ATOM     25  C   UNL     1       7.742   3.013  11.783  0.00  0.00    +0.000 A 
ATOM     26  C   UNL     1       7.520   1.843  11.046  0.00  0.00    +0.000 A 
ATOM     27  C   UNL     1       6.227   1.359  10.870  0.00  0.00    +0.000 A 
ATOM     28  C   UNL     1       5.154   2.044  11.431  0.00  0.00    +0.000 A 
ATOM     29  C   UNL     1       5.379   3.205  12.168  0.00  0.00    +0.000 A 
ATOM     30  F   UNL     1       4.304   3.811  12.694  0.00  0.00    +0.000 F 
ENDBRANCH  23  24
ENDBRANCH  22  23
ENDBRANCH  19  22
ENDBRANCH   1  20
TORSDOF 5
ENDMDL
MODEL 7
REMARK VINA RESULT:      -8.3      4.803      7.678
REMARK  Name = 
REMARK  5 active torsions:
REMARK  status: ('A' for Active; 'I' for Inactive)
REMARK    1  A    between atoms: C_2  and  C_3
REMARK    2  A    between atoms: C_3  and  O_4
REMARK    3  A    between atoms: O_4  and  C_5
REMARK    4  A    between atoms: N_12  and  C_13
REMARK    5  A    between atoms: C_18  and  C_19
REMARK                            x       y       z     vdW  Elec       q    Type
REMARK                         _______ _______ _______ _____ _____    ______ ____
ROOT
ATOM      1  C   UNL     1       1.034  10.363  18.237  0.00  0.00    +0.000 A 
ATOM      2  C   UNL     1       1.859  11.450  18.523  0.00  0.00    +0.000 A 
ATOM      3  C   UNL     1       1.313  12.691  18.853  0.00  0.00    +0.000 A 
ATOM      4  C   UNL     1      -0.071  12.864  18.903  0.00  0.00    +0.000 A 
ATOM      5 CL   UNL     1      -0.622  14.445  19.346  0.00  0.00    +0.000 Cl
ATOM      6  C   UNL     1      -0.935  11.797  18.591  0.00  0.00    +0.000 A 
ATOM      7  C   UNL     1      -0.357  10.556  18.235  0.00  0.00    +0.000 A 
ENDROOT
BRANCH   6   8
ATOM      8  C   UNL     1      -2.403  11.893  18.628  0.00  0.00    +0.000 A 
ATOM      9  N   UNL     1      -3.150  12.112  19.697  0.00  0.00    +0.000 NA
ATOM     10  C   UNL     1      -4.456  12.112  19.259  0.00  0.00    +0.000 A 
ATOM     11  C   UNL     1      -5.654  12.261  19.974  0.00  0.00    +0.000 A 
ATOM     12  C   UNL     1      -6.867  12.225  19.272  0.00  0.00    +0.000 A 
ATOM     13  C   UNL     1      -6.889  12.044  17.886  0.00  0.00    +0.000 A 
ATOM     14  C   UNL     1      -5.706  11.890  17.155  0.00  0.00    +0.000 A 
ATOM     15  C   UNL     1      -4.515  11.931  17.885  0.00  0.00    +0.000 A 
ATOM     16  N   UNL     1      -3.206  11.810  17.512  0.00  0.00    +0.000 N 
ATOM     17  H   UNL     1      -2.871  11.642  16.574  0.00  0.00    +0.000 HD
ENDBRANCH   6   8
BRANCH   1  20
ATOM     18  O   UNL     1       1.883   8.229  20.072  0.00  0.00    +0.000 OA
ATOM     19  C   UNL     1       2.001   8.145  18.851  0.00  0.00    +0.000 C 
ATOM     20  N   UNL     1       1.540   9.080  17.930  0.00  0.00    +0.000 N 
ATOM     21  H   UNL     1       1.457   8.773  16.967  0.00  0.00    +0.000 HD
BRANCH  19  22
ATOM     22  C   UNL     1       2.730   6.959  18.217  0.00  0.00    +0.000 C 
BRANCH  22  23
ATOM     23  O   UNL     1       3.110   5.978  19.172  0.00  0.00    +0.000 OA
BRANCH  23  24
ATOM     24  C   UNL     1       2.482   4.759  19.060  0.00  0.00    +0.000 A 
ATOM     25  C   UNL     1       1.569   4.467  20.081  0.00  0.00    +0.000 A 
ATOM     26  C   UNL     1       0.853   3.264  20.075  0.00  0.00    +0.000 A 
ATOM     27  C   UNL     1       1.043   2.338  19.053  0.00  0.00    +0.000 A 
ATOM     28  C   UNL     1       1.950   2.613  18.035  0.00  0.00    +0.000 A 
ATOM     29  C   UNL     1       2.658   3.814  18.042  0.00  0.00    +0.000 A 
ATOM     30  F   UNL     1       3.508   4.025  17.025  0.00  0.00    +0.000 F 
ENDBRANCH  23  24
ENDBRANCH  22  23
ENDBRANCH  19  22
ENDBRANCH   1  20
TORSDOF 5
ENDMDL
MODEL 8
REMARK VINA RESULT:      -8.3      5.119      7.863
REMARK  Name = 
REMARK  5 active torsions:
REMARK  status: ('A' for Active; 'I' for Inactive)
REMARK    1  A    between atoms: C_2  and  C_3
REMARK    2  A    between atoms: C_3  and  O_4
REMARK    3  A    between atoms: O_4  and  C_5
REMARK    4  A    between atoms: N_12  and  C_13
REMARK    5  A    between atoms: C_18  and  C_19
REMARK                            x       y       z     vdW  Elec       q    Type
REMARK                         _______ _______ _______ _____ _____    ______ ____
ROOT
ATOM      1  C   UNL     1       1.065  10.561  18.322  0.00  0.00    +0.000 A 
ATOM      2  C   UNL     1       1.853  11.684  18.572  0.00  0.00    +0.000 A 
ATOM      3  C   UNL     1       1.267  12.911  18.881  0.00  0.00    +0.000 A 
ATOM      4  C   UNL     1      -0.122  13.035  18.946  0.00  0.00    +0.000 A 
ATOM      5 CL   UNL     1      -0.724  14.605  19.361  0.00  0.00    +0.000 Cl
ATOM      6  C   UNL     1      -0.950  11.931  18.670  0.00  0.00    +0.000 A 
ATOM      7  C   UNL     1      -0.332  10.704  18.334  0.00  0.00    +0.000 A 
ENDROOT
BRANCH   6   8
ATOM      8  C   UNL     1      -2.420  11.975  18.725  0.00  0.00    +0.000 A 
ATOM      9  N   UNL     1      -3.160  12.200  19.796  0.00  0.00    +0.000 NA
ATOM     10  C   UNL     1      -4.471  12.139  19.377  0.00  0.00    +0.000 A 
ATOM     11  C   UNL     1      -5.664  12.267  20.104  0.00  0.00    +0.000 A 
ATOM     12  C   UNL     1      -6.885  12.165  19.420  0.00  0.00    +0.000 A 
ATOM     13  C   UNL     1      -6.918  11.938  18.041  0.00  0.00    +0.000 A 
ATOM     14  C   UNL     1      -5.739  11.804  17.299  0.00  0.00    +0.000 A 
ATOM     15  C   UNL     1      -4.541  11.912  18.010  0.00  0.00    +0.000 A 
ATOM     16  N   UNL     1      -3.234  11.827  17.623  0.00  0.00    +0.000 N 
ATOM     17  H   UNL     1      -2.905  11.641  16.686  0.00  0.00    +0.000 HD
ENDBRANCH   6   8
BRANCH   1  20
ATOM     18  O   UNL     1       1.674   8.359  20.171  0.00  0.00    +0.000 OA
ATOM     19  C   UNL     1       1.953   8.321  18.975  0.00  0.00    +0.000 C 
ATOM     20  N   UNL     1       1.614   9.290  18.037  0.00  0.00    +0.000 N 
ATOM     21  H   UNL     1       1.661   9.020  17.061  0.00  0.00    +0.000 HD
BRANCH  19  22
ATOM     22  C   UNL     1       2.765   7.160  18.400  0.00  0.00    +0.000 C 
BRANCH  22  23
ATOM     23  O   UNL     1       3.006   6.136  19.355  0.00  0.00    +0.000 OA
BRANCH  23  24
ATOM     24  C   UNL     1       2.468   4.905  19.060  0.00  0.00    +0.000 A 
ATOM     25  C   UNL     1       3.006   4.279  17.929  0.00  0.00    +0.000 A 
ATOM     26  C   UNL     1       2.555   3.015  17.529  0.00  0.00    +0.000 A 
ATOM     27  C   UNL     1       1.559   2.365  18.252  0.00  0.00    +0.000 A 
ATOM     28  C   UNL     1       1.012   2.977  19.375  0.00  0.00    +0.000 A 
ATOM     29  C   UNL     1       1.468   4.233  19.773  0.00  0.00    +0.000 A 
ATOM     30  F   UNL     1       0.909   4.763  20.871  0.00  0.00    +0.000 F 
ENDBRANCH  23  24
ENDBRANCH  22  23
ENDBRANCH  19  22
ENDBRANCH   1  20
TORSDOF 5
ENDMDL
MODEL 9
REMARK VINA RESULT:      -8.2      1.147      1.346
REMARK  Name = 
REMARK  5 active torsions:
REMARK  status: ('A' for Active; 'I' for Inactive)
REMARK    1  A    between atoms: C_2  and  C_3
REMARK    2  A    between atoms: C_3  and  O_4
REMARK    3  A    between atoms: O_4  and  C_5
REMARK    4  A    between atoms: N_12  and  C_13
REMARK    5  A    between atoms: C_18  and  C_19
REMARK                            x       y       z     vdW  Elec       q    Type
REMARK                         _______ _______ _______ _____ _____    ______ ____
ROOT
ATOM      1  C   UNL     1       4.583   5.449  18.473  0.00  0.00    +0.000 A 
ATOM      2  C   UNL     1       4.095   4.148  18.590  0.00  0.00    +0.000 A 
ATOM      3  C   UNL     1       2.876   3.899  19.220  0.00  0.00    +0.000 A 
ATOM      4  C   UNL     1       2.122   4.952  19.745  0.00  0.00    +0.000 A 
ATOM      5 CL   UNL     1       0.618   4.513  20.481  0.00  0.00    +0.000 Cl
ATOM      6  C   UNL     1       2.599   6.274  19.672  0.00  0.00    +0.000 A 
ATOM      7  C   UNL     1       3.849   6.498  19.050  0.00  0.00    +0.000 A 
ENDROOT
BRANCH   6   8
ATOM      8  C   UNL     1       1.864   7.439  20.190  0.00  0.00    +0.000 A 
ATOM      9  N   UNL     1       1.477   8.497  19.498  0.00  0.00    +0.000 NA
ATOM     10  C   UNL     1       0.837   9.328  20.392  0.00  0.00    +0.000 A 
ATOM     11  C   UNL     1       0.265  10.595  20.204  0.00  0.00    +0.000 A 
ATOM     12  C   UNL     1      -0.336  11.232  21.300  0.00  0.00    +0.000 A 
ATOM     13  C   UNL     1      -0.366  10.622  22.557  0.00  0.00    +0.000 A 
ATOM     14  C   UNL     1       0.202   9.360  22.765  0.00  0.00    +0.000 A 
ATOM     15  C   UNL     1       0.792   8.752  21.653  0.00  0.00    +0.000 A 
ATOM     16  N   UNL     1       1.434   7.557  21.494  0.00  0.00    +0.000 N 
ATOM     17  H   UNL     1       1.609   6.878  22.221  0.00  0.00    +0.000 HD
ENDBRANCH   6   8
BRANCH   1  20
ATOM     18  O   UNL     1       4.999   6.892  15.945  0.00  0.00    +0.000 OA
ATOM     19  C   UNL     1       5.917   6.371  16.575  0.00  0.00    +0.000 C 
ATOM     20  N   UNL     1       5.796   5.753  17.815  0.00  0.00    +0.000 N 
ATOM     21  H   UNL     1       6.651   5.609  18.341  0.00  0.00    +0.000 HD
BRANCH  19  22
ATOM     22  C   UNL     1       7.333   6.332  15.998  0.00  0.00    +0.000 C 
BRANCH  22  23
ATOM     23  O   UNL     1       7.713   5.033  15.567  0.00  0.00    +0.000 OA
BRANCH  23  24
ATOM     24  C   UNL     1       7.267   4.664  14.319  0.00  0.00    +0.000 A 
ATOM     25  C   UNL     1       6.139   3.833  14.315  0.00  0.00    +0.000 A 
ATOM     26  C   UNL     1       5.577   3.398  13.109  0.00  0.00    +0.000 A 
ATOM     27  C   UNL     1       6.138   3.782  11.894  0.00  0.00    +0.000 A 
ATOM     28  C   UNL     1       7.261   4.603  11.884  0.00  0.00    +0.000 A 
ATOM     29  C   UNL     1       7.815   5.038  13.086  0.00  0.00    +0.000 A 
ATOM     30  F   UNL     1       8.889   5.838  13.008  0.00  0.00    +0.000 F 
ENDBRANCH  23  24
ENDBRANCH  22  23
ENDBRANCH  19  22
ENDBRANCH   1  20
TORSDOF 5
ENDMDL
