MODEL 1
REMARK VINA RESULT:      -6.1      0.000      0.000
REMARK  Name = 
REMARK  2 active torsions:
REMARK  status: ('A' for Active; 'I' for Inactive)
REMARK    1  A    between atoms: N_7  and  C_8
REMARK    2  A    between atoms: C_11  and  O_12
REMARK                            x       y       z     vdW  Elec       q    Type
REMARK                         _______ _______ _______ _____ _____    ______ ____
ROOT
ATOM      1  C   UNL     1       4.876   4.241  18.258  0.00  0.00    +0.000 A 
ATOM      2  C   UNL     1       6.146   4.748  18.574  0.00  0.00    +0.000 A 
ATOM      3  C   UNL     1       7.107   4.929  17.573  0.00  0.00    +0.000 A 
ATOM      4  C   UNL     1       6.782   4.638  16.254  0.00  0.00    +0.000 A 
ATOM      5  C   UNL     1       5.520   4.166  15.918  0.00  0.00    +0.000 A 
ATOM      6  C   UNL     1       4.567   3.962  16.919  0.00  0.00    +0.000 A 
ENDROOT
BRANCH   1  13
ATOM      7  O   UNL     1       4.506   1.820  19.689  0.00  0.00    +0.000 OA
ATOM      8  C   UNL     1       3.819   2.814  19.919  0.00  0.00    +0.000 C 
ATOM      9  C   UNL     1       2.781   2.806  21.006  0.00  0.00    +0.000 C 
ATOM     10  S   UNL     1       2.025   4.433  21.018  0.00  0.00    +0.000 S 
ATOM     11  C   UNL     1       3.005   5.021  19.681  0.00  0.00    +0.000 C 
ATOM     12  S   UNL     1       2.704   6.528  19.019  0.00  0.00    +0.000 S 
ATOM     13  N   UNL     1       3.905   4.047  19.283  0.00  0.00    +0.000 N 
ENDBRANCH   1  13
BRANCH   4  14
ATOM     14  O   UNL     1       7.684   4.808  15.246  0.00  0.00    +0.000 OA
ATOM     15  H   UNL     1       8.249   4.020  15.196  0.00  0.00    +0.000 HD
ENDBRANCH   4  14
TORSDOF 2
ENDMDL
MODEL 2
REMARK VINA RESULT:      -6.1      0.041      1.293
REMARK  Name = 
REMARK  2 active torsions:
REMARK  status: ('A' for Active; 'I' for Inactive)
REMARK    1  A    between atoms: N_7  and  C_8
REMARK    2  A    between atoms: C_11  and  O_12
REMARK                            x       y       z     vdW  Elec       q    Type
REMARK                         _______ _______ _______ _____ _____    ______ ____
ROOT
ATOM      1  C   UNL     1       4.843   4.249  18.249  0.00  0.00    +0.000 A 
ATOM      2  C   UNL     1       4.535   3.915  16.921  0.00  0.00    +0.000 A 
ATOM      3  C   UNL     1       5.473   4.116  15.903  0.00  0.00    +0.000 A 
ATOM      4  C   UNL     1       6.730   4.616  16.220  0.00  0.00    +0.000 A 
ATOM      5  C   UNL     1       7.064   4.922  17.533  0.00  0.00    +0.000 A 
ATOM      6  C   UNL     1       6.120   4.745  18.548  0.00  0.00    +0.000 A 
ENDROOT
BRANCH   1  13
ATOM      7  O   UNL     1       4.476   1.823  19.673  0.00  0.00    +0.000 OA
ATOM      8  C   UNL     1       3.794   2.818  19.912  0.00  0.00    +0.000 C 
ATOM      9  C   UNL     1       2.764   2.808  21.006  0.00  0.00    +0.000 C 
ATOM     10  S   UNL     1       2.013   4.438  21.030  0.00  0.00    +0.000 S 
ATOM     11  C   UNL     1       2.986   5.028  19.689  0.00  0.00    +0.000 C 
ATOM     12  S   UNL     1       2.684   6.539  19.035  0.00  0.00    +0.000 S 
ATOM     13  N   UNL     1       3.880   4.054  19.281  0.00  0.00    +0.000 N 
ENDBRANCH   1  13
BRANCH   4  14
ATOM     14  O   UNL     1       7.677   4.820  15.262  0.00  0.00    +0.000 OA
ATOM     15  H   UNL     1       8.186   5.614  15.489  0.00  0.00    +0.000 HD
ENDBRANCH   4  14
TORSDOF 2
ENDMDL
MODEL 3
REMARK VINA RESULT:      -5.9      2.210      2.506
REMARK  Name = 
REMARK  2 active torsions:
REMARK  status: ('A' for Active; 'I' for Inactive)
REMARK    1  A    between atoms: N_7  and  C_8
REMARK    2  A    between atoms: C_11  and  O_12
REMARK                            x       y       z     vdW  Elec       q    Type
REMARK                         _______ _______ _______ _____ _____    ______ ____
ROOT
ATOM      1  C   UNL     1       4.268   4.931  18.438  0.00  0.00    +0.000 A 
ATOM      2  C   UNL     1       5.509   5.018  19.089  0.00  0.00    +0.000 A 
ATOM      3  C   UNL     1       6.631   5.511  18.414  0.00  0.00    +0.000 A 
ATOM      4  C   UNL     1       6.502   5.951  17.103  0.00  0.00    +0.000 A 
ATOM      5  C   UNL     1       5.274   5.903  16.453  0.00  0.00    +0.000 A 
ATOM      6  C   UNL     1       4.159   5.388  17.117  0.00  0.00    +0.000 A 
ENDROOT
BRANCH   1  13
ATOM      7  O   UNL     1       2.515   6.482  20.041  0.00  0.00    +0.000 OA
ATOM      8  C   UNL     1       2.341   5.275  19.880  0.00  0.00    +0.000 C 
ATOM      9  C   UNL     1       1.160   4.573  20.490  0.00  0.00    +0.000 C 
ATOM     10  S   UNL     1       1.273   2.848  20.010  0.00  0.00    +0.000 S 
ATOM     11  C   UNL     1       2.767   3.081  19.112  0.00  0.00    +0.000 C 
ATOM     12  S   UNL     1       3.578   1.761  18.476  0.00  0.00    +0.000 S 
ATOM     13  N   UNL     1       3.132   4.416  19.126  0.00  0.00    +0.000 N 
ENDBRANCH   1  13
BRANCH   4  14
ATOM     14  O   UNL     1       7.566   6.447  16.411  0.00  0.00    +0.000 OA
ATOM     15  H   UNL     1       8.383   6.096  16.800  0.00  0.00    +0.000 HD
ENDBRANCH   4  14
TORSDOF 2
ENDMDL
MODEL 4
REMARK VINA RESULT:      -5.9      2.203      2.781
REMARK  Name = 
REMARK  2 active torsions:
REMARK  status: ('A' for Active; 'I' for Inactive)
REMARK    1  A    between atoms: N_7  and  C_8
REMARK    2  A    between atoms: C_11  and  O_12
REMARK                            x       y       z     vdW  Elec       q    Type
REMARK                         _______ _______ _______ _____ _____    ______ ____
ROOT
ATOM      1  C   UNL     1       4.282   4.953  18.468  0.00  0.00    +0.000 A 
ATOM      2  C   UNL     1       4.164   5.350  17.127  0.00  0.00    +0.000 A 
ATOM      3  C   UNL     1       5.266   5.874  16.443  0.00  0.00    +0.000 A 
ATOM      4  C   UNL     1       6.493   5.964  17.089  0.00  0.00    +0.000 A 
ATOM      5  C   UNL     1       6.636   5.545  18.406  0.00  0.00    +0.000 A 
ATOM      6  C   UNL     1       5.531   5.045  19.099  0.00  0.00    +0.000 A 
ENDROOT
BRANCH   1  13
ATOM      7  O   UNL     1       2.519   6.499  20.065  0.00  0.00    +0.000 OA
ATOM      8  C   UNL     1       2.357   5.289  19.914  0.00  0.00    +0.000 C 
ATOM      9  C   UNL     1       1.184   4.580  20.534  0.00  0.00    +0.000 C 
ATOM     10  S   UNL     1       1.313   2.853  20.066  0.00  0.00    +0.000 S 
ATOM     11  C   UNL     1       2.802   3.093  19.161  0.00  0.00    +0.000 C 
ATOM     12  S   UNL     1       3.623   1.777  18.533  0.00  0.00    +0.000 S 
ATOM     13  N   UNL     1       3.153   4.432  19.164  0.00  0.00    +0.000 N 
ENDBRANCH   1  13
BRANCH   4  14
ATOM     14  O   UNL     1       7.594   6.459  16.459  0.00  0.00    +0.000 OA
ATOM     15  H   UNL     1       8.388   6.129  16.910  0.00  0.00    +0.000 HD
ENDBRANCH   4  14
TORSDOF 2
ENDMDL
MODEL 5
REMARK VINA RESULT:      -5.9      1.920      2.374
REMARK  Name = 
REMARK  2 active torsions:
REMARK  status: ('A' for Active; 'I' for Inactive)
REMARK    1  A    between atoms: N_7  and  C_8
REMARK    2  A    between atoms: C_11  and  O_12
REMARK                            x       y       z     vdW  Elec       q    Type
REMARK                         _______ _______ _______ _____ _____    ______ ____
ROOT
ATOM      1  C   UNL     1       4.619   5.007  18.296  0.00  0.00    +0.000 A 
ATOM      2  C   UNL     1       5.889   5.479  18.665  0.00  0.00    +0.000 A 
ATOM      3  C   UNL     1       6.890   5.647  17.703  0.00  0.00    +0.000 A 
ATOM      4  C   UNL     1       6.608   5.381  16.369  0.00  0.00    +0.000 A 
ATOM      5  C   UNL     1       5.348   4.945  15.981  0.00  0.00    +0.000 A 
ATOM      6  C   UNL     1       4.354   4.752  16.943  0.00  0.00    +0.000 A 
ENDROOT
BRANCH   1  13
ATOM      7  O   UNL     1       2.811   7.023  19.141  0.00  0.00    +0.000 OA
ATOM      8  C   UNL     1       2.774   5.888  19.613  0.00  0.00    +0.000 C 
ATOM      9  C   UNL     1       1.735   5.502  20.628  0.00  0.00    +0.000 C 
ATOM     10  S   UNL     1       2.023   3.780  21.041  0.00  0.00    +0.000 S 
ATOM     11  C   UNL     1       3.409   3.639  19.967  0.00  0.00    +0.000 C 
ATOM     12  S   UNL     1       4.326   2.238  19.961  0.00  0.00    +0.000 S 
ATOM     13  N   UNL     1       3.607   4.825  19.282  0.00  0.00    +0.000 N 
ENDBRANCH   1  13
BRANCH   4  14
ATOM     14  O   UNL     1       7.551   5.540  15.397  0.00  0.00    +0.000 OA
ATOM     15  H   UNL     1       8.430   5.511  15.807  0.00  0.00    +0.000 HD
ENDBRANCH   4  14
TORSDOF 2
ENDMDL
MODEL 6
REMARK VINA RESULT:      -5.9      1.915      2.699
REMARK  Name = 
REMARK  2 active torsions:
REMARK  status: ('A' for Active; 'I' for Inactive)
REMARK    1  A    between atoms: N_7  and  C_8
REMARK    2  A    between atoms: C_11  and  O_12
REMARK                            x       y       z     vdW  Elec       q    Type
REMARK                         _______ _______ _______ _____ _____    ______ ____
ROOT
ATOM      1  C   UNL     1       4.615   5.008  18.286  0.00  0.00    +0.000 A 
ATOM      2  C   UNL     1       4.356   4.690  16.944  0.00  0.00    +0.000 A 
ATOM      3  C   UNL     1       5.340   4.877  15.967  0.00  0.00    +0.000 A 
ATOM      4  C   UNL     1       6.593   5.346  16.341  0.00  0.00    +0.000 A 
ATOM      5  C   UNL     1       6.878   5.635  17.669  0.00  0.00    +0.000 A 
ATOM      6  C   UNL     1       5.889   5.472  18.642  0.00  0.00    +0.000 A 
ENDROOT
BRANCH   1  13
ATOM      7  O   UNL     1       2.810   7.026  19.132  0.00  0.00    +0.000 OA
ATOM      8  C   UNL     1       2.774   5.891  19.605  0.00  0.00    +0.000 C 
ATOM      9  C   UNL     1       1.736   5.507  20.623  0.00  0.00    +0.000 C 
ATOM     10  S   UNL     1       2.024   3.785  21.037  0.00  0.00    +0.000 S 
ATOM     11  C   UNL     1       3.408   3.642  19.961  0.00  0.00    +0.000 C 
ATOM     12  S   UNL     1       4.324   2.241  19.954  0.00  0.00    +0.000 S 
ATOM     13  N   UNL     1       3.605   4.827  19.274  0.00  0.00    +0.000 N 
ENDBRANCH   1  13
BRANCH   4  14
ATOM     14  O   UNL     1       7.584   5.534  15.424  0.00  0.00    +0.000 OA
ATOM     15  H   UNL     1       7.288   5.187  14.568  0.00  0.00    +0.000 HD
ENDBRANCH   4  14
TORSDOF 2
ENDMDL
MODEL 7
REMARK VINA RESULT:      -5.8      1.366      1.366
REMARK  Name = 
REMARK  2 active torsions:
REMARK  status: ('A' for Active; 'I' for Inactive)
REMARK    1  A    between atoms: N_7  and  C_8
REMARK    2  A    between atoms: C_11  and  O_12
REMARK                            x       y       z     vdW  Elec       q    Type
REMARK                         _______ _______ _______ _____ _____    ______ ____
ROOT
ATOM      1  C   UNL     1       4.389   4.709  18.267  0.00  0.00    +0.000 A 
ATOM      2  C   UNL     1       5.614   4.819  18.942  0.00  0.00    +0.000 A 
ATOM      3  C   UNL     1       6.718   5.412  18.319  0.00  0.00    +0.000 A 
ATOM      4  C   UNL     1       6.582   5.928  17.035  0.00  0.00    +0.000 A 
ATOM      5  C   UNL     1       5.368   5.857  16.364  0.00  0.00    +0.000 A 
ATOM      6  C   UNL     1       4.273   5.243  16.975  0.00  0.00    +0.000 A 
ENDROOT
BRANCH   1  13
ATOM      7  O   UNL     1       3.705   1.968  18.019  0.00  0.00    +0.000 OA
ATOM      8  C   UNL     1       3.038   2.737  18.710  0.00  0.00    +0.000 C 
ATOM      9  C   UNL     1       1.854   2.246  19.494  0.00  0.00    +0.000 C 
ATOM     10  S   UNL     1       1.179   3.665  20.361  0.00  0.00    +0.000 S 
ATOM     11  C   UNL     1       2.369   4.777  19.697  0.00  0.00    +0.000 C 
ATOM     12  S   UNL     1       2.236   6.421  19.988  0.00  0.00    +0.000 S 
ATOM     13  N   UNL     1       3.272   4.093  18.902  0.00  0.00    +0.000 N 
ENDBRANCH   1  13
BRANCH   4  14
ATOM     14  O   UNL     1       7.628   6.521  16.394  0.00  0.00    +0.000 OA
ATOM     15  H   UNL     1       7.323   6.840  15.529  0.00  0.00    +0.000 HD
ENDBRANCH   4  14
TORSDOF 2
ENDMDL
MODEL 8
REMARK VINA RESULT:      -5.5      3.182      4.894
REMARK  Name = 
REMARK  2 active torsions:
REMARK  status: ('A' for Active; 'I' for Inactive)
REMARK    1  A    between atoms: N_7  and  C_8
REMARK    2  A    between atoms: C_11  and  O_12
REMARK                            x       y       z     vdW  Elec       q    Type
REMARK                         _______ _______ _______ _____ _____    ______ ____
ROOT
ATOM      1  C   UNL     1       3.923   4.018  17.856  0.00  0.00    +0.000 A 
ATOM      2  C   UNL     1       3.882   2.642  18.131  0.00  0.00    +0.000 A 
ATOM      3  C   UNL     1       2.660   1.999  18.357  0.00  0.00    +0.000 A 
ATOM      4  C   UNL     1       1.479   2.726  18.270  0.00  0.00    +0.000 A 
ATOM      5  C   UNL     1       1.498   4.081  17.968  0.00  0.00    +0.000 A 
ATOM      6  C   UNL     1       2.718   4.730  17.766  0.00  0.00    +0.000 A 
ENDROOT
BRANCH   1  13
ATOM      7  O   UNL     1       5.407   5.365  19.864  0.00  0.00    +0.000 OA
ATOM      8  C   UNL     1       5.810   5.295  18.704  0.00  0.00    +0.000 C 
ATOM      9  C   UNL     1       7.135   5.883  18.306  0.00  0.00    +0.000 C 
ATOM     10  S   UNL     1       7.345   5.557  16.554  0.00  0.00    +0.000 S 
ATOM     11  C   UNL     1       5.793   4.744  16.405  0.00  0.00    +0.000 C 
ATOM     12  S   UNL     1       5.231   4.276  14.899  0.00  0.00    +0.000 S 
ATOM     13  N   UNL     1       5.171   4.670  17.640  0.00  0.00    +0.000 N 
ENDBRANCH   1  13
BRANCH   4  14
ATOM     14  O   UNL     1       0.267   2.139  18.474  0.00  0.00    +0.000 OA
ATOM     15  H   UNL     1       0.407   1.243  18.820  0.00  0.00    +0.000 HD
ENDBRANCH   4  14
TORSDOF 2
ENDMDL
MODEL 9
REMARK VINA RESULT:      -5.5      3.178      4.935
REMARK  Name = 
REMARK  2 active torsions:
REMARK  status: ('A' for Active; 'I' for Inactive)
REMARK    1  A    between atoms: N_7  and  C_8
REMARK    2  A    between atoms: C_11  and  O_12
REMARK                            x       y       z     vdW  Elec       q    Type
REMARK                         _______ _______ _______ _____ _____    ______ ____
ROOT
ATOM      1  C   UNL     1       3.943   3.970  17.851  0.00  0.00    +0.000 A 
ATOM      2  C   UNL     1       2.772   4.738  17.754  0.00  0.00    +0.000 A 
ATOM      3  C   UNL     1       1.519   4.150  17.955  0.00  0.00    +0.000 A 
ATOM      4  C   UNL     1       1.441   2.804  18.291  0.00  0.00    +0.000 A 
ATOM      5  C   UNL     1       2.591   2.036  18.424  0.00  0.00    +0.000 A 
ATOM      6  C   UNL     1       3.842   2.615  18.199  0.00  0.00    +0.000 A 
ENDROOT
BRANCH   1  13
ATOM      7  O   UNL     1       5.448   5.324  19.838  0.00  0.00    +0.000 OA
ATOM      8  C   UNL     1       5.863   5.206  18.686  0.00  0.00    +0.000 C 
ATOM      9  C   UNL     1       7.213   5.734  18.289  0.00  0.00    +0.000 C 
ATOM     10  S   UNL     1       7.433   5.350  16.551  0.00  0.00    +0.000 S 
ATOM     11  C   UNL     1       5.855   4.587  16.405  0.00  0.00    +0.000 C 
ATOM     12  S   UNL     1       5.296   4.094  14.906  0.00  0.00    +0.000 S 
ATOM     13  N   UNL     1       5.216   4.571  17.632  0.00  0.00    +0.000 N 
ENDBRANCH   1  13
BRANCH   4  14
ATOM     14  O   UNL     1       0.242   2.193  18.505  0.00  0.00    +0.000 OA
ATOM     15  H   UNL     1       0.239   1.816  19.400  0.00  0.00    +0.000 HD
ENDBRANCH   4  14
TORSDOF 2
ENDMDL
