MODEL 1
REMARK VINA RESULT:      -8.4      0.000      0.000
REMARK  Name = 
REMARK  3 active torsions:
REMARK  status: ('A' for Active; 'I' for Inactive)
REMARK    1  A    between atoms: C_2  and  C_3
REMARK    2  A    between atoms: C_2  and  C_13
REMARK    3  A    between atoms: C_7  and  O_8
REMARK                            x       y       z     vdW  Elec       q    Type
REMARK                         _______ _______ _______ _____ _____    ______ ____
ROOT
ATOM      1  O   UNL     1       7.763   5.407  18.599  0.00  0.00    +0.000 OA
ATOM      2  C   UNL     1       6.746   4.980  18.062  0.00  0.00    +0.000 C 
ENDROOT
BRANCH   2   3
ATOM      3  C   UNL     1       5.542   4.696  18.816  0.00  0.00    +0.000 A 
ATOM      4  C   UNL     1       4.502   5.520  19.209  0.00  0.00    +0.000 A 
ATOM      5  C   UNL     1       3.549   4.744  19.926  0.00  0.00    +0.000 A 
ATOM      6  C   UNL     1       2.320   5.015  20.561  0.00  0.00    +0.000 A 
ATOM      7 BR   UNL     1       1.592   6.763  20.558  0.00  0.00    +0.000 Br
ATOM      8  C   UNL     1       1.627   3.984  21.201  0.00  0.00    +0.000 A 
ATOM      9  C   UNL     1       2.144   2.690  21.215  0.00  0.00    +0.000 A 
ATOM     10  C   UNL     1       3.357   2.390  20.583  0.00  0.00    +0.000 A 
ATOM     11  C   UNL     1       4.033   3.435  19.943  0.00  0.00    +0.000 A 
ATOM     12  N   UNL     1       5.209   3.424  19.228  0.00  0.00    +0.000 N 
ATOM     13  H   UNL     1       5.771   2.604  19.041  0.00  0.00    +0.000 HD
ENDBRANCH   2   3
BRANCH   2  14
ATOM     14  C   UNL     1       6.632   4.771  16.630  0.00  0.00    +0.000 A 
ATOM     15  C   UNL     1       5.748   3.953  15.948  0.00  0.00    +0.000 A 
ATOM     16  C   UNL     1       6.074   3.990  14.565  0.00  0.00    +0.000 A 
ATOM     17  C   UNL     1       5.552   3.361  13.417  0.00  0.00    +0.000 A 
ATOM     18  C   UNL     1       6.173   3.594  12.187  0.00  0.00    +0.000 A 
ATOM     19  C   UNL     1       7.275   4.432  12.074  0.00  0.00    +0.000 A 
ATOM     20  C   UNL     1       7.795   5.081  13.198  0.00  0.00    +0.000 A 
ATOM     21  C   UNL     1       7.172   4.837  14.427  0.00  0.00    +0.000 A 
ATOM     22  N   UNL     1       7.471   5.316  15.680  0.00  0.00    +0.000 N 
ATOM     23  H   UNL     1       8.238   5.943  15.880  0.00  0.00    +0.000 HD
BRANCH  18  24
ATOM     24  O   UNL     1       5.723   2.990  11.048  0.00  0.00    +0.000 OA
ATOM     25  H   UNL     1       6.491   2.740  10.509  0.00  0.00    +0.000 HD
ENDBRANCH  18  24
ENDBRANCH   2  14
TORSDOF 3
ENDMDL
MODEL 2
REMARK VINA RESULT:      -8.0      3.709      5.100
REMARK  Name = 
REMARK  3 active torsions:
REMARK  status: ('A' for Active; 'I' for Inactive)
REMARK    1  A    between atoms: C_2  and  C_3
REMARK    2  A    between atoms: C_2  and  C_13
REMARK    3  A    between atoms: C_7  and  O_8
REMARK                            x       y       z     vdW  Elec       q    Type
REMARK                         _______ _______ _______ _____ _____    ______ ____
ROOT
ATOM      1  O   UNL     1       2.323   4.738  20.992  0.00  0.00    +0.000 OA
ATOM      2  C   UNL     1       2.579   5.565  20.125  0.00  0.00    +0.000 C 
ENDROOT
BRANCH   2   3
ATOM      3  C   UNL     1       2.006   6.896  20.139  0.00  0.00    +0.000 A 
ATOM      4  C   UNL     1       1.298   7.567  21.121  0.00  0.00    +0.000 A 
ATOM      5  C   UNL     1       0.965   8.864  20.637  0.00  0.00    +0.000 A 
ATOM      6  C   UNL     1       0.267   9.972  21.160  0.00  0.00    +0.000 A 
ATOM      7 BR   UNL     1      -0.464   9.921  22.906  0.00  0.00    +0.000 Br
ATOM      8  C   UNL     1       0.112  11.123  20.384  0.00  0.00    +0.000 A 
ATOM      9  C   UNL     1       0.643  11.183  19.097  0.00  0.00    +0.000 A 
ATOM     10  C   UNL     1       1.349  10.102  18.557  0.00  0.00    +0.000 A 
ATOM     11  C   UNL     1       1.499   8.959  19.351  0.00  0.00    +0.000 A 
ATOM     12  N   UNL     1       2.160   7.780  19.095  0.00  0.00    +0.000 N 
ATOM     13  H   UNL     1       2.676   7.572  18.249  0.00  0.00    +0.000 HD
ENDBRANCH   2   3
BRANCH   2  14
ATOM     14  C   UNL     1       3.512   5.315  19.040  0.00  0.00    +0.000 A 
ATOM     15  C   UNL     1       3.245   4.836  17.769  0.00  0.00    +0.000 A 
ATOM     16  C   UNL     1       4.478   4.655  17.086  0.00  0.00    +0.000 A 
ATOM     17  C   UNL     1       4.830   4.186  15.805  0.00  0.00    +0.000 A 
ATOM     18  C   UNL     1       6.185   4.088  15.479  0.00  0.00    +0.000 A 
ATOM     19  C   UNL     1       7.179   4.451  16.379  0.00  0.00    +0.000 A 
ATOM     20  C   UNL     1       6.850   4.938  17.648  0.00  0.00    +0.000 A 
ATOM     21  C   UNL     1       5.491   5.025  17.969  0.00  0.00    +0.000 A 
ATOM     22  N   UNL     1       4.883   5.445  19.128  0.00  0.00    +0.000 N 
ATOM     23  H   UNL     1       5.381   5.757  19.950  0.00  0.00    +0.000 HD
BRANCH  18  24
ATOM     24  O   UNL     1       6.582   3.617  14.261  0.00  0.00    +0.000 OA
ATOM     25  H   UNL     1       7.547   3.505  14.274  0.00  0.00    +0.000 HD
ENDBRANCH  18  24
ENDBRANCH   2  14
TORSDOF 3
ENDMDL
MODEL 3
REMARK VINA RESULT:      -7.7      4.877      6.651
REMARK  Name = 
REMARK  3 active torsions:
REMARK  status: ('A' for Active; 'I' for Inactive)
REMARK    1  A    between atoms: C_2  and  C_3
REMARK    2  A    between atoms: C_2  and  C_13
REMARK    3  A    between atoms: C_7  and  O_8
REMARK                            x       y       z     vdW  Elec       q    Type
REMARK                         _______ _______ _______ _____ _____    ______ ____
ROOT
ATOM      1  O   UNL     1       2.616   8.665  17.143  0.00  0.00    +0.000 OA
ATOM      2  C   UNL     1       2.305   8.108  18.191  0.00  0.00    +0.000 C 
ENDROOT
BRANCH   2   3
ATOM      3  C   UNL     1       1.532   8.778  19.217  0.00  0.00    +0.000 A 
ATOM      4  C   UNL     1       0.709   9.889  19.151  0.00  0.00    +0.000 A 
ATOM      5  C   UNL     1       0.173  10.136  20.446  0.00  0.00    +0.000 A 
ATOM      6  C   UNL     1      -0.698  11.099  20.995  0.00  0.00    +0.000 A 
ATOM      7 BR   UNL     1      -1.442  12.463  19.911  0.00  0.00    +0.000 Br
ATOM      8  C   UNL     1      -1.018  11.052  22.355  0.00  0.00    +0.000 A 
ATOM      9  C   UNL     1      -0.482  10.057  23.170  0.00  0.00    +0.000 A 
ATOM     10  C   UNL     1       0.376   9.081  22.649  0.00  0.00    +0.000 A 
ATOM     11  C   UNL     1       0.680   9.142  21.284  0.00  0.00    +0.000 A 
ATOM     12  N   UNL     1       1.457   8.311  20.510  0.00  0.00    +0.000 N 
ATOM     13  H   UNL     1       1.929   7.479  20.840  0.00  0.00    +0.000 HD
ENDBRANCH   2   3
BRANCH   2  14
ATOM     14  C   UNL     1       2.632   6.723  18.480  0.00  0.00    +0.000 A 
ATOM     15  C   UNL     1       3.772   6.215  19.079  0.00  0.00    +0.000 A 
ATOM     16  C   UNL     1       3.698   4.796  19.061  0.00  0.00    +0.000 A 
ATOM     17  C   UNL     1       4.552   3.764  19.498  0.00  0.00    +0.000 A 
ATOM     18  C   UNL     1       4.173   2.440  19.263  0.00  0.00    +0.000 A 
ATOM     19  C   UNL     1       2.979   2.125  18.626  0.00  0.00    +0.000 A 
ATOM     20  C   UNL     1       2.108   3.135  18.204  0.00  0.00    +0.000 A 
ATOM     21  C   UNL     1       2.499   4.459  18.435  0.00  0.00    +0.000 A 
ATOM     22  N   UNL     1       1.863   5.635  18.120  0.00  0.00    +0.000 N 
ATOM     23  H   UNL     1       0.975   5.690  17.642  0.00  0.00    +0.000 HD
BRANCH  18  24
ATOM     24  O   UNL     1       4.974   1.402  19.643  0.00  0.00    +0.000 OA
ATOM     25  H   UNL     1       5.026   0.769  18.908  0.00  0.00    +0.000 HD
ENDBRANCH  18  24
ENDBRANCH   2  14
TORSDOF 3
ENDMDL
MODEL 4
REMARK VINA RESULT:      -7.7      1.334      1.872
REMARK  Name = 
REMARK  3 active torsions:
REMARK  status: ('A' for Active; 'I' for Inactive)
REMARK    1  A    between atoms: C_2  and  C_3
REMARK    2  A    between atoms: C_2  and  C_13
REMARK    3  A    between atoms: C_7  and  O_8
REMARK                            x       y       z     vdW  Elec       q    Type
REMARK                         _______ _______ _______ _____ _____    ______ ____
ROOT
ATOM      1  O   UNL     1       7.825   4.784  18.467  0.00  0.00    +0.000 OA
ATOM      2  C   UNL     1       6.747   4.742  17.883  0.00  0.00    +0.000 C 
ENDROOT
BRANCH   2   3
ATOM      3  C   UNL     1       5.488   4.906  18.582  0.00  0.00    +0.000 A 
ATOM      4  C   UNL     1       4.775   4.031  19.383  0.00  0.00    +0.000 A 
ATOM      5  C   UNL     1       3.598   4.687  19.840  0.00  0.00    +0.000 A 
ATOM      6  C   UNL     1       2.508   4.322  20.657  0.00  0.00    +0.000 A 
ATOM      7 BR   UNL     1       2.414   2.596  21.432  0.00  0.00    +0.000 Br
ATOM      8  C   UNL     1       1.483   5.240  20.899  0.00  0.00    +0.000 A 
ATOM      9  C   UNL     1       1.533   6.515  20.339  0.00  0.00    +0.000 A 
ATOM     10  C   UNL     1       2.608   6.909  19.534  0.00  0.00    +0.000 A 
ATOM     11  C   UNL     1       3.627   5.977  19.307  0.00  0.00    +0.000 A 
ATOM     12  N   UNL     1       4.798   6.097  18.593  0.00  0.00    +0.000 N 
ATOM     13  H   UNL     1       5.109   6.936  18.121  0.00  0.00    +0.000 HD
ENDBRANCH   2   3
BRANCH   2  14
ATOM     14  C   UNL     1       6.629   4.578  16.446  0.00  0.00    +0.000 A 
ATOM     15  C   UNL     1       5.761   3.762  15.741  0.00  0.00    +0.000 A 
ATOM     16  C   UNL     1       6.077   3.854  14.358  0.00  0.00    +0.000 A 
ATOM     17  C   UNL     1       5.562   3.251  13.193  0.00  0.00    +0.000 A 
ATOM     18  C   UNL     1       6.170   3.540  11.968  0.00  0.00    +0.000 A 
ATOM     19  C   UNL     1       7.249   4.409  11.877  0.00  0.00    +0.000 A 
ATOM     20  C   UNL     1       7.761   5.033  13.020  0.00  0.00    +0.000 A 
ATOM     21  C   UNL     1       7.152   4.732  14.243  0.00  0.00    +0.000 A 
ATOM     22  N   UNL     1       7.448   5.175  15.510  0.00  0.00    +0.000 N 
ATOM     23  H   UNL     1       8.201   5.815  15.726  0.00  0.00    +0.000 HD
BRANCH  18  24
ATOM     24  O   UNL     1       5.727   2.965  10.812  0.00  0.00    +0.000 OA
ATOM     25  H   UNL     1       6.401   2.336  10.504  0.00  0.00    +0.000 HD
ENDBRANCH  18  24
ENDBRANCH   2  14
TORSDOF 3
ENDMDL
MODEL 5
REMARK VINA RESULT:      -7.7      3.431      4.667
REMARK  Name = 
REMARK  3 active torsions:
REMARK  status: ('A' for Active; 'I' for Inactive)
REMARK    1  A    between atoms: C_2  and  C_3
REMARK    2  A    between atoms: C_2  and  C_13
REMARK    3  A    between atoms: C_7  and  O_8
REMARK                            x       y       z     vdW  Elec       q    Type
REMARK                         _______ _______ _______ _____ _____    ______ ____
ROOT
ATOM      1  O   UNL     1       2.963   4.355  20.367  0.00  0.00    +0.000 OA
ATOM      2  C   UNL     1       3.153   5.234  19.534  0.00  0.00    +0.000 C 
ENDROOT
BRANCH   2   3
ATOM      3  C   UNL     1       2.498   6.524  19.614  0.00  0.00    +0.000 A 
ATOM      4  C   UNL     1       1.862   7.154  20.669  0.00  0.00    +0.000 A 
ATOM      5  C   UNL     1       1.391   8.422  20.228  0.00  0.00    +0.000 A 
ATOM      6  C   UNL     1       0.684   9.485  20.827  0.00  0.00    +0.000 A 
ATOM      7 BR   UNL     1       0.158   9.396  22.644  0.00  0.00    +0.000 Br
ATOM      8  C   UNL     1       0.366  10.618  20.074  0.00  0.00    +0.000 A 
ATOM      9  C   UNL     1       0.744  10.704  18.736  0.00  0.00    +0.000 A 
ATOM     10  C   UNL     1       1.455   9.669  18.118  0.00  0.00    +0.000 A 
ATOM     11  C   UNL     1       1.770   8.544  18.890  0.00  0.00    +0.000 A 
ATOM     12  N   UNL     1       2.475   7.410  18.559  0.00  0.00    +0.000 N 
ATOM     13  H   UNL     1       2.905   7.231  17.661  0.00  0.00    +0.000 HD
ENDBRANCH   2   3
BRANCH   2  14
ATOM     14  C   UNL     1       4.083   5.091  18.428  0.00  0.00    +0.000 A 
ATOM     15  C   UNL     1       5.257   5.786  18.196  0.00  0.00    +0.000 A 
ATOM     16  C   UNL     1       5.782   5.380  16.939  0.00  0.00    +0.000 A 
ATOM     17  C   UNL     1       6.914   5.747  16.184  0.00  0.00    +0.000 A 
ATOM     18  C   UNL     1       7.094   5.166  14.926  0.00  0.00    +0.000 A 
ATOM     19  C   UNL     1       6.196   4.236  14.417  0.00  0.00    +0.000 A 
ATOM     20  C   UNL     1       5.078   3.844  15.160  0.00  0.00    +0.000 A 
ATOM     21  C   UNL     1       4.900   4.437  16.415  0.00  0.00    +0.000 A 
ATOM     22  N   UNL     1       3.902   4.259  17.342  0.00  0.00    +0.000 N 
ATOM     23  H   UNL     1       3.114   3.639  17.216  0.00  0.00    +0.000 HD
BRANCH  18  24
ATOM     24  O   UNL     1       8.160   5.504  14.143  0.00  0.00    +0.000 OA
ATOM     25  H   UNL     1       7.828   5.959  13.352  0.00  0.00    +0.000 HD
ENDBRANCH  18  24
ENDBRANCH   2  14
TORSDOF 3
ENDMDL
MODEL 6
REMARK VINA RESULT:      -7.6      0.942      1.453
REMARK  Name = 
REMARK  3 active torsions:
REMARK  status: ('A' for Active; 'I' for Inactive)
REMARK    1  A    between atoms: C_2  and  C_3
REMARK    2  A    between atoms: C_2  and  C_13
REMARK    3  A    between atoms: C_7  and  O_8
REMARK                            x       y       z     vdW  Elec       q    Type
REMARK                         _______ _______ _______ _____ _____    ______ ____
ROOT
ATOM      1  O   UNL     1       7.616   4.956  19.042  0.00  0.00    +0.000 OA
ATOM      2  C   UNL     1       6.653   4.682  18.334  0.00  0.00    +0.000 C 
ENDROOT
BRANCH   2   3
ATOM      3  C   UNL     1       5.319   4.528  18.878  0.00  0.00    +0.000 A 
ATOM      4  C   UNL     1       4.405   5.469  19.319  0.00  0.00    +0.000 A 
ATOM      5  C   UNL     1       3.229   4.796  19.752  0.00  0.00    +0.000 A 
ATOM      6  C   UNL     1       1.992   5.202  20.294  0.00  0.00    +0.000 A 
ATOM      7 BR   UNL     1       1.613   7.036  20.576  0.00  0.00    +0.000 Br
ATOM      8  C   UNL     1       1.032   4.243  20.627  0.00  0.00    +0.000 A 
ATOM      9  C   UNL     1       1.289   2.889  20.426  0.00  0.00    +0.000 A 
ATOM     10  C   UNL     1       2.504   2.457  19.880  0.00  0.00    +0.000 A 
ATOM     11  C   UNL     1       3.451   3.433  19.548  0.00  0.00    +0.000 A 
ATOM     12  N   UNL     1       4.697   3.303  18.977  0.00  0.00    +0.000 N 
ATOM     13  H   UNL     1       5.117   2.430  18.685  0.00  0.00    +0.000 HD
ENDBRANCH   2   3
BRANCH   2  14
ATOM     14  C   UNL     1       6.743   4.541  16.892  0.00  0.00    +0.000 A 
ATOM     15  C   UNL     1       7.513   5.270  16.002  0.00  0.00    +0.000 A 
ATOM     16  C   UNL     1       7.200   4.848  14.682  0.00  0.00    +0.000 A 
ATOM     17  C   UNL     1       7.639   5.234  13.399  0.00  0.00    +0.000 A 
ATOM     18  C   UNL     1       7.059   4.624  12.284  0.00  0.00    +0.000 A 
ATOM     19  C   UNL     1       6.078   3.648  12.415  0.00  0.00    +0.000 A 
ATOM     20  C   UNL     1       5.645   3.238  13.679  0.00  0.00    +0.000 A 
ATOM     21  C   UNL     1       6.225   3.859  14.791  0.00  0.00    +0.000 A 
ATOM     22  N   UNL     1       5.987   3.673  16.131  0.00  0.00    +0.000 N 
ATOM     23  H   UNL     1       5.310   3.021  16.502  0.00  0.00    +0.000 HD
BRANCH  18  24
ATOM     24  O   UNL     1       7.429   4.977  11.018  0.00  0.00    +0.000 OA
ATOM     25  H   UNL     1       6.629   5.040  10.471  0.00  0.00    +0.000 HD
ENDBRANCH  18  24
ENDBRANCH   2  14
TORSDOF 3
ENDMDL
MODEL 7
REMARK VINA RESULT:      -7.5      7.027      9.135
REMARK  Name = 
REMARK  3 active torsions:
REMARK  status: ('A' for Active; 'I' for Inactive)
REMARK    1  A    between atoms: C_2  and  C_3
REMARK    2  A    between atoms: C_2  and  C_13
REMARK    3  A    between atoms: C_7  and  O_8
REMARK                            x       y       z     vdW  Elec       q    Type
REMARK                         _______ _______ _______ _____ _____    ______ ____
ROOT
ATOM      1  O   UNL     1       1.222  11.115  20.575  0.00  0.00    +0.000 OA
ATOM      2  C   UNL     1       0.828  10.360  19.692  0.00  0.00    +0.000 C 
ENDROOT
BRANCH   2   3
ATOM      3  C   UNL     1       1.515   9.125  19.375  0.00  0.00    +0.000 A 
ATOM      4  C   UNL     1       1.522   7.900  20.020  0.00  0.00    +0.000 A 
ATOM      5  C   UNL     1       2.356   7.006  19.292  0.00  0.00    +0.000 A 
ATOM      6  C   UNL     1       2.751   5.661  19.450  0.00  0.00    +0.000 A 
ATOM      7 BR   UNL     1       2.119   4.631  20.908  0.00  0.00    +0.000 Br
ATOM      8  C   UNL     1       3.619   5.079  18.523  0.00  0.00    +0.000 A 
ATOM      9  C   UNL     1       4.095   5.819  17.443  0.00  0.00    +0.000 A 
ATOM     10  C   UNL     1       3.711   7.152  17.255  0.00  0.00    +0.000 A 
ATOM     11  C   UNL     1       2.837   7.716  18.191  0.00  0.00    +0.000 A 
ATOM     12  N   UNL     1       2.279   8.973  18.239  0.00  0.00    +0.000 N 
ATOM     13  H   UNL     1       2.419   9.700  17.550  0.00  0.00    +0.000 HD
ENDBRANCH   2   3
BRANCH   2  14
ATOM     14  C   UNL     1      -0.380  10.600  18.925  0.00  0.00    +0.000 A 
ATOM     15  C   UNL     1      -1.541  11.241  19.324  0.00  0.00    +0.000 A 
ATOM     16  C   UNL     1      -2.493  11.149  18.273  0.00  0.00    +0.000 A 
ATOM     17  C   UNL     1      -3.824  11.585  18.115  0.00  0.00    +0.000 A 
ATOM     18  C   UNL     1      -4.495  11.262  16.932  0.00  0.00    +0.000 A 
ATOM     19  C   UNL     1      -3.879  10.540  15.918  0.00  0.00    +0.000 A 
ATOM     20  C   UNL     1      -2.553  10.116  16.048  0.00  0.00    +0.000 A 
ATOM     21  C   UNL     1      -1.890  10.436  17.239  0.00  0.00    +0.000 A 
ATOM     22  N   UNL     1      -0.611  10.141  17.644  0.00  0.00    +0.000 N 
ATOM     23  H   UNL     1       0.052   9.613  17.093  0.00  0.00    +0.000 HD
BRANCH  18  24
ATOM     24  O   UNL     1      -5.793  11.638  16.737  0.00  0.00    +0.000 OA
ATOM     25  H   UNL     1      -6.345  10.840  16.725  0.00  0.00    +0.000 HD
ENDBRANCH  18  24
ENDBRANCH   2  14
TORSDOF 3
ENDMDL
MODEL 8
REMARK VINA RESULT:      -7.5      3.470      4.720
REMARK  Name = 
REMARK  3 active torsions:
REMARK  status: ('A' for Active; 'I' for Inactive)
REMARK    1  A    between atoms: C_2  and  C_3
REMARK    2  A    between atoms: C_2  and  C_13
REMARK    3  A    between atoms: C_7  and  O_8
REMARK                            x       y       z     vdW  Elec       q    Type
REMARK                         _______ _______ _______ _____ _____    ______ ____
ROOT
ATOM      1  O   UNL     1       2.579   4.244  20.844  0.00  0.00    +0.000 OA
ATOM      2  C   UNL     1       2.792   5.142  20.037  0.00  0.00    +0.000 C 
ENDROOT
BRANCH   2   3
ATOM      3  C   UNL     1       2.201   6.457  20.178  0.00  0.00    +0.000 A 
ATOM      4  C   UNL     1       2.245   7.564  19.348  0.00  0.00    +0.000 A 
ATOM      5  C   UNL     1       1.486   8.611  19.943  0.00  0.00    +0.000 A 
ATOM      6  C   UNL     1       1.174   9.939  19.588  0.00  0.00    +0.000 A 
ATOM      7 BR   UNL     1       1.813  10.685  17.969  0.00  0.00    +0.000 Br
ATOM      8  C   UNL     1       0.384  10.718  20.438  0.00  0.00    +0.000 A 
ATOM      9  C   UNL     1      -0.097  10.188  21.634  0.00  0.00    +0.000 A 
ATOM     10  C   UNL     1       0.188   8.869  22.007  0.00  0.00    +0.000 A 
ATOM     11  C   UNL     1       0.976   8.104  21.139  0.00  0.00    +0.000 A 
ATOM     12  N   UNL     1       1.382   6.792  21.233  0.00  0.00    +0.000 N 
ATOM     13  H   UNL     1       1.135   6.157  21.981  0.00  0.00    +0.000 HD
ENDBRANCH   2   3
BRANCH   2  14
ATOM     14  C   UNL     1       3.689   4.995  18.905  0.00  0.00    +0.000 A 
ATOM     15  C   UNL     1       3.399   4.540  17.630  0.00  0.00    +0.000 A 
ATOM     16  C   UNL     1       4.609   4.470  16.888  0.00  0.00    +0.000 A 
ATOM     17  C   UNL     1       4.933   4.069  15.577  0.00  0.00    +0.000 A 
ATOM     18  C   UNL     1       6.275   4.079  15.189  0.00  0.00    +0.000 A 
ATOM     19  C   UNL     1       7.282   4.483  16.057  0.00  0.00    +0.000 A 
ATOM     20  C   UNL     1       6.978   4.903  17.355  0.00  0.00    +0.000 A 
ATOM     21  C   UNL     1       5.632   4.883  17.739  0.00  0.00    +0.000 A 
ATOM     22  N   UNL     1       5.050   5.220  18.937  0.00  0.00    +0.000 N 
ATOM     23  H   UNL     1       5.563   5.540  19.747  0.00  0.00    +0.000 HD
BRANCH  18  24
ATOM     24  O   UNL     1       6.648   3.678  13.938  0.00  0.00    +0.000 OA
ATOM     25  H   UNL     1       6.556   4.432  13.333  0.00  0.00    +0.000 HD
ENDBRANCH  18  24
ENDBRANCH   2  14
TORSDOF 3
ENDMDL
MODEL 9
REMARK VINA RESULT:      -7.5      4.090      5.725
REMARK  Name = 
REMARK  3 active torsions:
REMARK  status: ('A' for Active; 'I' for Inactive)
REMARK    1  A    between atoms: C_2  and  C_3
REMARK    2  A    between atoms: C_2  and  C_13
REMARK    3  A    between atoms: C_7  and  O_8
REMARK                            x       y       z     vdW  Elec       q    Type
REMARK                         _______ _______ _______ _____ _____    ______ ____
ROOT
ATOM      1  O   UNL     1       1.470   4.892  20.618  0.00  0.00    +0.000 OA
ATOM      2  C   UNL     1       1.998   5.907  20.177  0.00  0.00    +0.000 C 
ENDROOT
BRANCH   2   3
ATOM      3  C   UNL     1       1.506   7.231  20.499  0.00  0.00    +0.000 A 
ATOM      4  C   UNL     1       1.630   8.433  19.825  0.00  0.00    +0.000 A 
ATOM      5  C   UNL     1       0.952   9.443  20.563  0.00  0.00    +0.000 A 
ATOM      6  C   UNL     1       0.738  10.827  20.393  0.00  0.00    +0.000 A 
ATOM      7 BR   UNL     1       1.427  11.735  18.881  0.00  0.00    +0.000 Br
ATOM      8  C   UNL     1       0.009  11.539  21.349  0.00  0.00    +0.000 A 
ATOM      9  C   UNL     1      -0.508  10.890  22.469  0.00  0.00    +0.000 A 
ATOM     10  C   UNL     1      -0.320   9.516  22.658  0.00  0.00    +0.000 A 
ATOM     11  C   UNL     1       0.408   8.818  21.687  0.00  0.00    +0.000 A 
ATOM     12  N   UNL     1       0.716   7.480  21.599  0.00  0.00    +0.000 N 
ATOM     13  H   UNL     1       0.424   6.770  22.258  0.00  0.00    +0.000 HD
ENDBRANCH   2   3
BRANCH   2  14
ATOM     14  C   UNL     1       3.186   5.885  19.342  0.00  0.00    +0.000 A 
ATOM     15  C   UNL     1       3.279   6.073  17.973  0.00  0.00    +0.000 A 
ATOM     16  C   UNL     1       4.627   5.861  17.578  0.00  0.00    +0.000 A 
ATOM     17  C   UNL     1       5.304   5.891  16.342  0.00  0.00    +0.000 A 
ATOM     18  C   UNL     1       6.663   5.568  16.318  0.00  0.00    +0.000 A 
ATOM     19  C   UNL     1       7.354   5.234  17.476  0.00  0.00    +0.000 A 
ATOM     20  C   UNL     1       6.705   5.218  18.714  0.00  0.00    +0.000 A 
ATOM     21  C   UNL     1       5.342   5.535  18.729  0.00  0.00    +0.000 A 
ATOM     22  N   UNL     1       4.459   5.583  19.780  0.00  0.00    +0.000 N 
ATOM     23  H   UNL     1       4.704   5.374  20.738  0.00  0.00    +0.000 HD
BRANCH  18  24
ATOM     24  O   UNL     1       7.361   5.558  15.144  0.00  0.00    +0.000 OA
ATOM     25  H   UNL     1       7.929   6.345  15.118  0.00  0.00    +0.000 HD
ENDBRANCH  18  24
ENDBRANCH   2  14
TORSDOF 3
ENDMDL
