MODEL 1
REMARK VINA RESULT:      -8.1      0.000      0.000
REMARK  Name = 
REMARK  7 active torsions:
REMARK  status: ('A' for Active; 'I' for Inactive)
REMARK    1  A    between atoms: C_2  and  C_3
REMARK    2  A    between atoms: C_3  and  C_4
REMARK    3  A    between atoms: C_4  and  C_5
REMARK    4  A    between atoms: C_13  and  O_14
REMARK    5  A    between atoms: N_18  and  C_19
REMARK    6  A    between atoms: C_20  and  C_21
REMARK    7  A    between atoms: C_21  and  O_23
REMARK                            x       y       z     vdW  Elec       q    Type
REMARK                         _______ _______ _______ _____ _____    ______ ____
ROOT
ATOM      1  C   UNL     1       2.297   3.986  21.481  0.00  0.00    +0.000 C 
ENDROOT
BRANCH   1   3
ATOM      2  O   UNL     1       0.695   4.743  19.895  0.00  0.00    +0.000 OA
ATOM      3  C   UNL     1       1.695   5.017  20.543  0.00  0.00    +0.000 C 
ATOM      4  N   UNL     1       2.415   6.213  20.488  0.00  0.00    +0.000 N 
ATOM      5  H   UNL     1       3.207   6.264  21.129  0.00  0.00    +0.000 HD
BRANCH   4   6
ATOM      6  C   UNL     1       2.114   7.356  19.740  0.00  0.00    +0.000 C 
ATOM      7  C   UNL     1       1.414   8.399  20.254  0.00  0.00    +0.000 C 
ATOM      8  C   UNL     1       1.004   9.605  19.429  0.00  0.00    +0.000 C 
ATOM      9  C   UNL     1       1.099   9.400  17.923  0.00  0.00    +0.000 C 
ATOM     10  C   UNL     1       2.408   8.726  17.569  0.00  0.00    +0.000 C 
ATOM     11  C   UNL     1       2.541   7.377  18.277  0.00  0.00    +0.000 C 
BRANCH   7  12
ATOM     12  C   UNL     1       0.906   8.504  21.650  0.00  0.00    +0.000 C 
ATOM     13  O   UNL     1      -0.279   8.464  21.944  0.00  0.00    +0.000 OA
BRANCH  12  14
ATOM     14  O   UNL     1       1.865   8.695  22.568  0.00  0.00    +0.000 OA
ATOM     15  H   UNL     1       2.166   9.622  22.633  0.00  0.00    +0.000 HD
ENDBRANCH  12  14
ENDBRANCH   7  12
ENDBRANCH   4   6
ENDBRANCH   1   3
BRANCH   1  16
ATOM     16  C   UNL     1       2.989   2.864  20.713  0.00  0.00    +0.000 C 
BRANCH  16  17
ATOM     17  C   UNL     1       3.971   3.357  19.706  0.00  0.00    +0.000 A 
ATOM     18  C   UNL     1       4.025   3.088  18.344  0.00  0.00    +0.000 A 
ATOM     19  N   UNL     1       5.098   3.801  17.907  0.00  0.00    +0.000 N 
ATOM     20  C   UNL     1       5.665   4.408  18.984  0.00  0.00    +0.000 A 
ATOM     21  N   UNL     1       4.985   4.226  20.084  0.00  0.00    +0.000 NA
ATOM     22  S   UNL     1       7.025   5.399  18.560  0.00  0.00    +0.000 S 
ATOM     23  C   UNL     1       6.730   4.986  16.837  0.00  0.00    +0.000 A 
ATOM     24  C   UNL     1       7.407   5.467  15.730  0.00  0.00    +0.000 A 
ATOM     25  C   UNL     1       6.989   5.016  14.476  0.00  0.00    +0.000 A 
ATOM     26  C   UNL     1       5.923   4.116  14.325  0.00  0.00    +0.000 A 
ATOM     27  C   UNL     1       5.233   3.639  15.440  0.00  0.00    +0.000 A 
ATOM     28  C   UNL     1       5.659   4.091  16.672  0.00  0.00    +0.000 A 
BRANCH  25  29
ATOM     29  O   UNL     1       7.607   5.443  13.334  0.00  0.00    +0.000 OA
ATOM     30  H   UNL     1       8.439   4.953  13.221  0.00  0.00    +0.000 HD
ENDBRANCH  25  29
ENDBRANCH  16  17
ENDBRANCH   1  16
TORSDOF 7
ENDMDL
MODEL 2
REMARK VINA RESULT:      -8.0      7.288      9.612
REMARK  Name = 
REMARK  7 active torsions:
REMARK  status: ('A' for Active; 'I' for Inactive)
REMARK    1  A    between atoms: C_2  and  C_3
REMARK    2  A    between atoms: C_3  and  C_4
REMARK    3  A    between atoms: C_4  and  C_5
REMARK    4  A    between atoms: C_13  and  O_14
REMARK    5  A    between atoms: N_18  and  C_19
REMARK    6  A    between atoms: C_20  and  C_21
REMARK    7  A    between atoms: C_21  and  O_23
REMARK                            x       y       z     vdW  Elec       q    Type
REMARK                         _______ _______ _______ _____ _____    ______ ____
ROOT
ATOM      1  C   UNL     1       8.201   9.012  17.434  0.00  0.00    +0.000 C 
ENDROOT
BRANCH   1   3
ATOM      2  O   UNL     1       8.264   7.037  18.755  0.00  0.00    +0.000 OA
ATOM      3  C   UNL     1       7.685   7.653  17.872  0.00  0.00    +0.000 C 
ATOM      4  N   UNL     1       6.574   7.214  17.149  0.00  0.00    +0.000 N 
ATOM      5  H   UNL     1       6.214   7.886  16.470  0.00  0.00    +0.000 HD
BRANCH   4   6
ATOM      6  C   UNL     1       5.859   6.024  17.320  0.00  0.00    +0.000 C 
ATOM      7  C   UNL     1       5.877   5.025  16.402  0.00  0.00    +0.000 C 
ATOM      8  C   UNL     1       5.037   3.768  16.533  0.00  0.00    +0.000 C 
ATOM      9  C   UNL     1       3.910   3.867  17.551  0.00  0.00    +0.000 C 
ATOM     10  C   UNL     1       4.414   4.504  18.829  0.00  0.00    +0.000 C 
ATOM     11  C   UNL     1       4.984   5.898  18.561  0.00  0.00    +0.000 C 
BRANCH   7  12
ATOM     12  C   UNL     1       6.657   5.022  15.133  0.00  0.00    +0.000 C 
ATOM     13  O   UNL     1       7.760   5.535  15.016  0.00  0.00    +0.000 OA
BRANCH  12  14
ATOM     14  O   UNL     1       6.022   4.446  14.102  0.00  0.00    +0.000 OA
ATOM     15  H   UNL     1       6.592   3.856  13.571  0.00  0.00    +0.000 HD
ENDBRANCH  12  14
ENDBRANCH   7  12
ENDBRANCH   4   6
ENDBRANCH   1   3
BRANCH   1  16
ATOM     16  C   UNL     1       8.824   9.779  18.596  0.00  0.00    +0.000 C 
BRANCH  16  17
ATOM     17  C   UNL     1       9.409  11.090  18.192  0.00  0.00    +0.000 A 
ATOM     18  C   UNL     1       8.804  12.340  18.175  0.00  0.00    +0.000 A 
ATOM     19  N   UNL     1       9.785  13.178  17.745  0.00  0.00    +0.000 N 
ATOM     20  C   UNL     1      10.888  12.429  17.475  0.00  0.00    +0.000 A 
ATOM     21  N   UNL     1      10.734  11.171  17.791  0.00  0.00    +0.000 NA
ATOM     22  S   UNL     1      12.242  13.385  16.961  0.00  0.00    +0.000 S 
ATOM     23  C   UNL     1      11.237  14.854  17.198  0.00  0.00    +0.000 A 
ATOM     24  C   UNL     1      11.629  16.173  17.052  0.00  0.00    +0.000 A 
ATOM     25  C   UNL     1      10.673  17.159  17.308  0.00  0.00    +0.000 A 
ATOM     26  C   UNL     1       9.365  16.843  17.705  0.00  0.00    +0.000 A 
ATOM     27  C   UNL     1       8.971  15.514  17.863  0.00  0.00    +0.000 A 
ATOM     28  C   UNL     1       9.925  14.550  17.604  0.00  0.00    +0.000 A 
BRANCH  25  29
ATOM     29  O   UNL     1      10.982  18.484  17.185  0.00  0.00    +0.000 OA
ATOM     30  H   UNL     1      11.693  18.585  16.529  0.00  0.00    +0.000 HD
ENDBRANCH  25  29
ENDBRANCH  16  17
ENDBRANCH   1  16
TORSDOF 7
ENDMDL
MODEL 3
REMARK VINA RESULT:      -7.6      5.544      7.300
REMARK  Name = 
REMARK  7 active torsions:
REMARK  status: ('A' for Active; 'I' for Inactive)
REMARK    1  A    between atoms: C_2  and  C_3
REMARK    2  A    between atoms: C_3  and  C_4
REMARK    3  A    between atoms: C_4  and  C_5
REMARK    4  A    between atoms: C_13  and  O_14
REMARK    5  A    between atoms: N_18  and  C_19
REMARK    6  A    between atoms: C_20  and  C_21
REMARK    7  A    between atoms: C_21  and  O_23
REMARK                            x       y       z     vdW  Elec       q    Type
REMARK                         _______ _______ _______ _____ _____    ______ ____
ROOT
ATOM      1  C   UNL     1       8.208   7.903  18.520  0.00  0.00    +0.000 C 
ENDROOT
BRANCH   1   3
ATOM      2  O   UNL     1       7.947  10.057  17.548  0.00  0.00    +0.000 OA
ATOM      3  C   UNL     1       8.535   9.379  18.378  0.00  0.00    +0.000 C 
ATOM      4  N   UNL     1       9.559   9.811  19.224  0.00  0.00    +0.000 N 
ATOM      5  H   UNL     1       9.905   9.102  19.871  0.00  0.00    +0.000 HD
BRANCH   4   6
ATOM      6  C   UNL     1      10.076  11.105  19.346  0.00  0.00    +0.000 C 
ATOM      7  C   UNL     1       9.758  11.921  20.383  0.00  0.00    +0.000 C 
ATOM      8  C   UNL     1      10.241  13.357  20.482  0.00  0.00    +0.000 C 
ATOM      9  C   UNL     1      10.783  13.929  19.180  0.00  0.00    +0.000 C 
ATOM     10  C   UNL     1      11.703  12.930  18.512  0.00  0.00    +0.000 C 
ATOM     11  C   UNL     1      10.974  11.616  18.226  0.00  0.00    +0.000 C 
BRANCH   7  12
ATOM     12  C   UNL     1       8.871  11.570  21.528  0.00  0.00    +0.000 C 
ATOM     13  O   UNL     1       8.126  12.368  22.075  0.00  0.00    +0.000 OA
BRANCH  12  14
ATOM     14  O   UNL     1       8.995  10.302  21.946  0.00  0.00    +0.000 OA
ATOM     15  H   UNL     1       9.919  10.035  22.119  0.00  0.00    +0.000 HD
ENDBRANCH  12  14
ENDBRANCH   7  12
ENDBRANCH   4   6
ENDBRANCH   1   3
BRANCH   1  16
ATOM     16  C   UNL     1       7.656   7.322  17.223  0.00  0.00    +0.000 C 
BRANCH  16  17
ATOM     17  C   UNL     1       6.336   6.650  17.392  0.00  0.00    +0.000 A 
ATOM     18  C   UNL     1       6.036   5.296  17.307  0.00  0.00    +0.000 A 
ATOM     19  N   UNL     1       4.700   5.235  17.562  0.00  0.00    +0.000 N 
ATOM     20  C   UNL     1       4.248   6.506  17.731  0.00  0.00    +0.000 A 
ATOM     21  N   UNL     1       5.207   7.393  17.704  0.00  0.00    +0.000 NA
ATOM     22  S   UNL     1       2.557   6.573  18.116  0.00  0.00    +0.000 S 
ATOM     23  C   UNL     1       2.528   4.778  18.093  0.00  0.00    +0.000 A 
ATOM     24  C   UNL     1       1.459   3.951  18.392  0.00  0.00    +0.000 A 
ATOM     25  C   UNL     1       1.675   2.572  18.324  0.00  0.00    +0.000 A 
ATOM     26  C   UNL     1       2.921   2.030  17.975  0.00  0.00    +0.000 A 
ATOM     27  C   UNL     1       4.002   2.862  17.685  0.00  0.00    +0.000 A 
ATOM     28  C   UNL     1       3.773   4.222  17.753  0.00  0.00    +0.000 A 
BRANCH  25  29
ATOM     29  O   UNL     1       0.670   1.690  18.603  0.00  0.00    +0.000 OA
ATOM     30  H   UNL     1      -0.130   2.187  18.847  0.00  0.00    +0.000 HD
ENDBRANCH  25  29
ENDBRANCH  16  17
ENDBRANCH   1  16
TORSDOF 7
ENDMDL
MODEL 4
REMARK VINA RESULT:      -7.5      6.172      8.128
REMARK  Name = 
REMARK  7 active torsions:
REMARK  status: ('A' for Active; 'I' for Inactive)
REMARK    1  A    between atoms: C_2  and  C_3
REMARK    2  A    between atoms: C_3  and  C_4
REMARK    3  A    between atoms: C_4  and  C_5
REMARK    4  A    between atoms: C_13  and  O_14
REMARK    5  A    between atoms: N_18  and  C_19
REMARK    6  A    between atoms: C_20  and  C_21
REMARK    7  A    between atoms: C_21  and  O_23
REMARK                            x       y       z     vdW  Elec       q    Type
REMARK                         _______ _______ _______ _____ _____    ______ ____
ROOT
ATOM      1  C   UNL     1       8.363   9.324  17.794  0.00  0.00    +0.000 C 
ENDROOT
BRANCH   1   3
ATOM      2  O   UNL     1       9.447  10.342  19.649  0.00  0.00    +0.000 OA
ATOM      3  C   UNL     1       8.957  10.505  18.541  0.00  0.00    +0.000 C 
ATOM      4  N   UNL     1       8.831  11.719  17.863  0.00  0.00    +0.000 N 
ATOM      5  H   UNL     1       8.420  11.647  16.931  0.00  0.00    +0.000 HD
BRANCH   4   6
ATOM      6  C   UNL     1       9.289  12.976  18.271  0.00  0.00    +0.000 C 
ATOM      7  C   UNL     1      10.564  13.391  18.060  0.00  0.00    +0.000 C 
ATOM      8  C   UNL     1      11.097  14.715  18.576  0.00  0.00    +0.000 C 
ATOM      9  C   UNL     1      10.236  15.366  19.650  0.00  0.00    +0.000 C 
ATOM     10  C   UNL     1       8.775  15.310  19.253  0.00  0.00    +0.000 C 
ATOM     11  C   UNL     1       8.318  13.867  19.038  0.00  0.00    +0.000 C 
BRANCH   7  12
ATOM     12  C   UNL     1      11.626  12.619  17.358  0.00  0.00    +0.000 C 
ATOM     13  O   UNL     1      12.145  11.612  17.815  0.00  0.00    +0.000 OA
BRANCH  12  14
ATOM     14  O   UNL     1      12.006  13.152  16.187  0.00  0.00    +0.000 OA
ATOM     15  H   UNL     1      12.204  14.108  16.238  0.00  0.00    +0.000 HD
ENDBRANCH  12  14
ENDBRANCH   7  12
ENDBRANCH   4   6
ENDBRANCH   1   3
BRANCH   1  16
ATOM     16  C   UNL     1       8.499   8.030  18.589  0.00  0.00    +0.000 C 
BRANCH  16  17
ATOM     17  C   UNL     1       7.527   6.978  18.174  0.00  0.00    +0.000 A 
ATOM     18  C   UNL     1       6.968   5.964  18.942  0.00  0.00    +0.000 A 
ATOM     19  N   UNL     1       6.143   5.310  18.080  0.00  0.00    +0.000 N 
ATOM     20  C   UNL     1       6.268   5.893  16.857  0.00  0.00    +0.000 A 
ATOM     21  N   UNL     1       7.041   6.946  16.876  0.00  0.00    +0.000 NA
ATOM     22  S   UNL     1       5.226   5.186  15.664  0.00  0.00    +0.000 S 
ATOM     23  C   UNL     1       4.575   4.103  16.941  0.00  0.00    +0.000 A 
ATOM     24  C   UNL     1       3.553   3.178  16.818  0.00  0.00    +0.000 A 
ATOM     25  C   UNL     1       3.201   2.455  17.960  0.00  0.00    +0.000 A 
ATOM     26  C   UNL     1       3.842   2.650  19.193  0.00  0.00    +0.000 A 
ATOM     27  C   UNL     1       4.865   3.590  19.321  0.00  0.00    +0.000 A 
ATOM     28  C   UNL     1       5.205   4.295  18.183  0.00  0.00    +0.000 A 
BRANCH  25  29
ATOM     29  O   UNL     1       2.203   1.523  17.920  0.00  0.00    +0.000 OA
ATOM     30  H   UNL     1       2.100   1.208  17.006  0.00  0.00    +0.000 HD
ENDBRANCH  25  29
ENDBRANCH  16  17
ENDBRANCH   1  16
TORSDOF 7
ENDMDL
MODEL 5
REMARK VINA RESULT:      -7.5      1.452      2.178
REMARK  Name = 
REMARK  7 active torsions:
REMARK  status: ('A' for Active; 'I' for Inactive)
REMARK    1  A    between atoms: C_2  and  C_3
REMARK    2  A    between atoms: C_3  and  C_4
REMARK    3  A    between atoms: C_4  and  C_5
REMARK    4  A    between atoms: C_13  and  O_14
REMARK    5  A    between atoms: N_18  and  C_19
REMARK    6  A    between atoms: C_20  and  C_21
REMARK    7  A    between atoms: C_21  and  O_23
REMARK                            x       y       z     vdW  Elec       q    Type
REMARK                         _______ _______ _______ _____ _____    ______ ____
ROOT
ATOM      1  C   UNL     1       2.728   4.151  21.072  0.00  0.00    +0.000 C 
ENDROOT
BRANCH   1   3
ATOM      2  O   UNL     1       0.577   4.921  20.413  0.00  0.00    +0.000 OA
ATOM      3  C   UNL     1       1.722   5.230  20.711  0.00  0.00    +0.000 C 
ATOM      4  N   UNL     1       2.256   6.520  20.715  0.00  0.00    +0.000 N 
ATOM      5  H   UNL     1       3.228   6.578  21.023  0.00  0.00    +0.000 HD
BRANCH   4   6
ATOM      6  C   UNL     1       1.591   7.720  20.446  0.00  0.00    +0.000 C 
ATOM      7  C   UNL     1       1.719   8.375  19.264  0.00  0.00    +0.000 C 
ATOM      8  C   UNL     1       1.074   9.722  18.992  0.00  0.00    +0.000 C 
ATOM      9  C   UNL     1       0.596  10.454  20.238  0.00  0.00    +0.000 C 
ATOM     10  C   UNL     1      -0.142   9.501  21.155  0.00  0.00    +0.000 C 
ATOM     11  C   UNL     1       0.751   8.328  21.563  0.00  0.00    +0.000 C 
BRANCH   7  12
ATOM     12  C   UNL     1       2.527   7.919  18.099  0.00  0.00    +0.000 C 
ATOM     13  O   UNL     1       3.086   6.834  18.047  0.00  0.00    +0.000 OA
BRANCH  12  14
ATOM     14  O   UNL     1       2.633   8.828  17.118  0.00  0.00    +0.000 OA
ATOM     15  H   UNL     1       2.194   8.559  16.287  0.00  0.00    +0.000 HD
ENDBRANCH  12  14
ENDBRANCH   7  12
ENDBRANCH   4   6
ENDBRANCH   1   3
BRANCH   1  16
ATOM     16  C   UNL     1       2.884   3.130  19.950  0.00  0.00    +0.000 C 
BRANCH  16  17
ATOM     17  C   UNL     1       3.925   3.506  18.950  0.00  0.00    +0.000 A 
ATOM     18  C   UNL     1       3.953   3.242  17.587  0.00  0.00    +0.000 A 
ATOM     19  N   UNL     1       5.107   3.822  17.159  0.00  0.00    +0.000 N 
ATOM     20  C   UNL     1       5.739   4.348  18.244  0.00  0.00    +0.000 A 
ATOM     21  N   UNL     1       5.035   4.242  19.339  0.00  0.00    +0.000 NA
ATOM     22  S   UNL     1       7.211   5.168  17.833  0.00  0.00    +0.000 S 
ATOM     23  C   UNL     1       6.877   4.806  16.106  0.00  0.00    +0.000 A 
ATOM     24  C   UNL     1       7.614   5.209  15.005  0.00  0.00    +0.000 A 
ATOM     25  C   UNL     1       7.150   4.820  13.746  0.00  0.00    +0.000 A 
ATOM     26  C   UNL     1       5.983   4.058  13.583  0.00  0.00    +0.000 A 
ATOM     27  C   UNL     1       5.234   3.661  14.692  0.00  0.00    +0.000 A 
ATOM     28  C   UNL     1       5.705   4.049  15.930  0.00  0.00    +0.000 A 
BRANCH  25  29
ATOM     29  O   UNL     1       7.821   5.177  12.611  0.00  0.00    +0.000 OA
ATOM     30  H   UNL     1       7.473   4.663  11.862  0.00  0.00    +0.000 HD
ENDBRANCH  25  29
ENDBRANCH  16  17
ENDBRANCH   1  16
TORSDOF 7
ENDMDL
MODEL 6
REMARK VINA RESULT:      -7.5      6.183      8.175
REMARK  Name = 
REMARK  7 active torsions:
REMARK  status: ('A' for Active; 'I' for Inactive)
REMARK    1  A    between atoms: C_2  and  C_3
REMARK    2  A    between atoms: C_3  and  C_4
REMARK    3  A    between atoms: C_4  and  C_5
REMARK    4  A    between atoms: C_13  and  O_14
REMARK    5  A    between atoms: N_18  and  C_19
REMARK    6  A    between atoms: C_20  and  C_21
REMARK    7  A    between atoms: C_21  and  O_23
REMARK                            x       y       z     vdW  Elec       q    Type
REMARK                         _______ _______ _______ _____ _____    ______ ____
ROOT
ATOM      1  C   UNL     1       8.848   9.311  18.834  0.00  0.00    +0.000 C 
ENDROOT
BRANCH   1   3
ATOM      2  O   UNL     1       9.438  11.147  20.224  0.00  0.00    +0.000 OA
ATOM      3  C   UNL     1       9.131  10.778  19.099  0.00  0.00    +0.000 C 
ATOM      4  N   UNL     1       8.954  11.595  17.980  0.00  0.00    +0.000 N 
ATOM      5  H   UNL     1       8.726  11.097  17.120  0.00  0.00    +0.000 HD
BRANCH   4   6
ATOM      6  C   UNL     1       9.151  12.977  17.893  0.00  0.00    +0.000 C 
ATOM      7  C   UNL     1      10.347  13.523  17.555  0.00  0.00    +0.000 C 
ATOM      8  C   UNL     1      10.599  15.019  17.543  0.00  0.00    +0.000 C 
ATOM      9  C   UNL     1       9.554  15.839  18.287  0.00  0.00    +0.000 C 
ATOM     10  C   UNL     1       8.162  15.364  17.926  0.00  0.00    +0.000 C 
ATOM     11  C   UNL     1       7.982  13.883  18.262  0.00  0.00    +0.000 C 
BRANCH   7  12
ATOM     12  C   UNL     1      11.581  12.766  17.202  0.00  0.00    +0.000 C 
ATOM     13  O   UNL     1      12.110  11.951  17.943  0.00  0.00    +0.000 OA
BRANCH  12  14
ATOM     14  O   UNL     1      12.098  13.089  16.008  0.00  0.00    +0.000 OA
ATOM     15  H   UNL     1      11.450  13.054  15.277  0.00  0.00    +0.000 HD
ENDBRANCH  12  14
ENDBRANCH   7  12
ENDBRANCH   4   6
ENDBRANCH   1   3
BRANCH   1  16
ATOM     16  C   UNL     1       8.189   9.102  17.474  0.00  0.00    +0.000 C 
BRANCH  16  17
ATOM     17  C   UNL     1       7.300   7.906  17.426  0.00  0.00    +0.000 A 
ATOM     18  C   UNL     1       6.031   7.748  17.969  0.00  0.00    +0.000 A 
ATOM     19  N   UNL     1       5.674   6.482  17.617  0.00  0.00    +0.000 N 
ATOM     20  C   UNL     1       6.719   5.923  16.949  0.00  0.00    +0.000 A 
ATOM     21  N   UNL     1       7.700   6.763  16.750  0.00  0.00    +0.000 NA
ATOM     22  S   UNL     1       6.380   4.314  16.394  0.00  0.00    +0.000 S 
ATOM     23  C   UNL     1       4.724   4.481  17.069  0.00  0.00    +0.000 A 
ATOM     24  C   UNL     1       3.686   3.568  16.984  0.00  0.00    +0.000 A 
ATOM     25  C   UNL     1       2.470   3.922  17.573  0.00  0.00    +0.000 A 
ATOM     26  C   UNL     1       2.287   5.152  18.222  0.00  0.00    +0.000 A 
ATOM     27  C   UNL     1       3.329   6.078  18.298  0.00  0.00    +0.000 A 
ATOM     28  C   UNL     1       4.525   5.713  17.715  0.00  0.00    +0.000 A 
BRANCH  25  29
ATOM     29  O   UNL     1       1.399   3.076  17.533  0.00  0.00    +0.000 OA
ATOM     30  H   UNL     1       0.655   3.526  17.096  0.00  0.00    +0.000 HD
ENDBRANCH  25  29
ENDBRANCH  16  17
ENDBRANCH   1  16
TORSDOF 7
ENDMDL
MODEL 7
REMARK VINA RESULT:      -7.4      6.206      7.760
REMARK  Name = 
REMARK  7 active torsions:
REMARK  status: ('A' for Active; 'I' for Inactive)
REMARK    1  A    between atoms: C_2  and  C_3
REMARK    2  A    between atoms: C_3  and  C_4
REMARK    3  A    between atoms: C_4  and  C_5
REMARK    4  A    between atoms: C_13  and  O_14
REMARK    5  A    between atoms: N_18  and  C_19
REMARK    6  A    between atoms: C_20  and  C_21
REMARK    7  A    between atoms: C_21  and  O_23
REMARK                            x       y       z     vdW  Elec       q    Type
REMARK                         _______ _______ _______ _____ _____    ______ ____
ROOT
ATOM      1  C   UNL     1       8.253   9.363  17.935  0.00  0.00    +0.000 C 
ENDROOT
BRANCH   1   3
ATOM      2  O   UNL     1       9.391  10.299  19.801  0.00  0.00    +0.000 OA
ATOM      3  C   UNL     1       9.032  10.457  18.643  0.00  0.00    +0.000 C 
ATOM      4  N   UNL     1       9.223  11.602  17.867  0.00  0.00    +0.000 N 
ATOM      5  H   UNL     1       8.876  11.532  16.910  0.00  0.00    +0.000 HD
BRANCH   4   6
ATOM      6  C   UNL     1       9.910  12.768  18.221  0.00  0.00    +0.000 C 
ATOM      7  C   UNL     1       9.279  13.952  18.424  0.00  0.00    +0.000 C 
ATOM      8  C   UNL     1      10.020  15.243  18.721  0.00  0.00    +0.000 C 
ATOM      9  C   UNL     1      11.509  15.201  18.406  0.00  0.00    +0.000 C 
ATOM     10  C   UNL     1      12.116  13.914  18.925  0.00  0.00    +0.000 C 
ATOM     11  C   UNL     1      11.430  12.694  18.309  0.00  0.00    +0.000 C 
BRANCH   7  12
ATOM     12  C   UNL     1       7.809  14.181  18.341  0.00  0.00    +0.000 C 
ATOM     13  O   UNL     1       7.104  13.737  17.447  0.00  0.00    +0.000 OA
BRANCH  12  14
ATOM     14  O   UNL     1       7.322  14.965  19.315  0.00  0.00    +0.000 OA
ATOM     15  H   UNL     1       7.695  15.868  19.315  0.00  0.00    +0.000 HD
ENDBRANCH  12  14
ENDBRANCH   7  12
ENDBRANCH   4   6
ENDBRANCH   1   3
BRANCH   1  16
ATOM     16  C   UNL     1       8.526   7.993  18.546  0.00  0.00    +0.000 C 
BRANCH  16  17
ATOM     17  C   UNL     1       7.534   6.957  18.138  0.00  0.00    +0.000 A 
ATOM     18  C   UNL     1       6.972   5.945  18.907  0.00  0.00    +0.000 A 
ATOM     19  N   UNL     1       6.126   5.309  18.052  0.00  0.00    +0.000 N 
ATOM     20  C   UNL     1       6.241   5.899  16.832  0.00  0.00    +0.000 A 
ATOM     21  N   UNL     1       7.029   6.941  16.847  0.00  0.00    +0.000 NA
ATOM     22  S   UNL     1       5.172   5.214  15.649  0.00  0.00    +0.000 S 
ATOM     23  C   UNL     1       4.526   4.132  16.928  0.00  0.00    +0.000 A 
ATOM     24  C   UNL     1       3.489   3.221  16.813  0.00  0.00    +0.000 A 
ATOM     25  C   UNL     1       3.144   2.495  17.955  0.00  0.00    +0.000 A 
ATOM     26  C   UNL     1       3.805   2.672  19.180  0.00  0.00    +0.000 A 
ATOM     27  C   UNL     1       4.843   3.598  19.300  0.00  0.00    +0.000 A 
ATOM     28  C   UNL     1       5.175   4.306  18.162  0.00  0.00    +0.000 A 
BRANCH  25  29
ATOM     29  O   UNL     1       2.133   1.577  17.923  0.00  0.00    +0.000 OA
ATOM     30  H   UNL     1       1.535   1.789  17.186  0.00  0.00    +0.000 HD
ENDBRANCH  25  29
ENDBRANCH  16  17
ENDBRANCH   1  16
TORSDOF 7
ENDMDL
MODEL 8
REMARK VINA RESULT:      -7.3      7.321      9.101
REMARK  Name = 
REMARK  7 active torsions:
REMARK  status: ('A' for Active; 'I' for Inactive)
REMARK    1  A    between atoms: C_2  and  C_3
REMARK    2  A    between atoms: C_3  and  C_4
REMARK    3  A    between atoms: C_4  and  C_5
REMARK    4  A    between atoms: C_13  and  O_14
REMARK    5  A    between atoms: N_18  and  C_19
REMARK    6  A    between atoms: C_20  and  C_21
REMARK    7  A    between atoms: C_21  and  O_23
REMARK                            x       y       z     vdW  Elec       q    Type
REMARK                         _______ _______ _______ _____ _____    ______ ____
ROOT
ATOM      1  C   UNL     1       7.981   9.077  17.848  0.00  0.00    +0.000 C 
ENDROOT
BRANCH   1   3
ATOM      2  O   UNL     1       8.082   6.809  18.554  0.00  0.00    +0.000 OA
ATOM      3  C   UNL     1       7.589   7.612  17.775  0.00  0.00    +0.000 C 
ATOM      4  N   UNL     1       6.697   7.320  16.741  0.00  0.00    +0.000 N 
ATOM      5  H   UNL     1       6.373   8.132  16.215  0.00  0.00    +0.000 HD
BRANCH   4   6
ATOM      6  C   UNL     1       6.136   6.079  16.423  0.00  0.00    +0.000 C 
ATOM      7  C   UNL     1       4.994   5.626  17.001  0.00  0.00    +0.000 C 
ATOM      8  C   UNL     1       4.423   4.246  16.731  0.00  0.00    +0.000 C 
ATOM      9  C   UNL     1       5.398   3.279  16.075  0.00  0.00    +0.000 C 
ATOM     10  C   UNL     1       6.130   3.963  14.940  0.00  0.00    +0.000 C 
ATOM     11  C   UNL     1       6.890   5.194  15.438  0.00  0.00    +0.000 C 
BRANCH   7  12
ATOM     12  C   UNL     1       4.171   6.365  17.999  0.00  0.00    +0.000 C 
ATOM     13  O   UNL     1       3.899   5.927  19.107  0.00  0.00    +0.000 OA
BRANCH  12  14
ATOM     14  O   UNL     1       3.707   7.544  17.561  0.00  0.00    +0.000 OA
ATOM     15  H   UNL     1       4.407   8.211  17.419  0.00  0.00    +0.000 HD
ENDBRANCH  12  14
ENDBRANCH   7  12
ENDBRANCH   4   6
ENDBRANCH   1   3
BRANCH   1  16
ATOM     16  C   UNL     1       9.070   9.317  18.889  0.00  0.00    +0.000 C 
BRANCH  16  17
ATOM     17  C   UNL     1       9.491  10.744  18.984  0.00  0.00    +0.000 A 
ATOM     18  C   UNL     1      10.080  11.540  18.010  0.00  0.00    +0.000 A 
ATOM     19  N   UNL     1      10.234  12.748  18.616  0.00  0.00    +0.000 N 
ATOM     20  C   UNL     1       9.801  12.631  19.901  0.00  0.00    +0.000 A 
ATOM     21  N   UNL     1       9.281  11.459  20.154  0.00  0.00    +0.000 NA
ATOM     22  S   UNL     1       9.894  14.122  20.782  0.00  0.00    +0.000 S 
ATOM     23  C   UNL     1      10.492  14.915  19.286  0.00  0.00    +0.000 A 
ATOM     24  C   UNL     1      10.776  16.258  19.102  0.00  0.00    +0.000 A 
ATOM     25  C   UNL     1      11.216  16.653  17.837  0.00  0.00    +0.000 A 
ATOM     26  C   UNL     1      11.363  15.742  16.780  0.00  0.00    +0.000 A 
ATOM     27  C   UNL     1      11.066  14.391  16.961  0.00  0.00    +0.000 A 
ATOM     28  C   UNL     1      10.636  14.014  18.217  0.00  0.00    +0.000 A 
BRANCH  25  29
ATOM     29  O   UNL     1      11.518  17.960  17.576  0.00  0.00    +0.000 OA
ATOM     30  H   UNL     1      11.643  18.431  18.418  0.00  0.00    +0.000 HD
ENDBRANCH  25  29
ENDBRANCH  16  17
ENDBRANCH   1  16
TORSDOF 7
ENDMDL
MODEL 9
REMARK VINA RESULT:      -7.2      4.579      9.010
REMARK  Name = 
REMARK  7 active torsions:
REMARK  status: ('A' for Active; 'I' for Inactive)
REMARK    1  A    between atoms: C_2  and  C_3
REMARK    2  A    between atoms: C_3  and  C_4
REMARK    3  A    between atoms: C_4  and  C_5
REMARK    4  A    between atoms: C_13  and  O_14
REMARK    5  A    between atoms: N_18  and  C_19
REMARK    6  A    between atoms: C_20  and  C_21
REMARK    7  A    between atoms: C_21  and  O_23
REMARK                            x       y       z     vdW  Elec       q    Type
REMARK                         _______ _______ _______ _____ _____    ______ ____
ROOT
ATOM      1  C   UNL     1       2.232   8.407  17.934  0.00  0.00    +0.000 C 
ENDROOT
BRANCH   1   3
ATOM      2  O   UNL     1       2.158   7.046  19.882  0.00  0.00    +0.000 OA
ATOM      3  C   UNL     1       2.302   7.080  18.668  0.00  0.00    +0.000 C 
ATOM      4  N   UNL     1       2.584   5.994  17.838  0.00  0.00    +0.000 N 
ATOM      5  H   UNL     1       2.639   6.219  16.844  0.00  0.00    +0.000 HD
BRANCH   4   6
ATOM      6  C   UNL     1       2.696   4.648  18.202  0.00  0.00    +0.000 C 
ATOM      7  C   UNL     1       3.891   4.062  18.467  0.00  0.00    +0.000 C 
ATOM      8  C   UNL     1       4.036   2.583  18.775  0.00  0.00    +0.000 C 
ATOM      9  C   UNL     1       2.823   1.741  18.403  0.00  0.00    +0.000 C 
ATOM     10  C   UNL     1       1.551   2.426  18.857  0.00  0.00    +0.000 C 
ATOM     11  C   UNL     1       1.421   3.814  18.230  0.00  0.00    +0.000 C 
BRANCH   7  12
ATOM     12  C   UNL     1       5.218   4.740  18.447  0.00  0.00    +0.000 C 
ATOM     13  O   UNL     1       5.361   5.939  18.258  0.00  0.00    +0.000 OA
BRANCH  12  14
ATOM     14  O   UNL     1       6.259   3.911  18.609  0.00  0.00    +0.000 OA
ATOM     15  H   UNL     1       5.998   2.988  18.799  0.00  0.00    +0.000 HD
ENDBRANCH  12  14
ENDBRANCH   7  12
ENDBRANCH   4   6
ENDBRANCH   1   3
BRANCH   1  16
ATOM     16  C   UNL     1       2.045   9.574  18.898  0.00  0.00    +0.000 C 
BRANCH  16  17
ATOM     17  C   UNL     1       0.686  10.184  18.829  0.00  0.00    +0.000 A 
ATOM     18  C   UNL     1      -0.245  10.111  17.800  0.00  0.00    +0.000 A 
ATOM     19  N   UNL     1      -1.308  10.824  18.263  0.00  0.00    +0.000 N 
ATOM     20  C   UNL     1      -0.976  11.328  19.482  0.00  0.00    +0.000 A 
ATOM     21  N   UNL     1       0.192  10.916  19.898  0.00  0.00    +0.000 NA
ATOM     22  S   UNL     1      -2.269  12.223  20.215  0.00  0.00    +0.000 S 
ATOM     23  C   UNL     1      -3.294  11.814  18.799  0.00  0.00    +0.000 A 
ATOM     24  C   UNL     1      -4.629  12.126  18.610  0.00  0.00    +0.000 A 
ATOM     25  C   UNL     1      -5.230  11.686  17.428  0.00  0.00    +0.000 A 
ATOM     26  C   UNL     1      -4.526  10.950  16.463  0.00  0.00    +0.000 A 
ATOM     27  C   UNL     1      -3.183  10.624  16.658  0.00  0.00    +0.000 A 
ATOM     28  C   UNL     1      -2.601  11.069  17.829  0.00  0.00    +0.000 A 
BRANCH  25  29
ATOM     29  O   UNL     1      -6.544  11.955  17.167  0.00  0.00    +0.000 OA
ATOM     30  H   UNL     1      -6.618  12.855  16.806  0.00  0.00    +0.000 HD
ENDBRANCH  25  29
ENDBRANCH  16  17
ENDBRANCH   1  16
TORSDOF 7
ENDMDL
