MODEL 1
REMARK VINA RESULT:      -9.2      0.000      0.000
REMARK  Name = 
REMARK  4 active torsions:
REMARK  status: ('A' for Active; 'I' for Inactive)
REMARK    1  A    between atoms: C_4  and  C_5
REMARK    2  A    between atoms: C_4  and  C_7
REMARK    3  A    between atoms: C_9  and  N_10
REMARK    4  A    between atoms: C_11  and  C_13
REMARK                            x       y       z     vdW  Elec       q    Type
REMARK                         _______ _______ _______ _____ _____    ______ ____
ROOT
ATOM      1  C   UNL     1       3.589   5.113  18.845  0.00  0.00    +0.000 A 
ATOM      2  C   UNL     1       3.131   6.451  18.803  0.00  0.00    +0.000 A 
ATOM      3  C   UNL     1       2.208   6.980  19.724  0.00  0.00    +0.000 A 
ATOM      4  C   UNL     1       1.753   6.162  20.755  0.00  0.00    +0.000 A 
ATOM      5  C   UNL     1       2.178   4.835  20.809  0.00  0.00    +0.000 A 
ATOM      6  F   UNL     1       1.703   4.043  21.782  0.00  0.00    +0.000 F 
ATOM      7  C   UNL     1       3.075   4.316  19.873  0.00  0.00    +0.000 A 
ATOM      8  F   UNL     1       3.450   3.035  19.998  0.00  0.00    +0.000 F 
ENDROOT
BRANCH   1  12
ATOM      9  N   UNL     1       5.437   6.443  14.724  0.00  0.00    +0.000 N 
ATOM     10  C   UNL     1       5.544   5.597  15.778  0.00  0.00    +0.000 C 
ATOM     11  N   UNL     1       4.586   5.483  16.616  0.00  0.00    +0.000 NA
ATOM     12  C   UNL     1       4.594   4.588  17.789  0.00  0.00    +0.000 C 
ATOM     13  C   UNL     1       5.961   4.484  18.417  0.00  0.00    +0.000 C 
ATOM     14  C   UNL     1       7.205   4.569  17.567  0.00  0.00    +0.000 C 
ATOM     15  S   UNL     1       7.072   4.767  15.854  0.00  0.00    +0.000 S 
ATOM     16  C   UNL     1       6.875   5.646  18.545  0.00  0.00    +0.000 C 
ATOM     17  F   UNL     1       6.534   6.912  18.126  0.00  0.00    +0.000 F 
ATOM     18  F   UNL     1       7.656   5.795  19.669  0.00  0.00    +0.000 F 
ATOM     19  H   UNL     1       4.736   7.162  14.867  0.00  0.00    +0.000 HD
ATOM     20  H   UNL     1       6.318   6.789  14.365  0.00  0.00    +0.000 HD
BRANCH  12  21
ATOM     21  C   UNL     1       4.131   3.195  17.269  0.00  0.00    +0.000 C 
ATOM     22  F   UNL     1       2.874   3.246  16.753  0.00  0.00    +0.000 F 
ENDBRANCH  12  21
ENDBRANCH   1  12
BRANCH   3  23
ATOM     23  N   UNL     1       1.732   8.311  19.647  0.00  0.00    +0.000 N 
ATOM     24  C   UNL     1       1.798   9.111  18.513  0.00  0.00    +0.000 C 
ATOM     25  O   UNL     1       2.189   8.757  17.407  0.00  0.00    +0.000 OA
ATOM     26  H   UNL     1       1.229   8.699  20.440  0.00  0.00    +0.000 HD
BRANCH  24  27
ATOM     27  C   UNL     1       1.320  10.511  18.654  0.00  0.00    +0.000 A 
ATOM     28  C   UNL     1       0.018  10.716  19.112  0.00  0.00    +0.000 A 
ATOM     29  N   UNL     1      -0.539  11.948  19.225  0.00  0.00    +0.000 NA
ATOM     30  C   UNL     1       0.262  12.966  18.856  0.00  0.00    +0.000 A 
ATOM     31 CL   UNL     1      -0.448  14.519  18.956  0.00  0.00    +0.000 Cl
ATOM     32  C   UNL     1       1.565  12.774  18.410  0.00  0.00    +0.000 A 
ATOM     33  N   UNL     1       2.141  11.538  18.301  0.00  0.00    +0.000 NA
ENDBRANCH  24  27
ENDBRANCH   3  23
TORSDOF 4
ENDMDL
MODEL 2
REMARK VINA RESULT:      -9.1      1.294      1.443
REMARK  Name = 
REMARK  4 active torsions:
REMARK  status: ('A' for Active; 'I' for Inactive)
REMARK    1  A    between atoms: C_4  and  C_5
REMARK    2  A    between atoms: C_4  and  C_7
REMARK    3  A    between atoms: C_9  and  N_10
REMARK    4  A    between atoms: C_11  and  C_13
REMARK                            x       y       z     vdW  Elec       q    Type
REMARK                         _______ _______ _______ _____ _____    ______ ____
ROOT
ATOM      1  C   UNL     1       3.544   5.044  18.923  0.00  0.00    +0.000 A 
ATOM      2  C   UNL     1       3.053   6.370  18.919  0.00  0.00    +0.000 A 
ATOM      3  C   UNL     1       2.132   6.855  19.866  0.00  0.00    +0.000 A 
ATOM      4  C   UNL     1       1.714   6.002  20.884  0.00  0.00    +0.000 A 
ATOM      5  C   UNL     1       2.171   4.685  20.902  0.00  0.00    +0.000 A 
ATOM      6  F   UNL     1       1.732   3.860  21.863  0.00  0.00    +0.000 F 
ATOM      7  C   UNL     1       3.066   4.211  19.940  0.00  0.00    +0.000 A 
ATOM      8  F   UNL     1       3.474   2.937  20.030  0.00  0.00    +0.000 F 
ENDROOT
BRANCH   1  12
ATOM      9  N   UNL     1       5.380   6.565  14.863  0.00  0.00    +0.000 N 
ATOM     10  C   UNL     1       5.489   5.670  15.876  0.00  0.00    +0.000 C 
ATOM     11  N   UNL     1       4.534   5.518  16.710  0.00  0.00    +0.000 NA
ATOM     12  C   UNL     1       4.544   4.568  17.840  0.00  0.00    +0.000 C 
ATOM     13  C   UNL     1       5.914   4.433  18.457  0.00  0.00    +0.000 C 
ATOM     14  C   UNL     1       7.155   4.556  17.607  0.00  0.00    +0.000 C 
ATOM     15  S   UNL     1       7.016   4.836  15.906  0.00  0.00    +0.000 S 
ATOM     16  C   UNL     1       6.830   5.587  18.636  0.00  0.00    +0.000 C 
ATOM     17  F   UNL     1       6.489   6.871  18.280  0.00  0.00    +0.000 F 
ATOM     18  F   UNL     1       7.615   5.681  19.764  0.00  0.00    +0.000 F 
ATOM     19  H   UNL     1       4.680   7.277  15.043  0.00  0.00    +0.000 HD
ATOM     20  H   UNL     1       6.260   6.926  14.518  0.00  0.00    +0.000 HD
BRANCH  12  21
ATOM     21  C   UNL     1       4.078   3.201  17.256  0.00  0.00    +0.000 C 
ATOM     22  F   UNL     1       2.818   3.277  16.751  0.00  0.00    +0.000 F 
ENDBRANCH  12  21
ENDBRANCH   1  12
BRANCH   3  23
ATOM     23  N   UNL     1       1.622   8.175  19.828  0.00  0.00    +0.000 N 
ATOM     24  C   UNL     1       1.291   8.929  20.947  0.00  0.00    +0.000 C 
ATOM     25  O   UNL     1       1.474   8.601  22.114  0.00  0.00    +0.000 OA
ATOM     26  H   UNL     1       1.566   8.653  18.934  0.00  0.00    +0.000 HD
BRANCH  24  27
ATOM     27  C   UNL     1       0.692  10.266  20.699  0.00  0.00    +0.000 A 
ATOM     28  C   UNL     1       0.312  10.583  19.395  0.00  0.00    +0.000 A 
ATOM     29  N   UNL     1      -0.193  11.793  19.046  0.00  0.00    +0.000 NA
ATOM     30  C   UNL     1      -0.298  12.674  20.060  0.00  0.00    +0.000 A 
ATOM     31 CL   UNL     1      -0.894  14.216  19.620  0.00  0.00    +0.000 Cl
ATOM     32  C   UNL     1       0.067  12.365  21.365  0.00  0.00    +0.000 A 
ATOM     33  N   UNL     1       0.568  11.146  21.731  0.00  0.00    +0.000 NA
ENDBRANCH  24  27
ENDBRANCH   3  23
TORSDOF 4
ENDMDL
MODEL 3
REMARK VINA RESULT:      -9.0      1.767      1.996
REMARK  Name = 
REMARK  4 active torsions:
REMARK  status: ('A' for Active; 'I' for Inactive)
REMARK    1  A    between atoms: C_4  and  C_5
REMARK    2  A    between atoms: C_4  and  C_7
REMARK    3  A    between atoms: C_9  and  N_10
REMARK    4  A    between atoms: C_11  and  C_13
REMARK                            x       y       z     vdW  Elec       q    Type
REMARK                         _______ _______ _______ _____ _____    ______ ____
ROOT
ATOM      1  C   UNL     1       3.776   4.332  19.016  0.00  0.00    +0.000 A 
ATOM      2  C   UNL     1       3.144   5.531  19.419  0.00  0.00    +0.000 A 
ATOM      3  C   UNL     1       2.322   5.625  20.557  0.00  0.00    +0.000 A 
ATOM      4  C   UNL     1       2.153   4.494  21.351  0.00  0.00    +0.000 A 
ATOM      5  C   UNL     1       2.752   3.295  20.966  0.00  0.00    +0.000 A 
ATOM      6  F   UNL     1       2.551   2.201  21.715  0.00  0.00    +0.000 F 
ATOM      7  C   UNL     1       3.546   3.211  19.820  0.00  0.00    +0.000 A 
ATOM      8  F   UNL     1       4.102   2.028  19.522  0.00  0.00    +0.000 F 
ENDROOT
BRANCH   1  12
ATOM      9  N   UNL     1       4.919   7.115  15.394  0.00  0.00    +0.000 N 
ATOM     10  C   UNL     1       5.235   5.994  16.089  0.00  0.00    +0.000 C 
ATOM     11  N   UNL     1       4.416   5.509  16.941  0.00  0.00    +0.000 NA
ATOM     12  C   UNL     1       4.656   4.292  17.741  0.00  0.00    +0.000 C 
ATOM     13  C   UNL     1       6.102   4.151  18.144  0.00  0.00    +0.000 C 
ATOM     14  C   UNL     1       7.204   4.647  17.239  0.00  0.00    +0.000 C 
ATOM     15  S   UNL     1       6.815   5.367  15.715  0.00  0.00    +0.000 S 
ATOM     16  C   UNL     1       6.938   5.309  18.550  0.00  0.00    +0.000 C 
ATOM     17  F   UNL     1       6.450   6.593  18.616  0.00  0.00    +0.000 F 
ATOM     18  F   UNL     1       7.858   5.178  19.566  0.00  0.00    +0.000 F 
ATOM     19  H   UNL     1       4.194   7.664  15.845  0.00  0.00    +0.000 HD
ATOM     20  H   UNL     1       5.712   7.657  15.076  0.00  0.00    +0.000 HD
BRANCH  12  21
ATOM     21  C   UNL     1       4.227   3.095  16.841  0.00  0.00    +0.000 C 
ATOM     22  F   UNL     1       2.879   3.056  16.672  0.00  0.00    +0.000 F 
ENDBRANCH  12  21
ENDBRANCH   1  12
BRANCH   3  23
ATOM     23  N   UNL     1       1.667   6.824  20.928  0.00  0.00    +0.000 N 
ATOM     24  C   UNL     1       1.648   7.984  20.164  0.00  0.00    +0.000 C 
ATOM     25  O   UNL     1       2.110   8.108  19.036  0.00  0.00    +0.000 OA
ATOM     26  H   UNL     1       1.097   6.832  21.768  0.00  0.00    +0.000 HD
BRANCH  24  27
ATOM     27  C   UNL     1       0.976   9.168  20.762  0.00  0.00    +0.000 A 
ATOM     28  C   UNL     1       0.970   9.285  22.152  0.00  0.00    +0.000 A 
ATOM     29  N   UNL     1       0.339  10.294  22.805  0.00  0.00    +0.000 NA
ATOM     30  C   UNL     1      -0.287  11.179  22.005  0.00  0.00    +0.000 A 
ATOM     31 CL   UNL     1      -1.119  12.430  22.823  0.00  0.00    +0.000 Cl
ATOM     32  C   UNL     1      -0.276  11.078  20.618  0.00  0.00    +0.000 A 
ATOM     33  N   UNL     1       0.363  10.072  19.948  0.00  0.00    +0.000 NA
ENDBRANCH  24  27
ENDBRANCH   3  23
TORSDOF 4
ENDMDL
MODEL 4
REMARK VINA RESULT:      -8.4      4.462      6.328
REMARK  Name = 
REMARK  4 active torsions:
REMARK  status: ('A' for Active; 'I' for Inactive)
REMARK    1  A    between atoms: C_4  and  C_5
REMARK    2  A    between atoms: C_4  and  C_7
REMARK    3  A    between atoms: C_9  and  N_10
REMARK    4  A    between atoms: C_11  and  C_13
REMARK                            x       y       z     vdW  Elec       q    Type
REMARK                         _______ _______ _______ _____ _____    ______ ____
ROOT
ATOM      1  C   UNL     1       4.926   4.800  17.844  0.00  0.00    +0.000 A 
ATOM      2  C   UNL     1       5.505   6.082  17.989  0.00  0.00    +0.000 A 
ATOM      3  C   UNL     1       6.444   6.611  17.084  0.00  0.00    +0.000 A 
ATOM      4  C   UNL     1       6.791   5.855  15.968  0.00  0.00    +0.000 A 
ATOM      5  C   UNL     1       6.246   4.582  15.810  0.00  0.00    +0.000 A 
ATOM      6  F   UNL     1       6.616   3.845  14.753  0.00  0.00    +0.000 F 
ATOM      7  C   UNL     1       5.333   4.059  16.730  0.00  0.00    +0.000 A 
ATOM      8  F   UNL     1       4.840   2.834  16.505  0.00  0.00    +0.000 F 
ENDROOT
BRANCH   1  12
ATOM      9  N   UNL     1       2.048   6.470  21.176  0.00  0.00    +0.000 N 
ATOM     10  C   UNL     1       2.367   5.402  20.403  0.00  0.00    +0.000 C 
ATOM     11  N   UNL     1       3.462   5.383  19.747  0.00  0.00    +0.000 NA
ATOM     12  C   UNL     1       3.910   4.270  18.887  0.00  0.00    +0.000 C 
ATOM     13  C   UNL     1       2.761   3.610  18.166  0.00  0.00    +0.000 C 
ATOM     14  C   UNL     1       1.399   3.520  18.811  0.00  0.00    +0.000 C 
ATOM     15  S   UNL     1       1.149   4.159  20.398  0.00  0.00    +0.000 S 
ATOM     16  C   UNL     1       1.618   4.376  17.608  0.00  0.00    +0.000 C 
ATOM     17  F   UNL     1       1.535   5.748  17.681  0.00  0.00    +0.000 F 
ATOM     18  F   UNL     1       1.054   4.005  16.408  0.00  0.00    +0.000 F 
ATOM     19  H   UNL     1       2.553   7.310  20.912  0.00  0.00    +0.000 HD
ATOM     20  H   UNL     1       1.056   6.611  21.319  0.00  0.00    +0.000 HD
BRANCH  12  21
ATOM     21  C   UNL     1       4.609   3.250  19.834  0.00  0.00    +0.000 C 
ATOM     22  F   UNL     1       4.224   1.974  19.566  0.00  0.00    +0.000 F 
ENDBRANCH  12  21
ENDBRANCH   1  12
BRANCH   3  23
ATOM     23  N   UNL     1       7.042   7.882  17.262  0.00  0.00    +0.000 N 
ATOM     24  C   UNL     1       8.042   8.165  18.184  0.00  0.00    +0.000 C 
ATOM     25  O   UNL     1       8.606   7.349  18.903  0.00  0.00    +0.000 OA
ATOM     26  H   UNL     1       6.796   8.634  16.624  0.00  0.00    +0.000 HD
BRANCH  24  27
ATOM     27  C   UNL     1       8.484   9.580  18.278  0.00  0.00    +0.000 A 
ATOM     28  C   UNL     1       9.406   9.915  19.270  0.00  0.00    +0.000 A 
ATOM     29  N   UNL     1       9.835  11.184  19.482  0.00  0.00    +0.000 NA
ATOM     30  C   UNL     1       9.300  12.106  18.658  0.00  0.00    +0.000 A 
ATOM     31 CL   UNL     1       9.805  13.715  18.945  0.00  0.00    +0.000 Cl
ATOM     32  C   UNL     1       8.391  11.781  17.657  0.00  0.00    +0.000 A 
ATOM     33  N   UNL     1       7.957  10.504  17.428  0.00  0.00    +0.000 NA
ENDBRANCH  24  27
ENDBRANCH   3  23
TORSDOF 4
ENDMDL
MODEL 5
REMARK VINA RESULT:      -8.1      2.243      2.957
REMARK  Name = 
REMARK  4 active torsions:
REMARK  status: ('A' for Active; 'I' for Inactive)
REMARK    1  A    between atoms: C_4  and  C_5
REMARK    2  A    between atoms: C_4  and  C_7
REMARK    3  A    between atoms: C_9  and  N_10
REMARK    4  A    between atoms: C_11  and  C_13
REMARK                            x       y       z     vdW  Elec       q    Type
REMARK                         _______ _______ _______ _____ _____    ______ ____
ROOT
ATOM      1  C   UNL     1       4.053   4.684  19.344  0.00  0.00    +0.000 A 
ATOM      2  C   UNL     1       3.355   5.812  19.835  0.00  0.00    +0.000 A 
ATOM      3  C   UNL     1       2.156   5.719  20.565  0.00  0.00    +0.000 A 
ATOM      4  C   UNL     1       1.650   4.455  20.856  0.00  0.00    +0.000 A 
ATOM      5  C   UNL     1       2.311   3.328  20.370  0.00  0.00    +0.000 A 
ATOM      6  F   UNL     1       1.795   2.116  20.622  0.00  0.00    +0.000 F 
ATOM      7  C   UNL     1       3.487   3.436  19.626  0.00  0.00    +0.000 A 
ATOM      8  F   UNL     1       4.076   2.307  19.204  0.00  0.00    +0.000 F 
ENDROOT
BRANCH   1  12
ATOM      9  N   UNL     1       6.029   3.049  15.396  0.00  0.00    +0.000 N 
ATOM     10  C   UNL     1       6.068   4.008  16.353  0.00  0.00    +0.000 C 
ATOM     11  N   UNL     1       5.384   3.880  17.425  0.00  0.00    +0.000 NA
ATOM     12  C   UNL     1       5.361   4.856  18.531  0.00  0.00    +0.000 C 
ATOM     13  C   UNL     1       5.453   6.278  18.038  0.00  0.00    +0.000 C 
ATOM     14  C   UNL     1       6.247   6.613  16.799  0.00  0.00    +0.000 C 
ATOM     15  S   UNL     1       7.079   5.363  15.941  0.00  0.00    +0.000 S 
ATOM     16  C   UNL     1       4.761   6.748  16.812  0.00  0.00    +0.000 C 
ATOM     17  F   UNL     1       3.961   5.929  16.048  0.00  0.00    +0.000 F 
ATOM     18  F   UNL     1       4.201   8.005  16.769  0.00  0.00    +0.000 F 
ATOM     19  H   UNL     1       5.205   2.461  15.462  0.00  0.00    +0.000 HD
ATOM     20  H   UNL     1       6.232   3.375  14.459  0.00  0.00    +0.000 HD
BRANCH  12  21
ATOM     21  C   UNL     1       6.588   4.516  19.429  0.00  0.00    +0.000 C 
ATOM     22  F   UNL     1       7.223   5.641  19.854  0.00  0.00    +0.000 F 
ENDBRANCH  12  21
ENDBRANCH   1  12
BRANCH   3  23
ATOM     23  N   UNL     1       1.450   6.859  21.020  0.00  0.00    +0.000 N 
ATOM     24  C   UNL     1       1.416   8.083  20.363  0.00  0.00    +0.000 C 
ATOM     25  O   UNL     1       1.909   8.323  19.267  0.00  0.00    +0.000 OA
ATOM     26  H   UNL     1       0.853   6.773  21.837  0.00  0.00    +0.000 HD
BRANCH  24  27
ATOM     27  C   UNL     1       0.686   9.186  21.041  0.00  0.00    +0.000 A 
ATOM     28  C   UNL     1       0.728   9.240  22.434  0.00  0.00    +0.000 A 
ATOM     29  N   UNL     1       0.054  10.169  23.158  0.00  0.00    +0.000 NA
ATOM     30  C   UNL     1      -0.667  11.041  22.425  0.00  0.00    +0.000 A 
ATOM     31 CL   UNL     1      -1.553  12.189  23.332  0.00  0.00    +0.000 Cl
ATOM     32  C   UNL     1      -0.706  11.003  21.036  0.00  0.00    +0.000 A 
ATOM     33  N   UNL     1      -0.024  10.077  20.295  0.00  0.00    +0.000 NA
ENDBRANCH  24  27
ENDBRANCH   3  23
TORSDOF 4
ENDMDL
MODEL 6
REMARK VINA RESULT:      -8.0      4.576      6.183
REMARK  Name = 
REMARK  4 active torsions:
REMARK  status: ('A' for Active; 'I' for Inactive)
REMARK    1  A    between atoms: C_4  and  C_5
REMARK    2  A    between atoms: C_4  and  C_7
REMARK    3  A    between atoms: C_9  and  N_10
REMARK    4  A    between atoms: C_11  and  C_13
REMARK                            x       y       z     vdW  Elec       q    Type
REMARK                         _______ _______ _______ _____ _____    ______ ____
ROOT
ATOM      1  C   UNL     1       4.490   4.921  18.056  0.00  0.00    +0.000 A 
ATOM      2  C   UNL     1       5.145   6.172  18.128  0.00  0.00    +0.000 A 
ATOM      3  C   UNL     1       6.165   6.561  17.240  0.00  0.00    +0.000 A 
ATOM      4  C   UNL     1       6.521   5.692  16.213  0.00  0.00    +0.000 A 
ATOM      5  C   UNL     1       5.901   4.445  16.130  0.00  0.00    +0.000 A 
ATOM      6  F   UNL     1       6.279   3.598  15.161  0.00  0.00    +0.000 F 
ATOM      7  C   UNL     1       4.908   4.062  17.033  0.00  0.00    +0.000 A 
ATOM      8  F   UNL     1       4.346   2.854  16.882  0.00  0.00    +0.000 F 
ENDROOT
BRANCH   1  12
ATOM      9  N   UNL     1       0.518   2.399  18.235  0.00  0.00    +0.000 N 
ATOM     10  C   UNL     1       1.484   3.020  18.956  0.00  0.00    +0.000 C 
ATOM     11  N   UNL     1       2.307   3.814  18.386  0.00  0.00    +0.000 NA
ATOM     12  C   UNL     1       3.386   4.547  19.076  0.00  0.00    +0.000 C 
ATOM     13  C   UNL     1       3.998   3.741  20.194  0.00  0.00    +0.000 C 
ATOM     14  C   UNL     1       3.159   2.773  20.993  0.00  0.00    +0.000 C 
ATOM     15  S   UNL     1       1.475   2.595  20.644  0.00  0.00    +0.000 S 
ATOM     16  C   UNL     1       4.240   2.280  20.089  0.00  0.00    +0.000 C 
ATOM     17  F   UNL     1       3.949   1.556  18.955  0.00  0.00    +0.000 F 
ATOM     18  F   UNL     1       5.372   1.722  20.639  0.00  0.00    +0.000 F 
ATOM     19  H   UNL     1       0.733   2.359  17.244  0.00  0.00    +0.000 HD
ATOM     20  H   UNL     1       0.195   1.522  18.624  0.00  0.00    +0.000 HD
BRANCH  12  21
ATOM     21  C   UNL     1       2.731   5.842  19.642  0.00  0.00    +0.000 C 
ATOM     22  F   UNL     1       1.944   6.450  18.714  0.00  0.00    +0.000 F 
ENDBRANCH  12  21
ENDBRANCH   1  12
BRANCH   3  23
ATOM     23  N   UNL     1       6.836   7.804  17.346  0.00  0.00    +0.000 N 
ATOM     24  C   UNL     1       7.920   8.049  18.179  0.00  0.00    +0.000 C 
ATOM     25  O   UNL     1       8.502   7.216  18.865  0.00  0.00    +0.000 OA
ATOM     26  H   UNL     1       6.575   8.558  16.718  0.00  0.00    +0.000 HD
BRANCH  24  27
ATOM     27  C   UNL     1       8.436   9.442  18.213  0.00  0.00    +0.000 A 
ATOM     28  C   UNL     1       9.406   9.759  19.164  0.00  0.00    +0.000 A 
ATOM     29  N   UNL     1       9.906  11.011  19.320  0.00  0.00    +0.000 NA
ATOM     30  C   UNL     1       9.391  11.933  18.483  0.00  0.00    +0.000 A 
ATOM     31 CL   UNL     1       9.985  13.522  18.701  0.00  0.00    +0.000 Cl
ATOM     32  C   UNL     1       8.433  11.625  17.523  0.00  0.00    +0.000 A 
ATOM     33  N   UNL     1       7.928  10.365  17.350  0.00  0.00    +0.000 NA
ENDBRANCH  24  27
ENDBRANCH   3  23
TORSDOF 4
ENDMDL
MODEL 7
REMARK VINA RESULT:      -7.9      2.204      3.125
REMARK  Name = 
REMARK  4 active torsions:
REMARK  status: ('A' for Active; 'I' for Inactive)
REMARK    1  A    between atoms: C_4  and  C_5
REMARK    2  A    between atoms: C_4  and  C_7
REMARK    3  A    between atoms: C_9  and  N_10
REMARK    4  A    between atoms: C_11  and  C_13
REMARK                            x       y       z     vdW  Elec       q    Type
REMARK                         _______ _______ _______ _____ _____    ______ ____
ROOT
ATOM      1  C   UNL     1       3.405   5.936  19.120  0.00  0.00    +0.000 A 
ATOM      2  C   UNL     1       2.653   7.118  19.306  0.00  0.00    +0.000 A 
ATOM      3  C   UNL     1       1.695   7.271  20.326  0.00  0.00    +0.000 A 
ATOM      4  C   UNL     1       1.505   6.224  21.223  0.00  0.00    +0.000 A 
ATOM      5  C   UNL     1       2.224   5.042  21.052  0.00  0.00    +0.000 A 
ATOM      6  F   UNL     1       2.006   4.024  21.898  0.00  0.00    +0.000 F 
ATOM      7  C   UNL     1       3.154   4.895  20.021  0.00  0.00    +0.000 A 
ATOM      8  F   UNL     1       3.818   3.734  19.928  0.00  0.00    +0.000 F 
ENDROOT
BRANCH   1  12
ATOM      9  N   UNL     1       7.787   4.373  18.396  0.00  0.00    +0.000 N 
ATOM     10  C   UNL     1       6.628   4.766  17.814  0.00  0.00    +0.000 C 
ATOM     11  N   UNL     1       5.724   5.350  18.501  0.00  0.00    +0.000 NA
ATOM     12  C   UNL     1       4.433   5.826  17.966  0.00  0.00    +0.000 C 
ATOM     13  C   UNL     1       3.886   4.909  16.902  0.00  0.00    +0.000 C 
ATOM     14  C   UNL     1       4.816   4.160  15.979  0.00  0.00    +0.000 C 
ATOM     15  S   UNL     1       6.527   4.364  16.123  0.00  0.00    +0.000 S 
ATOM     16  C   UNL     1       3.990   3.431  16.986  0.00  0.00    +0.000 C 
ATOM     17  F   UNL     1       4.569   2.785  18.053  0.00  0.00    +0.000 F 
ATOM     18  F   UNL     1       2.952   2.636  16.553  0.00  0.00    +0.000 F 
ATOM     19  H   UNL     1       7.708   4.280  19.404  0.00  0.00    +0.000 HD
ATOM     20  H   UNL     1       8.249   3.594  17.943  0.00  0.00    +0.000 HD
BRANCH  12  21
ATOM     21  C   UNL     1       4.711   7.239  17.371  0.00  0.00    +0.000 C 
ATOM     22  F   UNL     1       4.628   7.234  16.014  0.00  0.00    +0.000 F 
ENDBRANCH  12  21
ENDBRANCH   1  12
BRANCH   3  23
ATOM     23  N   UNL     1       0.923   8.449  20.477  0.00  0.00    +0.000 N 
ATOM     24  C   UNL     1       1.003   9.314  21.561  0.00  0.00    +0.000 C 
ATOM     25  O   UNL     1       1.803   9.233  22.487  0.00  0.00    +0.000 OA
ATOM     26  H   UNL     1       0.325   8.745  19.712  0.00  0.00    +0.000 HD
BRANCH  24  27
ATOM     27  C   UNL     1       0.052  10.455  21.578  0.00  0.00    +0.000 A 
ATOM     28  C   UNL     1      -0.458  10.901  20.359  0.00  0.00    +0.000 A 
ATOM     29  N   UNL     1      -1.289  11.968  20.252  0.00  0.00    +0.000 NA
ATOM     30  C   UNL     1      -1.585  12.572  21.419  0.00  0.00    +0.000 A 
ATOM     31 CL   UNL     1      -2.599  13.944  21.289  0.00  0.00    +0.000 Cl
ATOM     32  C   UNL     1      -1.092  12.128  22.642  0.00  0.00    +0.000 A 
ATOM     33  N   UNL     1      -0.261  11.049  22.763  0.00  0.00    +0.000 NA
ENDBRANCH  24  27
ENDBRANCH   3  23
TORSDOF 4
ENDMDL
MODEL 8
REMARK VINA RESULT:      -7.9      2.481      4.241
REMARK  Name = 
REMARK  4 active torsions:
REMARK  status: ('A' for Active; 'I' for Inactive)
REMARK    1  A    between atoms: C_4  and  C_5
REMARK    2  A    between atoms: C_4  and  C_7
REMARK    3  A    between atoms: C_9  and  N_10
REMARK    4  A    between atoms: C_11  and  C_13
REMARK                            x       y       z     vdW  Elec       q    Type
REMARK                         _______ _______ _______ _____ _____    ______ ____
ROOT
ATOM      1  C   UNL     1       3.402   5.028  17.799  0.00  0.00    +0.000 A 
ATOM      2  C   UNL     1       2.788   6.293  17.954  0.00  0.00    +0.000 A 
ATOM      3  C   UNL     1       3.269   7.464  17.340  0.00  0.00    +0.000 A 
ATOM      4  C   UNL     1       4.379   7.370  16.504  0.00  0.00    +0.000 A 
ATOM      5  C   UNL     1       5.011   6.138  16.348  0.00  0.00    +0.000 A 
ATOM      6  F   UNL     1       6.103   6.064  15.573  0.00  0.00    +0.000 F 
ATOM      7  C   UNL     1       4.538   4.988  16.983  0.00  0.00    +0.000 A 
ATOM      8  F   UNL     1       5.189   3.835  16.774  0.00  0.00    +0.000 F 
ENDROOT
BRANCH   1  12
ATOM      9  N   UNL     1       4.684   1.932  21.107  0.00  0.00    +0.000 N 
ATOM     10  C   UNL     1       3.653   2.439  20.387  0.00  0.00    +0.000 C 
ATOM     11  N   UNL     1       3.877   3.185  19.375  0.00  0.00    +0.000 NA
ATOM     12  C   UNL     1       2.832   3.779  18.518  0.00  0.00    +0.000 C 
ATOM     13  C   UNL     1       1.609   4.178  19.305  0.00  0.00    +0.000 C 
ATOM     14  C   UNL     1       1.182   3.385  20.517  0.00  0.00    +0.000 C 
ATOM     15  S   UNL     1       2.087   1.994  21.003  0.00  0.00    +0.000 S 
ATOM     16  C   UNL     1       1.688   4.782  20.658  0.00  0.00    +0.000 C 
ATOM     17  F   UNL     1       2.883   5.050  21.285  0.00  0.00    +0.000 F 
ATOM     18  F   UNL     1       0.812   5.779  21.025  0.00  0.00    +0.000 F 
ATOM     19  H   UNL     1       5.544   2.455  20.981  0.00  0.00    +0.000 HD
ATOM     20  H   UNL     1       4.465   1.721  22.073  0.00  0.00    +0.000 HD
BRANCH  12  21
ATOM     21  C   UNL     1       2.466   2.688  17.468  0.00  0.00    +0.000 C 
ATOM     22  F   UNL     1       3.337   1.645  17.509  0.00  0.00    +0.000 F 
ENDBRANCH  12  21
ENDBRANCH   1  12
BRANCH   3  23
ATOM     23  N   UNL     1       2.664   8.729  17.533  0.00  0.00    +0.000 N 
ATOM     24  C   UNL     1       1.875   9.071  18.624  0.00  0.00    +0.000 C 
ATOM     25  O   UNL     1       1.665   8.369  19.606  0.00  0.00    +0.000 OA
ATOM     26  H   UNL     1       2.877   9.479  16.882  0.00  0.00    +0.000 HD
BRANCH  24  27
ATOM     27  C   UNL     1       1.260  10.424  18.607  0.00  0.00    +0.000 A 
ATOM     28  C   UNL     1       2.087  11.517  18.348  0.00  0.00    +0.000 A 
ATOM     29  N   UNL     1       1.642  12.799  18.363  0.00  0.00    +0.000 NA
ATOM     30  C   UNL     1       0.334  12.939  18.651  0.00  0.00    +0.000 A 
ATOM     31 CL   UNL     1      -0.225  14.555  18.713  0.00  0.00    +0.000 Cl
ATOM     32  C   UNL     1      -0.502  11.856  18.898  0.00  0.00    +0.000 A 
ATOM     33  N   UNL     1      -0.068  10.559  18.877  0.00  0.00    +0.000 NA
ENDBRANCH  24  27
ENDBRANCH   3  23
TORSDOF 4
ENDMDL
MODEL 9
REMARK VINA RESULT:      -7.8      1.091      1.341
REMARK  Name = 
REMARK  4 active torsions:
REMARK  status: ('A' for Active; 'I' for Inactive)
REMARK    1  A    between atoms: C_4  and  C_5
REMARK    2  A    between atoms: C_4  and  C_7
REMARK    3  A    between atoms: C_9  and  N_10
REMARK    4  A    between atoms: C_11  and  C_13
REMARK                            x       y       z     vdW  Elec       q    Type
REMARK                         _______ _______ _______ _____ _____    ______ ____
ROOT
ATOM      1  C   UNL     1       3.436   5.406  18.609  0.00  0.00    +0.000 A 
ATOM      2  C   UNL     1       3.050   6.759  18.463  0.00  0.00    +0.000 A 
ATOM      3  C   UNL     1       2.166   7.408  19.344  0.00  0.00    +0.000 A 
ATOM      4  C   UNL     1       1.678   6.700  20.438  0.00  0.00    +0.000 A 
ATOM      5  C   UNL     1       2.031   5.360  20.596  0.00  0.00    +0.000 A 
ATOM      6  F   UNL     1       1.524   4.675  21.631  0.00  0.00    +0.000 F 
ATOM      7  C   UNL     1       2.890   4.721  19.700  0.00  0.00    +0.000 A 
ATOM      8  F   UNL     1       3.197   3.436  19.924  0.00  0.00    +0.000 F 
ENDROOT
BRANCH   1  12
ATOM      9  N   UNL     1       5.587   6.446  14.551  0.00  0.00    +0.000 N 
ATOM     10  C   UNL     1       5.545   5.604  15.613  0.00  0.00    +0.000 C 
ATOM     11  N   UNL     1       4.551   5.623  16.415  0.00  0.00    +0.000 NA
ATOM     12  C   UNL     1       4.401   4.745  17.592  0.00  0.00    +0.000 C 
ATOM     13  C   UNL     1       5.720   4.471  18.270  0.00  0.00    +0.000 C 
ATOM     14  C   UNL     1       6.995   4.386  17.465  0.00  0.00    +0.000 C 
ATOM     15  S   UNL     1       6.949   4.584  15.748  0.00  0.00    +0.000 S 
ATOM     16  C   UNL     1       6.772   5.506  18.425  0.00  0.00    +0.000 C 
ATOM     17  F   UNL     1       6.613   6.801  17.989  0.00  0.00    +0.000 F 
ATOM     18  F   UNL     1       7.526   5.563  19.577  0.00  0.00    +0.000 F 
ATOM     19  H   UNL     1       4.980   7.251  14.666  0.00  0.00    +0.000 HD
ATOM     20  H   UNL     1       6.517   6.672  14.223  0.00  0.00    +0.000 HD
BRANCH  12  21
ATOM     21  C   UNL     1       3.781   3.418  17.062  0.00  0.00    +0.000 C 
ATOM     22  F   UNL     1       4.399   2.330  17.594  0.00  0.00    +0.000 F 
ENDBRANCH  12  21
ENDBRANCH   1  12
BRANCH   3  23
ATOM     23  N   UNL     1       1.761   8.753  19.164  0.00  0.00    +0.000 N 
ATOM     24  C   UNL     1       0.756   9.381  19.889  0.00  0.00    +0.000 C 
ATOM     25  O   UNL     1       0.145   8.898  20.836  0.00  0.00    +0.000 OA
ATOM     26  H   UNL     1       2.285   9.341  18.524  0.00  0.00    +0.000 HD
BRANCH  24  27
ATOM     27  C   UNL     1       0.419  10.774  19.497  0.00  0.00    +0.000 A 
ATOM     28  C   UNL     1       1.462  11.694  19.387  0.00  0.00    +0.000 A 
ATOM     29  N   UNL     1       1.263  13.003  19.090  0.00  0.00    +0.000 NA
ATOM     30  C   UNL     1      -0.026  13.352  18.912  0.00  0.00    +0.000 A 
ATOM     31 CL   UNL     1      -0.288  15.009  18.578  0.00  0.00    +0.000 Cl
ATOM     32  C   UNL     1      -1.071  12.440  19.007  0.00  0.00    +0.000 A 
ATOM     33  N   UNL     1      -0.883  11.117  19.296  0.00  0.00    +0.000 NA
ENDBRANCH  24  27
ENDBRANCH   3  23
TORSDOF 4
ENDMDL
