MODEL 1
REMARK VINA RESULT:      -8.5      0.000      0.000
REMARK  Name = 
REMARK  8 active torsions:
REMARK  status: ('A' for Active; 'I' for Inactive)
REMARK    1  A    between atoms: C_1  and  C_2
REMARK    2  A    between atoms: C_5  and  C_6
REMARK    3  A    between atoms: C_10  and  C_11
REMARK    4  A    between atoms: C_13  and  C_14
REMARK    5  A    between atoms: N_16  and  C_17
REMARK    6  A    between atoms: C_17  and  C_18
REMARK    7  A    between atoms: C_21  and  C_22
REMARK    8  A    between atoms: N_27  and  C_28
REMARK                            x       y       z     vdW  Elec       q    Type
REMARK                         _______ _______ _______ _____ _____    ______ ____
ROOT
ATOM      1  C   UNL     1       1.418   8.522  19.968  0.00  0.00    +0.000 A 
ATOM      2  C   UNL     1       1.064   8.621  21.306  0.00  0.00    +0.000 A 
ATOM      3  C   UNL     1       0.223   9.753  21.431  0.00  0.00    +0.000 A 
ATOM      4  N   UNL     1       0.074  10.364  20.242  0.00  0.00    +0.000 NA
ATOM      5  N   UNL     1       0.731   9.562  19.371  0.00  0.00    +0.000 N 
ATOM      6  C   UNL     1       0.615   9.861  17.961  0.00  0.00    +0.000 C 
ENDROOT
BRANCH   1  11
ATOM      7  C   UNL     1       5.143   5.718  16.110  0.00  0.00    +0.000 A 
ATOM      8  C   UNL     1       4.609   6.977  16.301  0.00  0.00    +0.000 A 
ATOM      9  C   UNL     1       3.806   6.941  17.477  0.00  0.00    +0.000 A 
ATOM     10  C   UNL     1       3.005   7.887  18.152  0.00  0.00    +0.000 A 
ATOM     11  C   UNL     1       2.284   7.525  19.307  0.00  0.00    +0.000 A 
ATOM     12  C   UNL     1       2.383   6.202  19.760  0.00  0.00    +0.000 A 
ATOM     13  C   UNL     1       3.198   5.250  19.131  0.00  0.00    +0.000 A 
ATOM     14  C   UNL     1       3.888   5.648  17.985  0.00  0.00    +0.000 A 
ATOM     15  N   UNL     1       4.715   4.930  17.149  0.00  0.00    +0.000 N 
ATOM     16  H   UNL     1       4.945   3.954  17.267  0.00  0.00    +0.000 HD
BRANCH   7  21
ATOM     17  C   UNL     1       6.741   3.332  12.192  0.00  0.00    +0.000 C 
ATOM     18  C   UNL     1       6.704   4.215  13.373  0.00  0.00    +0.000 A 
ATOM     19  N   UNL     1       7.750   4.957  13.747  0.00  0.00    +0.000 NA
ATOM     20  O   UNL     1       7.272   5.633  14.870  0.00  0.00    +0.000 OA
ATOM     21  C   UNL     1       5.977   5.226  15.062  0.00  0.00    +0.000 A 
ATOM     22  N   UNL     1       5.587   4.345  14.161  0.00  0.00    +0.000 NA
ENDBRANCH   7  21
ENDBRANCH   1  11
BRANCH   3  23
ATOM     23  C   UNL     1      -0.407  10.252  22.666  0.00  0.00    +0.000 C 
ATOM     24  O   UNL     1      -0.004   9.942  23.783  0.00  0.00    +0.000 OA
ATOM     25  N   UNL     1      -1.465  11.107  22.451  0.00  0.00    +0.000 N 
ATOM     26  H   UNL     1      -1.687  11.313  21.482  0.00  0.00    +0.000 HD
BRANCH  25  27
ATOM     27  C   UNL     1      -2.183  11.760  23.520  0.00  0.00    +0.000 C 
BRANCH  27  28
ATOM     28  C   UNL     1      -2.986  12.934  23.015  0.00  0.00    +0.000 A 
ATOM     29  C   UNL     1      -4.265  12.732  22.472  0.00  0.00    +0.000 A 
ATOM     30  C   UNL     1      -5.025  13.809  22.013  0.00  0.00    +0.000 A 
ATOM     31  C   UNL     1      -4.517  15.107  22.094  0.00  0.00    +0.000 A 
ATOM     32  C   UNL     1      -3.253  15.325  22.650  0.00  0.00    +0.000 A 
ATOM     33  C   UNL     1      -2.491  14.243  23.105  0.00  0.00    +0.000 A 
BRANCH  31  34
ATOM     34  C   UNL     1      -5.294  16.212  21.616  0.00  0.00    +0.000 C 
ATOM     35  N   UNL     1      -5.922  17.111  21.226  0.00  0.00    +0.000 NA
ENDBRANCH  31  34
ENDBRANCH  27  28
ENDBRANCH  25  27
ENDBRANCH   3  23
TORSDOF 6
ENDMDL
MODEL 2
REMARK VINA RESULT:      -8.3      2.320     12.329
REMARK  Name = 
REMARK  8 active torsions:
REMARK  status: ('A' for Active; 'I' for Inactive)
REMARK    1  A    between atoms: C_1  and  C_2
REMARK    2  A    between atoms: C_5  and  C_6
REMARK    3  A    between atoms: C_10  and  C_11
REMARK    4  A    between atoms: C_13  and  C_14
REMARK    5  A    between atoms: N_16  and  C_17
REMARK    6  A    between atoms: C_17  and  C_18
REMARK    7  A    between atoms: C_21  and  C_22
REMARK    8  A    between atoms: N_27  and  C_28
REMARK                            x       y       z     vdW  Elec       q    Type
REMARK                         _______ _______ _______ _____ _____    ______ ____
ROOT
ATOM      1  C   UNL     1       1.155   8.604  20.385  0.00  0.00    +0.000 A 
ATOM      2  C   UNL     1       1.696   7.379  20.747  0.00  0.00    +0.000 A 
ATOM      3  C   UNL     1       2.436   6.906  19.636  0.00  0.00    +0.000 A 
ATOM      4  N   UNL     1       2.346   7.769  18.609  0.00  0.00    +0.000 NA
ATOM      5  N   UNL     1       1.643   8.813  19.110  0.00  0.00    +0.000 N 
ATOM      6  C   UNL     1       1.517   9.996  18.288  0.00  0.00    +0.000 C 
ENDROOT
BRANCH   1  11
ATOM      7  C   UNL     1      -2.325  13.230  22.147  0.00  0.00    +0.000 A 
ATOM      8  C   UNL     1      -1.729  12.767  20.991  0.00  0.00    +0.000 A 
ATOM      9  C   UNL     1      -1.060  11.549  21.300  0.00  0.00    +0.000 A 
ATOM     10  C   UNL     1      -0.271  10.643  20.557  0.00  0.00    +0.000 A 
ATOM     11  C   UNL     1       0.297   9.511  21.175  0.00  0.00    +0.000 A 
ATOM     12  C   UNL     1       0.060   9.316  22.542  0.00  0.00    +0.000 A 
ATOM     13  C   UNL     1      -0.747  10.179  23.297  0.00  0.00    +0.000 A 
ATOM     14  C   UNL     1      -1.283  11.292  22.649  0.00  0.00    +0.000 A 
ATOM     15  N   UNL     1      -2.064  12.316  23.138  0.00  0.00    +0.000 N 
ATOM     16  H   UNL     1      -2.373  12.398  24.096  0.00  0.00    +0.000 HD
BRANCH   7  21
ATOM     17  C   UNL     1      -3.697  17.889  22.296  0.00  0.00    +0.000 C 
ATOM     18  C   UNL     1      -3.705  16.422  22.457  0.00  0.00    +0.000 A 
ATOM     19  N   UNL     1      -4.753  15.762  22.959  0.00  0.00    +0.000 NA
ATOM     20  O   UNL     1      -4.341  14.430  22.907  0.00  0.00    +0.000 OA
ATOM     21  C   UNL     1      -3.076  14.422  22.378  0.00  0.00    +0.000 A 
ATOM     22  N   UNL     1      -2.643  15.634  22.089  0.00  0.00    +0.000 NA
ENDBRANCH   7  21
ENDBRANCH   1  11
BRANCH   3  23
ATOM     23  C   UNL     1       3.195   5.646  19.553  0.00  0.00    +0.000 C 
ATOM     24  O   UNL     1       2.684   4.553  19.777  0.00  0.00    +0.000 OA
ATOM     25  N   UNL     1       4.512   5.807  19.183  0.00  0.00    +0.000 N 
ATOM     26  H   UNL     1       4.813   6.758  18.995  0.00  0.00    +0.000 HD
BRANCH  25  27
ATOM     27  C   UNL     1       5.415   4.700  18.980  0.00  0.00    +0.000 C 
BRANCH  27  28
ATOM     28  C   UNL     1       5.706   4.481  17.515  0.00  0.00    +0.000 A 
ATOM     29  C   UNL     1       4.692   4.034  16.654  0.00  0.00    +0.000 A 
ATOM     30  C   UNL     1       4.941   3.839  15.294  0.00  0.00    +0.000 A 
ATOM     31  C   UNL     1       6.211   4.096  14.775  0.00  0.00    +0.000 A 
ATOM     32  C   UNL     1       7.225   4.561  15.617  0.00  0.00    +0.000 A 
ATOM     33  C   UNL     1       6.974   4.750  16.980  0.00  0.00    +0.000 A 
BRANCH  31  34
ATOM     34  C   UNL     1       6.470   3.890  13.380  0.00  0.00    +0.000 C 
ATOM     35  N   UNL     1       6.682   3.726  12.247  0.00  0.00    +0.000 NA
ENDBRANCH  31  34
ENDBRANCH  27  28
ENDBRANCH  25  27
ENDBRANCH   3  23
TORSDOF 6
ENDMDL
MODEL 3
REMARK VINA RESULT:      -8.2      1.459      1.723
REMARK  Name = 
REMARK  8 active torsions:
REMARK  status: ('A' for Active; 'I' for Inactive)
REMARK    1  A    between atoms: C_1  and  C_2
REMARK    2  A    between atoms: C_5  and  C_6
REMARK    3  A    between atoms: C_10  and  C_11
REMARK    4  A    between atoms: C_13  and  C_14
REMARK    5  A    between atoms: N_16  and  C_17
REMARK    6  A    between atoms: C_17  and  C_18
REMARK    7  A    between atoms: C_21  and  C_22
REMARK    8  A    between atoms: N_27  and  C_28
REMARK                            x       y       z     vdW  Elec       q    Type
REMARK                         _______ _______ _______ _____ _____    ______ ____
ROOT
ATOM      1  C   UNL     1       1.670   8.472  19.823  0.00  0.00    +0.000 A 
ATOM      2  C   UNL     1       1.184   8.459  21.123  0.00  0.00    +0.000 A 
ATOM      3  C   UNL     1       0.518   9.691  21.331  0.00  0.00    +0.000 A 
ATOM      4  N   UNL     1       0.600  10.462  20.232  0.00  0.00    +0.000 NA
ATOM      5  N   UNL     1       1.222   9.678  19.320  0.00  0.00    +0.000 N 
ATOM      6  C   UNL     1       1.314  10.169  17.963  0.00  0.00    +0.000 C 
ENDROOT
BRANCH   1  11
ATOM      7  C   UNL     1       5.192   5.562  15.856  0.00  0.00    +0.000 A 
ATOM      8  C   UNL     1       4.792   6.855  16.129  0.00  0.00    +0.000 A 
ATOM      9  C   UNL     1       3.952   6.821  17.278  0.00  0.00    +0.000 A 
ATOM     10  C   UNL     1       3.237   7.799  18.004  0.00  0.00    +0.000 A 
ATOM     11  C   UNL     1       2.443   7.435  19.109  0.00  0.00    +0.000 A 
ATOM     12  C   UNL     1       2.381   6.080  19.461  0.00  0.00    +0.000 A 
ATOM     13  C   UNL     1       3.108   5.092  18.782  0.00  0.00    +0.000 A 
ATOM     14  C   UNL     1       3.874   5.494  17.687  0.00  0.00    +0.000 A 
ATOM     15  N   UNL     1       4.645   4.752  16.820  0.00  0.00    +0.000 N 
ATOM     16  H   UNL     1       4.764   3.750  16.868  0.00  0.00    +0.000 HD
BRANCH   7  21
ATOM     17  C   UNL     1       6.705   3.117  11.939  0.00  0.00    +0.000 C 
ATOM     18  C   UNL     1       6.691   4.022  13.104  0.00  0.00    +0.000 A 
ATOM     19  N   UNL     1       7.740   4.782  13.434  0.00  0.00    +0.000 NA
ATOM     20  O   UNL     1       7.286   5.474  14.558  0.00  0.00    +0.000 OA
ATOM     21  C   UNL     1       6.001   5.057  14.794  0.00  0.00    +0.000 A 
ATOM     22  N   UNL     1       5.596   4.156  13.921  0.00  0.00    +0.000 NA
ENDBRANCH   7  21
ENDBRANCH   1  11
BRANCH   3  23
ATOM     23  C   UNL     1      -0.165  10.128  22.561  0.00  0.00    +0.000 C 
ATOM     24  O   UNL     1       0.143   9.707  23.672  0.00  0.00    +0.000 OA
ATOM     25  N   UNL     1      -1.158  11.060  22.351  0.00  0.00    +0.000 N 
ATOM     26  H   UNL     1      -1.303  11.354  21.391  0.00  0.00    +0.000 HD
BRANCH  25  27
ATOM     27  C   UNL     1      -1.909  11.668  23.424  0.00  0.00    +0.000 C 
BRANCH  27  28
ATOM     28  C   UNL     1      -1.807  13.174  23.388  0.00  0.00    +0.000 A 
ATOM     29  C   UNL     1      -0.772  13.794  22.671  0.00  0.00    +0.000 A 
ATOM     30  C   UNL     1      -0.671  15.186  22.619  0.00  0.00    +0.000 A 
ATOM     31  C   UNL     1      -1.611  15.978  23.280  0.00  0.00    +0.000 A 
ATOM     32  C   UNL     1      -2.659  15.374  23.982  0.00  0.00    +0.000 A 
ATOM     33  C   UNL     1      -2.753  13.980  24.038  0.00  0.00    +0.000 A 
BRANCH  31  34
ATOM     34  C   UNL     1      -1.505  17.407  23.232  0.00  0.00    +0.000 C 
ATOM     35  N   UNL     1      -1.419  18.567  23.197  0.00  0.00    +0.000 NA
ENDBRANCH  31  34
ENDBRANCH  27  28
ENDBRANCH  25  27
ENDBRANCH   3  23
TORSDOF 6
ENDMDL
MODEL 4
REMARK VINA RESULT:      -7.9      5.641      7.861
REMARK  Name = 
REMARK  8 active torsions:
REMARK  status: ('A' for Active; 'I' for Inactive)
REMARK    1  A    between atoms: C_1  and  C_2
REMARK    2  A    between atoms: C_5  and  C_6
REMARK    3  A    between atoms: C_10  and  C_11
REMARK    4  A    between atoms: C_13  and  C_14
REMARK    5  A    between atoms: N_16  and  C_17
REMARK    6  A    between atoms: C_17  and  C_18
REMARK    7  A    between atoms: C_21  and  C_22
REMARK    8  A    between atoms: N_27  and  C_28
REMARK                            x       y       z     vdW  Elec       q    Type
REMARK                         _______ _______ _______ _____ _____    ______ ____
ROOT
ATOM      1  C   UNL     1       0.821  11.600  19.383  0.00  0.00    +0.000 A 
ATOM      2  C   UNL     1       1.673  12.695  19.437  0.00  0.00    +0.000 A 
ATOM      3  C   UNL     1       1.008  13.771  18.801  0.00  0.00    +0.000 A 
ATOM      4  N   UNL     1      -0.192  13.376  18.338  0.00  0.00    +0.000 NA
ATOM      5  N   UNL     1      -0.312  12.098  18.770  0.00  0.00    +0.000 N 
ATOM      6  C   UNL     1      -1.583  11.438  18.572  0.00  0.00    +0.000 C 
ENDROOT
BRANCH   1  11
ATOM      7  C   UNL     1       2.293   5.751  19.867  0.00  0.00    +0.000 A 
ATOM      8  C   UNL     1       2.429   6.779  18.956  0.00  0.00    +0.000 A 
ATOM      9  C   UNL     1       1.862   7.952  19.529  0.00  0.00    +0.000 A 
ATOM     10  C   UNL     1       1.683   9.280  19.081  0.00  0.00    +0.000 A 
ATOM     11  C   UNL     1       1.035  10.230  19.893  0.00  0.00    +0.000 A 
ATOM     12  C   UNL     1       0.571   9.819  21.150  0.00  0.00    +0.000 A 
ATOM     13  C   UNL     1       0.765   8.518  21.635  0.00  0.00    +0.000 A 
ATOM     14  C   UNL     1       1.404   7.606  20.796  0.00  0.00    +0.000 A 
ATOM     15  N   UNL     1       1.689   6.271  20.984  0.00  0.00    +0.000 N 
ATOM     16  H   UNL     1       1.457   5.744  21.814  0.00  0.00    +0.000 HD
BRANCH   7  21
ATOM     17  C   UNL     1       3.670   1.446  18.085  0.00  0.00    +0.000 C 
ATOM     18  C   UNL     1       3.257   2.502  19.029  0.00  0.00    +0.000 A 
ATOM     19  N   UNL     1       3.174   2.292  20.346  0.00  0.00    +0.000 NA
ATOM     20  O   UNL     1       2.779   3.537  20.838  0.00  0.00    +0.000 OA
ATOM     21  C   UNL     1       2.661   4.376  19.760  0.00  0.00    +0.000 A 
ATOM     22  N   UNL     1       2.943   3.774  18.621  0.00  0.00    +0.000 NA
ENDBRANCH   7  21
ENDBRANCH   1  11
BRANCH   3  23
ATOM     23  C   UNL     1       1.518  15.142  18.623  0.00  0.00    +0.000 C 
ATOM     24  O   UNL     1       0.779  16.121  18.595  0.00  0.00    +0.000 OA
ATOM     25  N   UNL     1       2.888  15.221  18.514  0.00  0.00    +0.000 N 
ATOM     26  H   UNL     1       3.397  14.345  18.581  0.00  0.00    +0.000 HD
BRANCH  25  27
ATOM     27  C   UNL     1       3.600  16.472  18.397  0.00  0.00    +0.000 C 
BRANCH  27  28
ATOM     28  C   UNL     1       5.095  16.264  18.401  0.00  0.00    +0.000 A 
ATOM     29  C   UNL     1       5.646  15.101  17.841  0.00  0.00    +0.000 A 
ATOM     30  C   UNL     1       7.027  14.899  17.825  0.00  0.00    +0.000 A 
ATOM     31  C   UNL     1       7.879  15.864  18.367  0.00  0.00    +0.000 A 
ATOM     32  C   UNL     1       7.345  17.036  18.910  0.00  0.00    +0.000 A 
ATOM     33  C   UNL     1       5.960  17.233  18.930  0.00  0.00    +0.000 A 
BRANCH  31  34
ATOM     34  C   UNL     1       9.297  15.655  18.357  0.00  0.00    +0.000 C 
ATOM     35  N   UNL     1      10.449  15.489  18.349  0.00  0.00    +0.000 NA
ENDBRANCH  31  34
ENDBRANCH  27  28
ENDBRANCH  25  27
ENDBRANCH   3  23
TORSDOF 6
ENDMDL
MODEL 5
REMARK VINA RESULT:      -7.8      2.406      3.330
REMARK  Name = 
REMARK  8 active torsions:
REMARK  status: ('A' for Active; 'I' for Inactive)
REMARK    1  A    between atoms: C_1  and  C_2
REMARK    2  A    between atoms: C_5  and  C_6
REMARK    3  A    between atoms: C_10  and  C_11
REMARK    4  A    between atoms: C_13  and  C_14
REMARK    5  A    between atoms: N_16  and  C_17
REMARK    6  A    between atoms: C_17  and  C_18
REMARK    7  A    between atoms: C_21  and  C_22
REMARK    8  A    between atoms: N_27  and  C_28
REMARK                            x       y       z     vdW  Elec       q    Type
REMARK                         _______ _______ _______ _____ _____    ______ ____
ROOT
ATOM      1  C   UNL     1       2.642   6.497  19.745  0.00  0.00    +0.000 A 
ATOM      2  C   UNL     1       2.235   7.823  19.798  0.00  0.00    +0.000 A 
ATOM      3  C   UNL     1       1.207   7.904  20.768  0.00  0.00    +0.000 A 
ATOM      4  N   UNL     1       0.950   6.689  21.285  0.00  0.00    +0.000 NA
ATOM      5  N   UNL     1       1.877   5.882  20.716  0.00  0.00    +0.000 N 
ATOM      6  C   UNL     1       1.972   4.522  21.198  0.00  0.00    +0.000 C 
ENDROOT
BRANCH   1  11
ATOM      7  C   UNL     1       5.957   4.708  15.009  0.00  0.00    +0.000 A 
ATOM      8  C   UNL     1       4.888   5.543  15.266  0.00  0.00    +0.000 A 
ATOM      9  C   UNL     1       4.640   5.520  16.668  0.00  0.00    +0.000 A 
ATOM     10  C   UNL     1       3.686   6.134  17.510  0.00  0.00    +0.000 A 
ATOM     11  C   UNL     1       3.679   5.877  18.895  0.00  0.00    +0.000 A 
ATOM     12  C   UNL     1       4.640   4.996  19.408  0.00  0.00    +0.000 A 
ATOM     13  C   UNL     1       5.621   4.400  18.603  0.00  0.00    +0.000 A 
ATOM     14  C   UNL     1       5.586   4.673  17.236  0.00  0.00    +0.000 A 
ATOM     15  N   UNL     1       6.383   4.205  16.214  0.00  0.00    +0.000 N 
ATOM     16  H   UNL     1       7.149   3.558  16.331  0.00  0.00    +0.000 HD
BRANCH   7  21
ATOM     17  C   UNL     1       7.222   2.303  10.982  0.00  0.00    +0.000 C 
ATOM     18  C   UNL     1       7.137   3.351  12.017  0.00  0.00    +0.000 A 
ATOM     19  N   UNL     1       7.782   4.517  11.911  0.00  0.00    +0.000 NA
ATOM     20  O   UNL     1       7.406   5.191  13.073  0.00  0.00    +0.000 OA
ATOM     21  C   UNL     1       6.568   4.356  13.769  0.00  0.00    +0.000 A 
ATOM     22  N   UNL     1       6.379   3.206  13.152  0.00  0.00    +0.000 NA
ENDBRANCH   7  21
ENDBRANCH   1  11
BRANCH   3  23
ATOM     23  C   UNL     1       0.472   9.113  21.177  0.00  0.00    +0.000 C 
ATOM     24  O   UNL     1      -0.180   9.169  22.216  0.00  0.00    +0.000 OA
ATOM     25  N   UNL     1       0.602  10.171  20.305  0.00  0.00    +0.000 N 
ATOM     26  H   UNL     1       1.192  10.015  19.493  0.00  0.00    +0.000 HD
BRANCH  25  27
ATOM     27  C   UNL     1       0.018  11.469  20.546  0.00  0.00    +0.000 C 
BRANCH  27  28
ATOM     28  C   UNL     1      -1.330  11.604  19.880  0.00  0.00    +0.000 A 
ATOM     29  C   UNL     1      -1.600  10.914  18.687  0.00  0.00    +0.000 A 
ATOM     30  C   UNL     1      -2.846  11.018  18.066  0.00  0.00    +0.000 A 
ATOM     31  C   UNL     1      -3.844  11.812  18.635  0.00  0.00    +0.000 A 
ATOM     32  C   UNL     1      -3.596  12.489  19.832  0.00  0.00    +0.000 A 
ATOM     33  C   UNL     1      -2.345  12.387  20.449  0.00  0.00    +0.000 A 
BRANCH  31  34
ATOM     34  C   UNL     1      -5.121  11.925  17.995  0.00  0.00    +0.000 C 
ATOM     35  N   UNL     1      -6.157  12.015  17.472  0.00  0.00    +0.000 NA
ENDBRANCH  31  34
ENDBRANCH  27  28
ENDBRANCH  25  27
ENDBRANCH   3  23
TORSDOF 6
ENDMDL
MODEL 6
REMARK VINA RESULT:      -7.8      1.840      2.300
REMARK  Name = 
REMARK  8 active torsions:
REMARK  status: ('A' for Active; 'I' for Inactive)
REMARK    1  A    between atoms: C_1  and  C_2
REMARK    2  A    between atoms: C_5  and  C_6
REMARK    3  A    between atoms: C_10  and  C_11
REMARK    4  A    between atoms: C_13  and  C_14
REMARK    5  A    between atoms: N_16  and  C_17
REMARK    6  A    between atoms: C_17  and  C_18
REMARK    7  A    between atoms: C_21  and  C_22
REMARK    8  A    between atoms: N_27  and  C_28
REMARK                            x       y       z     vdW  Elec       q    Type
REMARK                         _______ _______ _______ _____ _____    ______ ____
ROOT
ATOM      1  C   UNL     1       0.857   9.353  19.911  0.00  0.00    +0.000 A 
ATOM      2  C   UNL     1       0.084  10.247  19.184  0.00  0.00    +0.000 A 
ATOM      3  C   UNL     1      -0.616  11.049  20.119  0.00  0.00    +0.000 A 
ATOM      4  N   UNL     1      -0.328  10.667  21.376  0.00  0.00    +0.000 NA
ATOM      5  N   UNL     1       0.616   9.707  21.225  0.00  0.00    +0.000 N 
ATOM      6  C   UNL     1       1.261   9.204  22.417  0.00  0.00    +0.000 C 
ENDROOT
BRANCH   1  11
ATOM      7  C   UNL     1       4.816   6.173  16.621  0.00  0.00    +0.000 A 
ATOM      8  C   UNL     1       4.263   7.438  16.634  0.00  0.00    +0.000 A 
ATOM      9  C   UNL     1       3.395   7.527  17.759  0.00  0.00    +0.000 A 
ATOM     10  C   UNL     1       2.549   8.534  18.274  0.00  0.00    +0.000 A 
ATOM     11  C   UNL     1       1.766   8.297  19.420  0.00  0.00    +0.000 A 
ATOM     12  C   UNL     1       1.848   7.038  20.029  0.00  0.00    +0.000 A 
ATOM     13  C   UNL     1       2.704   6.031  19.561  0.00  0.00    +0.000 A 
ATOM     14  C   UNL     1       3.456   6.303  18.417  0.00  0.00    +0.000 A 
ATOM     15  N   UNL     1       4.334   5.504  17.718  0.00  0.00    +0.000 N 
ATOM     16  H   UNL     1       4.565   4.551  17.962  0.00  0.00    +0.000 HD
BRANCH   7  21
ATOM     17  C   UNL     1       6.599   3.638  12.880  0.00  0.00    +0.000 C 
ATOM     18  C   UNL     1       6.521   4.493  14.079  0.00  0.00    +0.000 A 
ATOM     19  N   UNL     1       7.601   5.052  14.633  0.00  0.00    +0.000 NA
ATOM     20  O   UNL     1       7.069   5.774  15.702  0.00  0.00    +0.000 OA
ATOM     21  C   UNL     1       5.712   5.574  15.686  0.00  0.00    +0.000 A 
ATOM     22  N   UNL     1       5.332   4.784  14.701  0.00  0.00    +0.000 NA
ENDBRANCH   7  21
ENDBRANCH   1  11
BRANCH   3  23
ATOM     23  C   UNL     1      -1.555  12.142  19.815  0.00  0.00    +0.000 C 
ATOM     24  O   UNL     1      -1.227  13.131  19.166  0.00  0.00    +0.000 OA
ATOM     25  N   UNL     1      -2.827  11.943  20.305  0.00  0.00    +0.000 N 
ATOM     26  H   UNL     1      -2.986  11.073  20.802  0.00  0.00    +0.000 HD
BRANCH  25  27
ATOM     27  C   UNL     1      -3.916  12.860  20.067  0.00  0.00    +0.000 C 
BRANCH  27  28
ATOM     28  C   UNL     1      -4.119  13.796  21.233  0.00  0.00    +0.000 A 
ATOM     29  C   UNL     1      -3.426  13.586  22.435  0.00  0.00    +0.000 A 
ATOM     30  C   UNL     1      -3.593  14.451  23.519  0.00  0.00    +0.000 A 
ATOM     31  C   UNL     1      -4.454  15.544  23.411  0.00  0.00    +0.000 A 
ATOM     32  C   UNL     1      -5.136  15.778  22.213  0.00  0.00    +0.000 A 
ATOM     33  C   UNL     1      -4.971  14.906  21.132  0.00  0.00    +0.000 A 
BRANCH  31  34
ATOM     34  C   UNL     1      -4.632  16.429  24.525  0.00  0.00    +0.000 C 
ATOM     35  N   UNL     1      -4.772  17.148  25.430  0.00  0.00    +0.000 NA
ENDBRANCH  31  34
ENDBRANCH  27  28
ENDBRANCH  25  27
ENDBRANCH   3  23
TORSDOF 6
ENDMDL
MODEL 7
REMARK VINA RESULT:      -7.8      2.945      4.103
REMARK  Name = 
REMARK  8 active torsions:
REMARK  status: ('A' for Active; 'I' for Inactive)
REMARK    1  A    between atoms: C_1  and  C_2
REMARK    2  A    between atoms: C_5  and  C_6
REMARK    3  A    between atoms: C_10  and  C_11
REMARK    4  A    between atoms: C_13  and  C_14
REMARK    5  A    between atoms: N_16  and  C_17
REMARK    6  A    between atoms: C_17  and  C_18
REMARK    7  A    between atoms: C_21  and  C_22
REMARK    8  A    between atoms: N_27  and  C_28
REMARK                            x       y       z     vdW  Elec       q    Type
REMARK                         _______ _______ _______ _____ _____    ______ ____
ROOT
ATOM      1  C   UNL     1      -0.692  10.898  19.905  0.00  0.00    +0.000 A 
ATOM      2  C   UNL     1      -0.778  12.006  20.736  0.00  0.00    +0.000 A 
ATOM      3  C   UNL     1      -1.840  12.808  20.251  0.00  0.00    +0.000 A 
ATOM      4  N   UNL     1      -2.383  12.257  19.151  0.00  0.00    +0.000 NA
ATOM      5  N   UNL     1      -1.733  11.076  19.014  0.00  0.00    +0.000 N 
ATOM      6  C   UNL     1      -2.210  10.159  18.003  0.00  0.00    +0.000 C 
ENDROOT
BRANCH   1  11
ATOM      7  C   UNL     1       3.434   6.697  18.511  0.00  0.00    +0.000 A 
ATOM      8  C   UNL     1       2.867   7.818  17.939  0.00  0.00    +0.000 A 
ATOM      9  C   UNL     1       1.953   8.376  18.878  0.00  0.00    +0.000 A 
ATOM     10  C   UNL     1       1.075   9.482  18.861  0.00  0.00    +0.000 A 
ATOM     11  C   UNL     1       0.249   9.760  19.967  0.00  0.00    +0.000 A 
ATOM     12  C   UNL     1       0.321   8.908  21.077  0.00  0.00    +0.000 A 
ATOM     13  C   UNL     1       1.207   7.823  21.137  0.00  0.00    +0.000 A 
ATOM     14  C   UNL     1       2.001   7.577  20.016  0.00  0.00    +0.000 A 
ATOM     15  N   UNL     1       2.916   6.576  19.776  0.00  0.00    +0.000 N 
ATOM     16  H   UNL     1       3.148   5.839  20.428  0.00  0.00    +0.000 HD
BRANCH   7  21
ATOM     17  C   UNL     1       5.959   3.920  15.425  0.00  0.00    +0.000 C 
ATOM     18  C   UNL     1       5.490   4.558  16.670  0.00  0.00    +0.000 A 
ATOM     19  N   UNL     1       6.073   4.337  17.852  0.00  0.00    +0.000 NA
ATOM     20  O   UNL     1       5.336   5.142  18.722  0.00  0.00    +0.000 OA
ATOM     21  C   UNL     1       4.375   5.769  17.971  0.00  0.00    +0.000 A 
ATOM     22  N   UNL     1       4.432   5.433  16.697  0.00  0.00    +0.000 NA
ENDBRANCH   7  21
ENDBRANCH   1  11
BRANCH   3  23
ATOM     23  C   UNL     1      -2.310  14.084  20.816  0.00  0.00    +0.000 C 
ATOM     24  O   UNL     1      -1.906  15.172  20.416  0.00  0.00    +0.000 OA
ATOM     25  N   UNL     1      -3.253  13.944  21.811  0.00  0.00    +0.000 N 
ATOM     26  H   UNL     1      -3.531  12.995  22.037  0.00  0.00    +0.000 HD
BRANCH  25  27
ATOM     27  C   UNL     1      -3.893  15.067  22.455  0.00  0.00    +0.000 C 
BRANCH  27  28
ATOM     28  C   UNL     1      -3.080  15.576  23.620  0.00  0.00    +0.000 A 
ATOM     29  C   UNL     1      -2.626  16.905  23.636  0.00  0.00    +0.000 A 
ATOM     30  C   UNL     1      -1.884  17.395  24.712  0.00  0.00    +0.000 A 
ATOM     31  C   UNL     1      -1.590  16.561  25.793  0.00  0.00    +0.000 A 
ATOM     32  C   UNL     1      -2.052  15.243  25.800  0.00  0.00    +0.000 A 
ATOM     33  C   UNL     1      -2.791  14.753  24.718  0.00  0.00    +0.000 A 
BRANCH  31  34
ATOM     34  C   UNL     1      -0.822  17.062  26.895  0.00  0.00    +0.000 C 
ATOM     35  N   UNL     1      -0.201  17.470  27.791  0.00  0.00    +0.000 NA
ENDBRANCH  31  34
ENDBRANCH  27  28
ENDBRANCH  25  27
ENDBRANCH   3  23
TORSDOF 6
ENDMDL
MODEL 8
REMARK VINA RESULT:      -7.7      2.279     12.546
REMARK  Name = 
REMARK  8 active torsions:
REMARK  status: ('A' for Active; 'I' for Inactive)
REMARK    1  A    between atoms: C_1  and  C_2
REMARK    2  A    between atoms: C_5  and  C_6
REMARK    3  A    between atoms: C_10  and  C_11
REMARK    4  A    between atoms: C_13  and  C_14
REMARK    5  A    between atoms: N_16  and  C_17
REMARK    6  A    between atoms: C_17  and  C_18
REMARK    7  A    between atoms: C_21  and  C_22
REMARK    8  A    between atoms: N_27  and  C_28
REMARK                            x       y       z     vdW  Elec       q    Type
REMARK                         _______ _______ _______ _____ _____    ______ ____
ROOT
ATOM      1  C   UNL     1       2.070   8.333  18.884  0.00  0.00    +0.000 A 
ATOM      2  C   UNL     1       2.975   8.424  17.836  0.00  0.00    +0.000 A 
ATOM      3  C   UNL     1       3.759   7.245  17.858  0.00  0.00    +0.000 A 
ATOM      4  N   UNL     1       3.394   6.456  18.885  0.00  0.00    +0.000 NA
ATOM      5  N   UNL     1       2.330   7.091  19.432  0.00  0.00    +0.000 N 
ATOM      6  C   UNL     1       1.597   6.403  20.471  0.00  0.00    +0.000 C 
ENDROOT
BRANCH   1  11
ATOM      7  C   UNL     1      -1.633  11.802  22.180  0.00  0.00    +0.000 A 
ATOM      8  C   UNL     1      -0.558  10.959  22.378  0.00  0.00    +0.000 A 
ATOM      9  C   UNL     1      -0.130  10.486  21.105  0.00  0.00    +0.000 A 
ATOM     10  C   UNL     1       0.880   9.599  20.672  0.00  0.00    +0.000 A 
ATOM     11  C   UNL     1       1.034   9.298  19.305  0.00  0.00    +0.000 A 
ATOM     12  C   UNL     1       0.157   9.899  18.393  0.00  0.00    +0.000 A 
ATOM     13  C   UNL     1      -0.832  10.810  18.789  0.00  0.00    +0.000 A 
ATOM     14  C   UNL     1      -0.958  11.074  20.153  0.00  0.00    +0.000 A 
ATOM     15  N   UNL     1      -1.851  11.878  20.827  0.00  0.00    +0.000 N 
ATOM     16  H   UNL     1      -2.581  12.420  20.388  0.00  0.00    +0.000 HD
BRANCH   7  21
ATOM     17  C   UNL     1      -3.583  15.302  24.928  0.00  0.00    +0.000 C 
ATOM     18  C   UNL     1      -3.310  13.980  24.331  0.00  0.00    +0.000 A 
ATOM     19  N   UNL     1      -4.019  12.892  24.647  0.00  0.00    +0.000 NA
ATOM     20  O   UNL     1      -3.445  11.901  23.849  0.00  0.00    +0.000 OA
ATOM     21  C   UNL     1      -2.441  12.496  23.130  0.00  0.00    +0.000 A 
ATOM     22  N   UNL     1      -2.321  13.781  23.401  0.00  0.00    +0.000 NA
ENDBRANCH   7  21
ENDBRANCH   1  11
BRANCH   3  23
ATOM     23  C   UNL     1       4.846   6.890  16.930  0.00  0.00    +0.000 C 
ATOM     24  O   UNL     1       4.828   7.204  15.743  0.00  0.00    +0.000 OA
ATOM     25  N   UNL     1       5.882   6.199  17.517  0.00  0.00    +0.000 N 
ATOM     26  H   UNL     1       5.799   6.022  18.513  0.00  0.00    +0.000 HD
BRANCH  25  27
ATOM     27  C   UNL     1       7.076   5.810  16.803  0.00  0.00    +0.000 C 
BRANCH  27  28
ATOM     28  C   UNL     1       6.747   5.011  15.565  0.00  0.00    +0.000 A 
ATOM     29  C   UNL     1       5.779   3.996  15.617  0.00  0.00    +0.000 A 
ATOM     30  C   UNL     1       5.455   3.257  14.478  0.00  0.00    +0.000 A 
ATOM     31  C   UNL     1       6.093   3.529  13.266  0.00  0.00    +0.000 A 
ATOM     32  C   UNL     1       7.045   4.550  13.195  0.00  0.00    +0.000 A 
ATOM     33  C   UNL     1       7.372   5.285  14.339  0.00  0.00    +0.000 A 
BRANCH  31  34
ATOM     34  C   UNL     1       5.766   2.766  12.097  0.00  0.00    +0.000 C 
ATOM     35  N   UNL     1       5.501   2.144  11.150  0.00  0.00    +0.000 NA
ENDBRANCH  31  34
ENDBRANCH  27  28
ENDBRANCH  25  27
ENDBRANCH   3  23
TORSDOF 6
ENDMDL
MODEL 9
REMARK VINA RESULT:      -7.7      5.345      6.833
REMARK  Name = 
REMARK  8 active torsions:
REMARK  status: ('A' for Active; 'I' for Inactive)
REMARK    1  A    between atoms: C_1  and  C_2
REMARK    2  A    between atoms: C_5  and  C_6
REMARK    3  A    between atoms: C_10  and  C_11
REMARK    4  A    between atoms: C_13  and  C_14
REMARK    5  A    between atoms: N_16  and  C_17
REMARK    6  A    between atoms: C_17  and  C_18
REMARK    7  A    between atoms: C_21  and  C_22
REMARK    8  A    between atoms: N_27  and  C_28
REMARK                            x       y       z     vdW  Elec       q    Type
REMARK                         _______ _______ _______ _____ _____    ______ ____
ROOT
ATOM      1  C   UNL     1       0.280  11.499  19.276  0.00  0.00    +0.000 A 
ATOM      2  C   UNL     1       0.816  12.755  19.524  0.00  0.00    +0.000 A 
ATOM      3  C   UNL     1      -0.013  13.698  18.868  0.00  0.00    +0.000 A 
ATOM      4  N   UNL     1      -1.008  13.075  18.211  0.00  0.00    +0.000 NA
ATOM      5  N   UNL     1      -0.857  11.769  18.539  0.00  0.00    +0.000 N 
ATOM      6  C   UNL     1      -1.887  10.846  18.117  0.00  0.00    +0.000 C 
ENDROOT
BRANCH   1  11
ATOM      7  C   UNL     1       2.856   6.028  19.486  0.00  0.00    +0.000 A 
ATOM      8  C   UNL     1       2.771   7.098  18.617  0.00  0.00    +0.000 A 
ATOM      9  C   UNL     1       2.004   8.117  19.250  0.00  0.00    +0.000 A 
ATOM     10  C   UNL     1       1.563   9.402  18.862  0.00  0.00    +0.000 A 
ATOM     11  C   UNL     1       0.764  10.177  19.725  0.00  0.00    +0.000 A 
ATOM     12  C   UNL     1       0.418   9.636  20.970  0.00  0.00    +0.000 A 
ATOM     13  C   UNL     1       0.869   8.379  21.396  0.00  0.00    +0.000 A 
ATOM     14  C   UNL     1       1.651   7.640  20.508  0.00  0.00    +0.000 A 
ATOM     15  N   UNL     1       2.191   6.379  20.634  0.00  0.00    +0.000 N 
ATOM     16  H   UNL     1       2.084   5.785  21.444  0.00  0.00    +0.000 HD
BRANCH   7  21
ATOM     17  C   UNL     1       3.619   1.345  18.441  0.00  0.00    +0.000 C 
ATOM     18  C   UNL     1       3.848   2.738  18.871  0.00  0.00    +0.000 A 
ATOM     19  N   UNL     1       5.051   3.184  19.245  0.00  0.00    +0.000 NA
ATOM     20  O   UNL     1       4.812   4.527  19.539  0.00  0.00    +0.000 OA
ATOM     21  C   UNL     1       3.478   4.755  19.314  0.00  0.00    +0.000 A 
ATOM     22  N   UNL     1       2.844   3.674  18.904  0.00  0.00    +0.000 NA
ENDBRANCH   7  21
ENDBRANCH   1  11
BRANCH   3  23
ATOM     23  C   UNL     1       0.156  15.161  18.853  0.00  0.00    +0.000 C 
ATOM     24  O   UNL     1      -0.779  15.934  19.045  0.00  0.00    +0.000 OA
ATOM     25  N   UNL     1       1.450  15.575  18.628  0.00  0.00    +0.000 N 
ATOM     26  H   UNL     1       2.143  14.843  18.512  0.00  0.00    +0.000 HD
BRANCH  25  27
ATOM     27  C   UNL     1       1.847  16.963  18.637  0.00  0.00    +0.000 C 
BRANCH  27  28
ATOM     28  C   UNL     1       3.237  17.140  19.197  0.00  0.00    +0.000 A 
ATOM     29  C   UNL     1       3.419  17.710  20.467  0.00  0.00    +0.000 A 
ATOM     30  C   UNL     1       4.697  17.868  21.005  0.00  0.00    +0.000 A 
ATOM     31  C   UNL     1       5.815  17.452  20.279  0.00  0.00    +0.000 A 
ATOM     32  C   UNL     1       5.648  16.864  19.022  0.00  0.00    +0.000 A 
ATOM     33  C   UNL     1       4.366  16.712  18.483  0.00  0.00    +0.000 A 
BRANCH  31  34
ATOM     34  C   UNL     1       7.129  17.620  20.827  0.00  0.00    +0.000 C 
ATOM     35  N   UNL     1       8.197  17.754  21.270  0.00  0.00    +0.000 NA
ENDBRANCH  31  34
ENDBRANCH  27  28
ENDBRANCH  25  27
ENDBRANCH   3  23
TORSDOF 6
ENDMDL
