MODEL 1
REMARK VINA RESULT:      -6.2      0.000      0.000
REMARK  Name = 
REMARK  17 active torsions:
REMARK  status: ('A' for Active; 'I' for Inactive)
REMARK    1  A    between atoms: C_1  and  O_2
REMARK    2  A    between atoms: O_2  and  C_3
REMARK    3  A    between atoms: C_6  and  C_7
REMARK    4  A    between atoms: C_7  and  N_8
REMARK    5  A    between atoms: N_8  and  C_9
REMARK    6  A    between atoms: C_9  and  C_10
REMARK    7  A    between atoms: C_10  and  C_11
REMARK    8  A    between atoms: C_11  and  C_12
REMARK    9  A    between atoms: C_12  and  C_13
REMARK   10  A    between atoms: C_13  and  C_14
REMARK   11  A    between atoms: C_14  and  C_15
REMARK   12  A    between atoms: C_15  and  C_16
REMARK   13  A    between atoms: C_16  and  N_17
REMARK   14  A    between atoms: N_17  and  C_18
REMARK   15  A    between atoms: C_18  and  C_19
REMARK   16  A    between atoms: C_22  and  O_23
REMARK   17  A    between atoms: O_23  and  C_24
REMARK                            x       y       z     vdW  Elec       q    Type
REMARK                         _______ _______ _______ _____ _____    ______ ____
ROOT
ATOM      1  C   UNL     1       2.422   6.551  19.625  0.00  0.00    +0.000 C 
ENDROOT
BRANCH   1   2
ATOM      2  C   UNL     1       2.641   7.336  18.339  0.00  0.00    +0.000 C 
BRANCH   2   3
ATOM      3  C   UNL     1       1.878   8.651  18.389  0.00  0.00    +0.000 C 
BRANCH   3   4
ATOM      4  C   UNL     1       1.462   8.975  19.818  0.00  0.00    +0.000 C 
BRANCH   4   5
ATOM      5  N   UNL     1       0.232   9.750  19.763  0.00  0.00    +0.000 NA
ATOM      6  H   UNL     1      -0.563   9.170  20.028  0.00  0.00    +0.000 HD
BRANCH   5   7
ATOM      7  C   UNL     1      -0.013  10.280  18.421  0.00  0.00    +0.000 C 
BRANCH   7  11
ATOM      8  C   UNL     1      -4.201  11.211  17.847  0.00  0.00    +0.000 A 
ATOM      9  C   UNL     1      -3.463  11.845  18.843  0.00  0.00    +0.000 A 
ATOM     10  C   UNL     1      -2.112  11.546  19.022  0.00  0.00    +0.000 A 
ATOM     11  C   UNL     1      -1.480  10.583  18.221  0.00  0.00    +0.000 A 
ATOM     12  C   UNL     1      -2.231   9.931  17.234  0.00  0.00    +0.000 A 
ATOM     13  C   UNL     1      -3.586  10.243  17.046  0.00  0.00    +0.000 A 
BRANCH   8  15
ATOM     14  C   UNL     1      -6.433  10.776  18.477  0.00  0.00    +0.000 C 
ATOM     15  O   UNL     1      -5.513  11.598  17.771  0.00  0.00    +0.000 OA
ENDBRANCH   8  15
ENDBRANCH   7  11
ENDBRANCH   5   7
ENDBRANCH   4   5
ENDBRANCH   3   4
ENDBRANCH   2   3
ENDBRANCH   1   2
BRANCH   1  16
ATOM     16  C   UNL     1       1.623   5.288  19.336  0.00  0.00    +0.000 C 
BRANCH  16  17
ATOM     17  C   UNL     1       1.215   4.617  20.635  0.00  0.00    +0.000 C 
BRANCH  17  18
ATOM     18  C   UNL     1       1.114   3.112  20.441  0.00  0.00    +0.000 C 
BRANCH  18  19
ATOM     19  C   UNL     1       2.037   2.391  21.413  0.00  0.00    +0.000 C 
BRANCH  19  20
ATOM     20  N   UNL     1       3.380   2.932  21.259  0.00  0.00    +0.000 NA
ATOM     21  H   UNL     1       3.894   2.825  22.132  0.00  0.00    +0.000 HD
BRANCH  20  22
ATOM     22  C   UNL     1       4.102   2.218  20.203  0.00  0.00    +0.000 C 
BRANCH  22  23
ATOM     23  C   UNL     1       4.428   3.132  19.046  0.00  0.00    +0.000 A 
ATOM     24  C   UNL     1       3.887   2.894  17.777  0.00  0.00    +0.000 A 
ATOM     25  C   UNL     1       4.232   3.712  16.696  0.00  0.00    +0.000 A 
ATOM     26  C   UNL     1       5.086   4.800  16.874  0.00  0.00    +0.000 A 
ATOM     27  C   UNL     1       5.613   5.060  18.136  0.00  0.00    +0.000 A 
ATOM     28  C   UNL     1       5.282   4.234  19.217  0.00  0.00    +0.000 A 
BRANCH  26  29
ATOM     29  O   UNL     1       5.370   5.505  15.735  0.00  0.00    +0.000 OA
ATOM     30  C   UNL     1       6.201   4.839  14.791  0.00  0.00    +0.000 C 
ENDBRANCH  26  29
ENDBRANCH  22  23
ENDBRANCH  20  22
ENDBRANCH  19  20
ENDBRANCH  18  19
ENDBRANCH  17  18
ENDBRANCH  16  17
ENDBRANCH   1  16
TORSDOF 15
ENDMDL
MODEL 2
REMARK VINA RESULT:      -6.2      1.727      2.553
REMARK  Name = 
REMARK  17 active torsions:
REMARK  status: ('A' for Active; 'I' for Inactive)
REMARK    1  A    between atoms: C_1  and  O_2
REMARK    2  A    between atoms: O_2  and  C_3
REMARK    3  A    between atoms: C_6  and  C_7
REMARK    4  A    between atoms: C_7  and  N_8
REMARK    5  A    between atoms: N_8  and  C_9
REMARK    6  A    between atoms: C_9  and  C_10
REMARK    7  A    between atoms: C_10  and  C_11
REMARK    8  A    between atoms: C_11  and  C_12
REMARK    9  A    between atoms: C_12  and  C_13
REMARK   10  A    between atoms: C_13  and  C_14
REMARK   11  A    between atoms: C_14  and  C_15
REMARK   12  A    between atoms: C_15  and  C_16
REMARK   13  A    between atoms: C_16  and  N_17
REMARK   14  A    between atoms: N_17  and  C_18
REMARK   15  A    between atoms: C_18  and  C_19
REMARK   16  A    between atoms: C_22  and  O_23
REMARK   17  A    between atoms: O_23  and  C_24
REMARK                            x       y       z     vdW  Elec       q    Type
REMARK                         _______ _______ _______ _____ _____    ______ ____
ROOT
ATOM      1  C   UNL     1       2.089   6.818  20.257  0.00  0.00    +0.000 C 
ENDROOT
BRANCH   1   2
ATOM      2  C   UNL     1       0.996   7.402  21.142  0.00  0.00    +0.000 C 
BRANCH   2   3
ATOM      3  C   UNL     1       1.363   8.814  21.570  0.00  0.00    +0.000 C 
BRANCH   3   4
ATOM      4  C   UNL     1       0.414   9.308  22.654  0.00  0.00    +0.000 C 
BRANCH   4   5
ATOM      5  N   UNL     1      -0.339  10.431  22.114  0.00  0.00    +0.000 NA
ATOM      6  H   UNL     1      -1.283  10.137  21.867  0.00  0.00    +0.000 HD
BRANCH   5   7
ATOM      7  C   UNL     1       0.299  10.985  20.919  0.00  0.00    +0.000 C 
BRANCH   7  11
ATOM      8  C   UNL     1      -2.483  11.052  17.604  0.00  0.00    +0.000 A 
ATOM      9  C   UNL     1      -1.320  10.290  17.539  0.00  0.00    +0.000 A 
ATOM     10  C   UNL     1      -0.428  10.266  18.612  0.00  0.00    +0.000 A 
ATOM     11  C   UNL     1      -0.672  11.031  19.763  0.00  0.00    +0.000 A 
ATOM     12  C   UNL     1      -1.834  11.814  19.816  0.00  0.00    +0.000 A 
ATOM     13  C   UNL     1      -2.736  11.825  18.743  0.00  0.00    +0.000 A 
BRANCH   8  15
ATOM     14  C   UNL     1      -3.023   9.880  15.629  0.00  0.00    +0.000 C 
ATOM     15  O   UNL     1      -3.276  10.983  16.490  0.00  0.00    +0.000 OA
ENDBRANCH   8  15
ENDBRANCH   7  11
ENDBRANCH   5   7
ENDBRANCH   4   5
ENDBRANCH   3   4
ENDBRANCH   2   3
ENDBRANCH   1   2
BRANCH   1  16
ATOM     16  C   UNL     1       1.765   5.372  19.912  0.00  0.00    +0.000 C 
BRANCH  16  17
ATOM     17  C   UNL     1       1.882   4.499  21.149  0.00  0.00    +0.000 C 
BRANCH  17  18
ATOM     18  C   UNL     1       1.244   3.142  20.897  0.00  0.00    +0.000 C 
BRANCH  18  19
ATOM     19  C   UNL     1       1.030   2.927  19.406  0.00  0.00    +0.000 C 
BRANCH  19  20
ATOM     20  N   UNL     1       1.770   1.741  19.002  0.00  0.00    +0.000 NA
ATOM     21  H   UNL     1       1.125   0.964  18.867  0.00  0.00    +0.000 HD
BRANCH  20  22
ATOM     22  C   UNL     1       2.477   1.983  17.741  0.00  0.00    +0.000 C 
BRANCH  22  23
ATOM     23  C   UNL     1       3.528   3.057  17.898  0.00  0.00    +0.000 A 
ATOM     24  C   UNL     1       4.397   3.045  18.995  0.00  0.00    +0.000 A 
ATOM     25  C   UNL     1       5.335   4.070  19.165  0.00  0.00    +0.000 A 
ATOM     26  C   UNL     1       5.445   5.093  18.225  0.00  0.00    +0.000 A 
ATOM     27  C   UNL     1       4.600   5.103  17.117  0.00  0.00    +0.000 A 
ATOM     28  C   UNL     1       3.651   4.088  16.952  0.00  0.00    +0.000 A 
BRANCH  26  29
ATOM     29  O   UNL     1       6.379   6.051  18.519  0.00  0.00    +0.000 OA
ATOM     30  C   UNL     1       7.710   5.580  18.689  0.00  0.00    +0.000 C 
ENDBRANCH  26  29
ENDBRANCH  22  23
ENDBRANCH  20  22
ENDBRANCH  19  20
ENDBRANCH  18  19
ENDBRANCH  17  18
ENDBRANCH  16  17
ENDBRANCH   1  16
TORSDOF 15
ENDMDL
MODEL 3
REMARK VINA RESULT:      -6.1      1.516      2.343
REMARK  Name = 
REMARK  17 active torsions:
REMARK  status: ('A' for Active; 'I' for Inactive)
REMARK    1  A    between atoms: C_1  and  O_2
REMARK    2  A    between atoms: O_2  and  C_3
REMARK    3  A    between atoms: C_6  and  C_7
REMARK    4  A    between atoms: C_7  and  N_8
REMARK    5  A    between atoms: N_8  and  C_9
REMARK    6  A    between atoms: C_9  and  C_10
REMARK    7  A    between atoms: C_10  and  C_11
REMARK    8  A    between atoms: C_11  and  C_12
REMARK    9  A    between atoms: C_12  and  C_13
REMARK   10  A    between atoms: C_13  and  C_14
REMARK   11  A    between atoms: C_14  and  C_15
REMARK   12  A    between atoms: C_15  and  C_16
REMARK   13  A    between atoms: C_16  and  N_17
REMARK   14  A    between atoms: N_17  and  C_18
REMARK   15  A    between atoms: C_18  and  C_19
REMARK   16  A    between atoms: C_22  and  O_23
REMARK   17  A    between atoms: O_23  and  C_24
REMARK                            x       y       z     vdW  Elec       q    Type
REMARK                         _______ _______ _______ _____ _____    ______ ____
ROOT
ATOM      1  C   UNL     1       3.375   7.372  17.897  0.00  0.00    +0.000 C 
ENDROOT
BRANCH   1   2
ATOM      2  C   UNL     1       2.780   8.746  17.622  0.00  0.00    +0.000 C 
BRANCH   2   3
ATOM      3  C   UNL     1       1.283   8.735  17.893  0.00  0.00    +0.000 C 
BRANCH   3   4
ATOM      4  C   UNL     1       0.899   9.881  18.821  0.00  0.00    +0.000 C 
BRANCH   4   5
ATOM      5  N   UNL     1       0.025  10.781  18.084  0.00  0.00    +0.000 NA
ATOM      6  H   UNL     1      -0.295  11.537  18.689  0.00  0.00    +0.000 HD
BRANCH   5   7
ATOM      7  C   UNL     1      -1.150  10.084  17.560  0.00  0.00    +0.000 C 
BRANCH   7  11
ATOM      8  C   UNL     1      -4.825  11.874  18.983  0.00  0.00    +0.000 A 
ATOM      9  C   UNL     1      -4.851  10.878  18.010  0.00  0.00    +0.000 A 
ATOM     10  C   UNL     1      -3.665  10.300  17.558  0.00  0.00    +0.000 A 
ATOM     11  C   UNL     1      -2.424  10.730  18.053  0.00  0.00    +0.000 A 
ATOM     12  C   UNL     1      -2.401  11.748  19.016  0.00  0.00    +0.000 A 
ATOM     13  C   UNL     1      -3.595  12.318  19.479  0.00  0.00    +0.000 A 
BRANCH   8  15
ATOM     14  C   UNL     1      -6.321  13.700  18.972  0.00  0.00    +0.000 C 
ATOM     15  O   UNL     1      -6.056  12.353  19.344  0.00  0.00    +0.000 OA
ENDBRANCH   8  15
ENDBRANCH   7  11
ENDBRANCH   5   7
ENDBRANCH   4   5
ENDBRANCH   3   4
ENDBRANCH   2   3
ENDBRANCH   1   2
BRANCH   1  16
ATOM     16  C   UNL     1       2.288   6.417  18.368  0.00  0.00    +0.000 C 
BRANCH  16  17
ATOM     17  C   UNL     1       2.620   5.885  19.751  0.00  0.00    +0.000 C 
BRANCH  17  18
ATOM     18  C   UNL     1       1.748   4.684  20.076  0.00  0.00    +0.000 C 
BRANCH  18  19
ATOM     19  C   UNL     1       1.898   3.615  19.004  0.00  0.00    +0.000 C 
BRANCH  19  20
ATOM     20  N   UNL     1       3.256   3.094  19.062  0.00  0.00    +0.000 NA
ATOM     21  H   UNL     1       3.258   2.197  19.547  0.00  0.00    +0.000 HD
BRANCH  20  22
ATOM     22  C   UNL     1       3.786   2.892  17.711  0.00  0.00    +0.000 C 
BRANCH  22  23
ATOM     23  C   UNL     1       4.830   3.930  17.371  0.00  0.00    +0.000 A 
ATOM     24  C   UNL     1       5.718   4.392  18.349  0.00  0.00    +0.000 A 
ATOM     25  C   UNL     1       6.649   5.390  18.044  0.00  0.00    +0.000 A 
ATOM     26  C   UNL     1       6.735   5.909  16.753  0.00  0.00    +0.000 A 
ATOM     27  C   UNL     1       5.873   5.441  15.765  0.00  0.00    +0.000 A 
ATOM     28  C   UNL     1       4.929   4.453  16.071  0.00  0.00    +0.000 A 
BRANCH  26  29
ATOM     29  O   UNL     1       7.665   6.901  16.588  0.00  0.00    +0.000 OA
ATOM     30  C   UNL     1       7.671   7.911  17.591  0.00  0.00    +0.000 C 
ENDBRANCH  26  29
ENDBRANCH  22  23
ENDBRANCH  20  22
ENDBRANCH  19  20
ENDBRANCH  18  19
ENDBRANCH  17  18
ENDBRANCH  16  17
ENDBRANCH   1  16
TORSDOF 15
ENDMDL
MODEL 4
REMARK VINA RESULT:      -6.0      1.697      2.560
REMARK  Name = 
REMARK  17 active torsions:
REMARK  status: ('A' for Active; 'I' for Inactive)
REMARK    1  A    between atoms: C_1  and  O_2
REMARK    2  A    between atoms: O_2  and  C_3
REMARK    3  A    between atoms: C_6  and  C_7
REMARK    4  A    between atoms: C_7  and  N_8
REMARK    5  A    between atoms: N_8  and  C_9
REMARK    6  A    between atoms: C_9  and  C_10
REMARK    7  A    between atoms: C_10  and  C_11
REMARK    8  A    between atoms: C_11  and  C_12
REMARK    9  A    between atoms: C_12  and  C_13
REMARK   10  A    between atoms: C_13  and  C_14
REMARK   11  A    between atoms: C_14  and  C_15
REMARK   12  A    between atoms: C_15  and  C_16
REMARK   13  A    between atoms: C_16  and  N_17
REMARK   14  A    between atoms: N_17  and  C_18
REMARK   15  A    between atoms: C_18  and  C_19
REMARK   16  A    between atoms: C_22  and  O_23
REMARK   17  A    between atoms: O_23  and  C_24
REMARK                            x       y       z     vdW  Elec       q    Type
REMARK                         _______ _______ _______ _____ _____    ______ ____
ROOT
ATOM      1  C   UNL     1       2.272   4.658  21.072  0.00  0.00    +0.000 C 
ENDROOT
BRANCH   1   2
ATOM      2  C   UNL     1       1.536   5.929  20.671  0.00  0.00    +0.000 C 
BRANCH   2   3
ATOM      3  C   UNL     1       2.399   6.765  19.739  0.00  0.00    +0.000 C 
BRANCH   3   4
ATOM      4  C   UNL     1       1.914   8.209  19.713  0.00  0.00    +0.000 C 
BRANCH   4   5
ATOM      5  N   UNL     1       1.792   8.616  18.321  0.00  0.00    +0.000 NA
ATOM      6  H   UNL     1       2.598   8.293  17.786  0.00  0.00    +0.000 HD
BRANCH   5   7
ATOM      7  C   UNL     1       1.707  10.071  18.190  0.00  0.00    +0.000 C 
BRANCH   7  11
ATOM      8  C   UNL     1      -2.329  11.504  18.823  0.00  0.00    +0.000 A 
ATOM      9  C   UNL     1      -1.251  12.112  19.462  0.00  0.00    +0.000 A 
ATOM     10  C   UNL     1       0.049  11.651  19.251  0.00  0.00    +0.000 A 
ATOM     11  C   UNL     1       0.291  10.550  18.415  0.00  0.00    +0.000 A 
ATOM     12  C   UNL     1      -0.798   9.927  17.791  0.00  0.00    +0.000 A 
ATOM     13  C   UNL     1      -2.102  10.401  17.993  0.00  0.00    +0.000 A 
BRANCH   8  15
ATOM     14  C   UNL     1      -4.655  11.477  18.428  0.00  0.00    +0.000 C 
ATOM     15  O   UNL     1      -3.549  12.056  19.108  0.00  0.00    +0.000 OA
ENDBRANCH   8  15
ENDBRANCH   7  11
ENDBRANCH   5   7
ENDBRANCH   4   5
ENDBRANCH   3   4
ENDBRANCH   2   3
ENDBRANCH   1   2
BRANCH   1  16
ATOM     16  C   UNL     1       1.332   3.463  20.990  0.00  0.00    +0.000 C 
BRANCH  16  17
ATOM     17  C   UNL     1       1.957   2.361  20.154  0.00  0.00    +0.000 C 
BRANCH  17  18
ATOM     18  C   UNL     1       1.234   2.237  18.822  0.00  0.00    +0.000 C 
BRANCH  18  19
ATOM     19  C   UNL     1       1.366   3.529  18.027  0.00  0.00    +0.000 C 
BRANCH  19  20
ATOM     20  N   UNL     1       2.304   3.303  16.937  0.00  0.00    +0.000 NA
ATOM     21  H   UNL     1       2.462   4.177  16.436  0.00  0.00    +0.000 HD
BRANCH  20  22
ATOM     22  C   UNL     1       3.587   2.824  17.455  0.00  0.00    +0.000 C 
BRANCH  22  23
ATOM     23  C   UNL     1       4.691   3.822  17.195  0.00  0.00    +0.000 A 
ATOM     24  C   UNL     1       5.396   4.396  18.259  0.00  0.00    +0.000 A 
ATOM     25  C   UNL     1       6.382   5.358  18.017  0.00  0.00    +0.000 A 
ATOM     26  C   UNL     1       6.706   5.730  16.713  0.00  0.00    +0.000 A 
ATOM     27  C   UNL     1       6.028   5.148  15.645  0.00  0.00    +0.000 A 
ATOM     28  C   UNL     1       5.030   4.197  15.884  0.00  0.00    +0.000 A 
BRANCH  26  29
ATOM     29  O   UNL     1       7.666   6.701  16.609  0.00  0.00    +0.000 OA
ATOM     30  C   UNL     1       7.547   7.783  17.526  0.00  0.00    +0.000 C 
ENDBRANCH  26  29
ENDBRANCH  22  23
ENDBRANCH  20  22
ENDBRANCH  19  20
ENDBRANCH  18  19
ENDBRANCH  17  18
ENDBRANCH  16  17
ENDBRANCH   1  16
TORSDOF 15
ENDMDL
MODEL 5
REMARK VINA RESULT:      -6.0      1.573      2.057
REMARK  Name = 
REMARK  17 active torsions:
REMARK  status: ('A' for Active; 'I' for Inactive)
REMARK    1  A    between atoms: C_1  and  O_2
REMARK    2  A    between atoms: O_2  and  C_3
REMARK    3  A    between atoms: C_6  and  C_7
REMARK    4  A    between atoms: C_7  and  N_8
REMARK    5  A    between atoms: N_8  and  C_9
REMARK    6  A    between atoms: C_9  and  C_10
REMARK    7  A    between atoms: C_10  and  C_11
REMARK    8  A    between atoms: C_11  and  C_12
REMARK    9  A    between atoms: C_12  and  C_13
REMARK   10  A    between atoms: C_13  and  C_14
REMARK   11  A    between atoms: C_14  and  C_15
REMARK   12  A    between atoms: C_15  and  C_16
REMARK   13  A    between atoms: C_16  and  N_17
REMARK   14  A    between atoms: N_17  and  C_18
REMARK   15  A    between atoms: C_18  and  C_19
REMARK   16  A    between atoms: C_22  and  O_23
REMARK   17  A    between atoms: O_23  and  C_24
REMARK                            x       y       z     vdW  Elec       q    Type
REMARK                         _______ _______ _______ _____ _____    ______ ____
ROOT
ATOM      1  C   UNL     1       2.459   6.469  19.545  0.00  0.00    +0.000 C 
ENDROOT
BRANCH   1   2
ATOM      2  C   UNL     1       2.034   7.915  19.753  0.00  0.00    +0.000 C 
BRANCH   2   3
ATOM      3  C   UNL     1       1.773   8.585  18.413  0.00  0.00    +0.000 C 
BRANCH   3   4
ATOM      4  C   UNL     1       1.445  10.060  18.606  0.00  0.00    +0.000 C 
BRANCH   4   5
ATOM      5  N   UNL     1       0.154  10.319  17.987  0.00  0.00    +0.000 NA
ATOM      6  H   UNL     1       0.270  10.503  16.991  0.00  0.00    +0.000 HD
BRANCH   5   7
ATOM      7  C   UNL     1      -0.515  11.470  18.593  0.00  0.00    +0.000 C 
BRANCH   7  11
ATOM      8  C   UNL     1      -4.808  11.277  18.077  0.00  0.00    +0.000 A 
ATOM      9  C   UNL     1      -4.249  12.058  19.085  0.00  0.00    +0.000 A 
ATOM     10  C   UNL     1      -2.865  12.122  19.245  0.00  0.00    +0.000 A 
ATOM     11  C   UNL     1      -2.012  11.380  18.413  0.00  0.00    +0.000 A 
ATOM     12  C   UNL     1      -2.580  10.578  17.413  0.00  0.00    +0.000 A 
ATOM     13  C   UNL     1      -3.971  10.526  17.245  0.00  0.00    +0.000 A 
BRANCH   8  15
ATOM     14  C   UNL     1      -6.839  10.303  18.782  0.00  0.00    +0.000 C 
ATOM     15  O   UNL     1      -6.176  11.306  18.022  0.00  0.00    +0.000 OA
ENDBRANCH   8  15
ENDBRANCH   7  11
ENDBRANCH   5   7
ENDBRANCH   4   5
ENDBRANCH   3   4
ENDBRANCH   2   3
ENDBRANCH   1   2
BRANCH   1  16
ATOM     16  C   UNL     1       1.987   5.614  20.712  0.00  0.00    +0.000 C 
BRANCH  16  17
ATOM     17  C   UNL     1       1.123   4.471  20.208  0.00  0.00    +0.000 C 
BRANCH  17  18
ATOM     18  C   UNL     1       1.509   4.107  18.783  0.00  0.00    +0.000 C 
BRANCH  18  19
ATOM     19  C   UNL     1       2.210   2.757  18.754  0.00  0.00    +0.000 C 
BRANCH  19  20
ATOM     20  N   UNL     1       3.647   2.984  18.738  0.00  0.00    +0.000 NA
ATOM     21  H   UNL     1       4.126   2.175  19.131  0.00  0.00    +0.000 HD
BRANCH  20  22
ATOM     22  C   UNL     1       4.120   3.185  17.366  0.00  0.00    +0.000 C 
BRANCH  22  23
ATOM     23  C   UNL     1       5.021   4.393  17.267  0.00  0.00    +0.000 A 
ATOM     24  C   UNL     1       4.499   5.641  16.908  0.00  0.00    +0.000 A 
ATOM     25  C   UNL     1       5.344   6.747  16.766  0.00  0.00    +0.000 A 
ATOM     26  C   UNL     1       6.710   6.633  17.021  0.00  0.00    +0.000 A 
ATOM     27  C   UNL     1       7.238   5.402  17.401  0.00  0.00    +0.000 A 
ATOM     28  C   UNL     1       6.398   4.290  17.529  0.00  0.00    +0.000 A 
BRANCH  26  29
ATOM     29  O   UNL     1       7.434   7.778  16.819  0.00  0.00    +0.000 OA
ATOM     30  C   UNL     1       8.027   8.343  17.982  0.00  0.00    +0.000 C 
ENDBRANCH  26  29
ENDBRANCH  22  23
ENDBRANCH  20  22
ENDBRANCH  19  20
ENDBRANCH  18  19
ENDBRANCH  17  18
ENDBRANCH  16  17
ENDBRANCH   1  16
TORSDOF 15
ENDMDL
MODEL 6
REMARK VINA RESULT:      -5.9      1.714      9.114
REMARK  Name = 
REMARK  17 active torsions:
REMARK  status: ('A' for Active; 'I' for Inactive)
REMARK    1  A    between atoms: C_1  and  O_2
REMARK    2  A    between atoms: O_2  and  C_3
REMARK    3  A    between atoms: C_6  and  C_7
REMARK    4  A    between atoms: C_7  and  N_8
REMARK    5  A    between atoms: N_8  and  C_9
REMARK    6  A    between atoms: C_9  and  C_10
REMARK    7  A    between atoms: C_10  and  C_11
REMARK    8  A    between atoms: C_11  and  C_12
REMARK    9  A    between atoms: C_12  and  C_13
REMARK   10  A    between atoms: C_13  and  C_14
REMARK   11  A    between atoms: C_14  and  C_15
REMARK   12  A    between atoms: C_15  and  C_16
REMARK   13  A    between atoms: C_16  and  N_17
REMARK   14  A    between atoms: N_17  and  C_18
REMARK   15  A    between atoms: C_18  and  C_19
REMARK   16  A    between atoms: C_22  and  O_23
REMARK   17  A    between atoms: O_23  and  C_24
REMARK                            x       y       z     vdW  Elec       q    Type
REMARK                         _______ _______ _______ _____ _____    ______ ____
ROOT
ATOM      1  C   UNL     1       2.179   5.220  19.065  0.00  0.00    +0.000 C 
ENDROOT
BRANCH   1   2
ATOM      2  C   UNL     1       1.482   4.433  17.965  0.00  0.00    +0.000 C 
BRANCH   2   3
ATOM      3  C   UNL     1       2.113   3.056  17.822  0.00  0.00    +0.000 C 
BRANCH   3   4
ATOM      4  C   UNL     1       2.842   2.666  19.101  0.00  0.00    +0.000 C 
BRANCH   4   5
ATOM      5  N   UNL     1       4.264   2.585  18.801  0.00  0.00    +0.000 NA
ATOM      6  H   UNL     1       4.787   3.234  19.388  0.00  0.00    +0.000 HD
BRANCH   5   7
ATOM      7  C   UNL     1       4.539   2.908  17.400  0.00  0.00    +0.000 C 
BRANCH   7  11
ATOM      8  C   UNL     1       6.749   6.614  17.058  0.00  0.00    +0.000 A 
ATOM      9  C   UNL     1       6.002   6.132  15.986  0.00  0.00    +0.000 A 
ATOM     10  C   UNL     1       5.286   4.940  16.102  0.00  0.00    +0.000 A 
ATOM     11  C   UNL     1       5.329   4.191  17.288  0.00  0.00    +0.000 A 
ATOM     12  C   UNL     1       6.100   4.669  18.357  0.00  0.00    +0.000 A 
ATOM     13  C   UNL     1       6.807   5.874  18.244  0.00  0.00    +0.000 A 
BRANCH   8  15
ATOM     14  C   UNL     1       8.111   8.337  17.922  0.00  0.00    +0.000 C 
ATOM     15  O   UNL     1       7.398   7.796  16.817  0.00  0.00    +0.000 OA
ENDBRANCH   8  15
ENDBRANCH   7  11
ENDBRANCH   5   7
ENDBRANCH   4   5
ENDBRANCH   3   4
ENDBRANCH   2   3
ENDBRANCH   1   2
BRANCH   1  16
ATOM     16  C   UNL     1       2.857   6.449  18.478  0.00  0.00    +0.000 C 
BRANCH  16  17
ATOM     17  C   UNL     1       2.254   7.712  19.068  0.00  0.00    +0.000 C 
BRANCH  17  18
ATOM     18  C   UNL     1       1.445   7.378  20.311  0.00  0.00    +0.000 C 
BRANCH  18  19
ATOM     19  C   UNL     1       1.557   8.502  21.332  0.00  0.00    +0.000 C 
BRANCH  19  20
ATOM     20  N   UNL     1       0.355   9.318  21.250  0.00  0.00    +0.000 NA
ATOM     21  H   UNL     1       0.079   9.615  22.185  0.00  0.00    +0.000 HD
BRANCH  20  22
ATOM     22  C   UNL     1       0.600  10.512  20.436  0.00  0.00    +0.000 C 
BRANCH  22  23
ATOM     23  C   UNL     1      -0.499  10.719  19.420  0.00  0.00    +0.000 A 
ATOM     24  C   UNL     1      -1.533  11.628  19.668  0.00  0.00    +0.000 A 
ATOM     25  C   UNL     1      -2.577  11.779  18.749  0.00  0.00    +0.000 A 
ATOM     26  C   UNL     1      -2.581  11.059  17.555  0.00  0.00    +0.000 A 
ATOM     27  C   UNL     1      -1.545  10.167  17.288  0.00  0.00    +0.000 A 
ATOM     28  C   UNL     1      -0.507  10.002  18.212  0.00  0.00    +0.000 A 
BRANCH  26  29
ATOM     29  O   UNL     1      -3.670  11.272  16.753  0.00  0.00    +0.000 OA
ATOM     30  C   UNL     1      -3.613  10.669  15.466  0.00  0.00    +0.000 C 
ENDBRANCH  26  29
ENDBRANCH  22  23
ENDBRANCH  20  22
ENDBRANCH  19  20
ENDBRANCH  18  19
ENDBRANCH  17  18
ENDBRANCH  16  17
ENDBRANCH   1  16
TORSDOF 15
ENDMDL
MODEL 7
REMARK VINA RESULT:      -5.8      2.738      3.274
REMARK  Name = 
REMARK  17 active torsions:
REMARK  status: ('A' for Active; 'I' for Inactive)
REMARK    1  A    between atoms: C_1  and  O_2
REMARK    2  A    between atoms: O_2  and  C_3
REMARK    3  A    between atoms: C_6  and  C_7
REMARK    4  A    between atoms: C_7  and  N_8
REMARK    5  A    between atoms: N_8  and  C_9
REMARK    6  A    between atoms: C_9  and  C_10
REMARK    7  A    between atoms: C_10  and  C_11
REMARK    8  A    between atoms: C_11  and  C_12
REMARK    9  A    between atoms: C_12  and  C_13
REMARK   10  A    between atoms: C_13  and  C_14
REMARK   11  A    between atoms: C_14  and  C_15
REMARK   12  A    between atoms: C_15  and  C_16
REMARK   13  A    between atoms: C_16  and  N_17
REMARK   14  A    between atoms: N_17  and  C_18
REMARK   15  A    between atoms: C_18  and  C_19
REMARK   16  A    between atoms: C_22  and  O_23
REMARK   17  A    between atoms: O_23  and  C_24
REMARK                            x       y       z     vdW  Elec       q    Type
REMARK                         _______ _______ _______ _____ _____    ______ ____
ROOT
ATOM      1  C   UNL     1       1.514   6.228  20.543  0.00  0.00    +0.000 C 
ENDROOT
BRANCH   1   2
ATOM      2  C   UNL     1       2.224   7.441  19.958  0.00  0.00    +0.000 C 
BRANCH   2   3
ATOM      3  C   UNL     1       2.014   7.499  18.453  0.00  0.00    +0.000 C 
BRANCH   3   4
ATOM      4  C   UNL     1       2.835   8.627  17.842  0.00  0.00    +0.000 C 
BRANCH   4   5
ATOM      5  N   UNL     1       1.919   9.686  17.445  0.00  0.00    +0.000 NA
ATOM      6  H   UNL     1       2.303  10.597  17.692  0.00  0.00    +0.000 HD
BRANCH   5   7
ATOM      7  C   UNL     1       0.616   9.545  18.096  0.00  0.00    +0.000 C 
BRANCH   7  11
ATOM      8  C   UNL     1       0.189  12.442  21.283  0.00  0.00    +0.000 A 
ATOM      9  C   UNL     1       1.193  12.581  20.328  0.00  0.00    +0.000 A 
ATOM     10  C   UNL     1       1.324  11.647  19.299  0.00  0.00    +0.000 A 
ATOM     11  C   UNL     1       0.466  10.539  19.224  0.00  0.00    +0.000 A 
ATOM     12  C   UNL     1      -0.529  10.392  20.199  0.00  0.00    +0.000 A 
ATOM     13  C   UNL     1      -0.668  11.339  21.225  0.00  0.00    +0.000 A 
BRANCH   8  15
ATOM     14  C   UNL     1      -1.054  13.546  22.958  0.00  0.00    +0.000 C 
ATOM     15  O   UNL     1       0.164  13.428  22.233  0.00  0.00    +0.000 OA
ENDBRANCH   8  15
ENDBRANCH   7  11
ENDBRANCH   5   7
ENDBRANCH   4   5
ENDBRANCH   3   4
ENDBRANCH   2   3
ENDBRANCH   1   2
BRANCH   1  16
ATOM     16  C   UNL     1       2.355   4.978  20.331  0.00  0.00    +0.000 C 
BRANCH  16  17
ATOM     17  C   UNL     1       2.039   3.945  21.398  0.00  0.00    +0.000 C 
BRANCH  17  18
ATOM     18  C   UNL     1       1.243   2.797  20.799  0.00  0.00    +0.000 C 
BRANCH  18  19
ATOM     19  C   UNL     1       1.611   2.605  19.335  0.00  0.00    +0.000 C 
BRANCH  19  20
ATOM     20  N   UNL     1       2.928   1.989  19.269  0.00  0.00    +0.000 NA
ATOM     21  H   UNL     1       2.847   0.989  19.447  0.00  0.00    +0.000 HD
BRANCH  20  22
ATOM     22  C   UNL     1       3.517   2.179  17.941  0.00  0.00    +0.000 C 
BRANCH  22  23
ATOM     23  C   UNL     1       4.253   3.495  17.850  0.00  0.00    +0.000 A 
ATOM     24  C   UNL     1       4.011   4.372  16.786  0.00  0.00    +0.000 A 
ATOM     25  C   UNL     1       4.732   5.566  16.676  0.00  0.00    +0.000 A 
ATOM     26  C   UNL     1       5.671   5.919  17.644  0.00  0.00    +0.000 A 
ATOM     27  C   UNL     1       5.904   5.065  18.719  0.00  0.00    +0.000 A 
ATOM     28  C   UNL     1       5.196   3.862  18.824  0.00  0.00    +0.000 A 
BRANCH  26  29
ATOM     29  O   UNL     1       6.330   7.096  17.409  0.00  0.00    +0.000 OA
ATOM     30  C   UNL     1       7.629   7.198  17.982  0.00  0.00    +0.000 C 
ENDBRANCH  26  29
ENDBRANCH  22  23
ENDBRANCH  20  22
ENDBRANCH  19  20
ENDBRANCH  18  19
ENDBRANCH  17  18
ENDBRANCH  16  17
ENDBRANCH   1  16
TORSDOF 15
ENDMDL
MODEL 8
REMARK VINA RESULT:      -5.8      2.070      8.977
REMARK  Name = 
REMARK  17 active torsions:
REMARK  status: ('A' for Active; 'I' for Inactive)
REMARK    1  A    between atoms: C_1  and  O_2
REMARK    2  A    between atoms: O_2  and  C_3
REMARK    3  A    between atoms: C_6  and  C_7
REMARK    4  A    between atoms: C_7  and  N_8
REMARK    5  A    between atoms: N_8  and  C_9
REMARK    6  A    between atoms: C_9  and  C_10
REMARK    7  A    between atoms: C_10  and  C_11
REMARK    8  A    between atoms: C_11  and  C_12
REMARK    9  A    between atoms: C_12  and  C_13
REMARK   10  A    between atoms: C_13  and  C_14
REMARK   11  A    between atoms: C_14  and  C_15
REMARK   12  A    between atoms: C_15  and  C_16
REMARK   13  A    between atoms: C_16  and  N_17
REMARK   14  A    between atoms: N_17  and  C_18
REMARK   15  A    between atoms: C_18  and  C_19
REMARK   16  A    between atoms: C_22  and  O_23
REMARK   17  A    between atoms: O_23  and  C_24
REMARK                            x       y       z     vdW  Elec       q    Type
REMARK                         _______ _______ _______ _____ _____    ______ ____
ROOT
ATOM      1  C   UNL     1       1.936   3.061  21.176  0.00  0.00    +0.000 C 
ENDROOT
BRANCH   1   2
ATOM      2  C   UNL     1       2.869   2.499  20.113  0.00  0.00    +0.000 C 
BRANCH   2   3
ATOM      3  C   UNL     1       2.064   1.915  18.962  0.00  0.00    +0.000 C 
BRANCH   3   4
ATOM      4  C   UNL     1       2.485   2.545  17.641  0.00  0.00    +0.000 C 
BRANCH   4   5
ATOM      5  N   UNL     1       3.441   3.603  17.932  0.00  0.00    +0.000 NA
ATOM      6  H   UNL     1       2.952   4.475  18.134  0.00  0.00    +0.000 HD
BRANCH   5   7
ATOM      7  C   UNL     1       4.349   3.835  16.808  0.00  0.00    +0.000 C 
BRANCH   7  11
ATOM      8  C   UNL     1       7.415   6.680  17.920  0.00  0.00    +0.000 A 
ATOM      9  C   UNL     1       6.260   7.101  17.266  0.00  0.00    +0.000 A 
ATOM     10  C   UNL     1       5.271   6.182  16.914  0.00  0.00    +0.000 A 
ATOM     11  C   UNL     1       5.435   4.815  17.186  0.00  0.00    +0.000 A 
ATOM     12  C   UNL     1       6.609   4.392  17.825  0.00  0.00    +0.000 A 
ATOM     13  C   UNL     1       7.595   5.320  18.191  0.00  0.00    +0.000 A 
BRANCH   8  15
ATOM     14  C   UNL     1       7.893   8.990  17.838  0.00  0.00    +0.000 C 
ATOM     15  O   UNL     1       8.302   7.681  18.216  0.00  0.00    +0.000 OA
ENDBRANCH   8  15
ENDBRANCH   7  11
ENDBRANCH   5   7
ENDBRANCH   4   5
ENDBRANCH   3   4
ENDBRANCH   2   3
ENDBRANCH   1   2
BRANCH   1  16
ATOM     16  C   UNL     1       1.102   4.192  20.594  0.00  0.00    +0.000 C 
BRANCH  16  17
ATOM     17  C   UNL     1       1.895   5.487  20.604  0.00  0.00    +0.000 C 
BRANCH  17  18
ATOM     18  C   UNL     1       2.000   6.050  19.196  0.00  0.00    +0.000 C 
BRANCH  18  19
ATOM     19  C   UNL     1       2.226   7.555  19.243  0.00  0.00    +0.000 C 
BRANCH  19  20
ATOM     20  N   UNL     1       2.054   8.088  17.900  0.00  0.00    +0.000 NA
ATOM     21  H   UNL     1       1.137   7.824  17.542  0.00  0.00    +0.000 HD
BRANCH  20  22
ATOM     22  C   UNL     1       2.145   9.550  17.914  0.00  0.00    +0.000 C 
BRANCH  22  23
ATOM     23  C   UNL     1       0.933  10.170  18.571  0.00  0.00    +0.000 A 
ATOM     24  C   UNL     1      -0.345   9.968  18.037  0.00  0.00    +0.000 A 
ATOM     25  C   UNL     1      -1.458  10.585  18.617  0.00  0.00    +0.000 A 
ATOM     26  C   UNL     1      -1.318  11.375  19.757  0.00  0.00    +0.000 A 
ATOM     27  C   UNL     1      -0.054  11.565  20.310  0.00  0.00    +0.000 A 
ATOM     28  C   UNL     1       1.065  10.962  19.723  0.00  0.00    +0.000 A 
BRANCH  26  29
ATOM     29  O   UNL     1      -2.476  11.948  20.212  0.00  0.00    +0.000 OA
ATOM     30  C   UNL     1      -3.454  12.229  19.217  0.00  0.00    +0.000 C 
ENDBRANCH  26  29
ENDBRANCH  22  23
ENDBRANCH  20  22
ENDBRANCH  19  20
ENDBRANCH  18  19
ENDBRANCH  17  18
ENDBRANCH  16  17
ENDBRANCH   1  16
TORSDOF 15
ENDMDL
MODEL 9
REMARK VINA RESULT:      -5.8      6.893      9.743
REMARK  Name = 
REMARK  17 active torsions:
REMARK  status: ('A' for Active; 'I' for Inactive)
REMARK    1  A    between atoms: C_1  and  O_2
REMARK    2  A    between atoms: O_2  and  C_3
REMARK    3  A    between atoms: C_6  and  C_7
REMARK    4  A    between atoms: C_7  and  N_8
REMARK    5  A    between atoms: N_8  and  C_9
REMARK    6  A    between atoms: C_9  and  C_10
REMARK    7  A    between atoms: C_10  and  C_11
REMARK    8  A    between atoms: C_11  and  C_12
REMARK    9  A    between atoms: C_12  and  C_13
REMARK   10  A    between atoms: C_13  and  C_14
REMARK   11  A    between atoms: C_14  and  C_15
REMARK   12  A    between atoms: C_15  and  C_16
REMARK   13  A    between atoms: C_16  and  N_17
REMARK   14  A    between atoms: N_17  and  C_18
REMARK   15  A    between atoms: C_18  and  C_19
REMARK   16  A    between atoms: C_22  and  O_23
REMARK   17  A    between atoms: O_23  and  C_24
REMARK                            x       y       z     vdW  Elec       q    Type
REMARK                         _______ _______ _______ _____ _____    ______ ____
ROOT
ATOM      1  C   UNL     1       7.836   7.979  17.346  0.00  0.00    +0.000 C 
ENDROOT
BRANCH   1   2
ATOM      2  C   UNL     1       8.509   8.532  18.594  0.00  0.00    +0.000 C 
BRANCH   2   3
ATOM      3  C   UNL     1       8.790  10.018  18.426  0.00  0.00    +0.000 C 
BRANCH   3   4
ATOM      4  C   UNL     1       9.516  10.566  19.648  0.00  0.00    +0.000 C 
BRANCH   4   5
ATOM      5  N   UNL     1      10.636  11.370  19.181  0.00  0.00    +0.000 NA
ATOM      6  H   UNL     1      10.707  12.228  19.726  0.00  0.00    +0.000 HD
BRANCH   5   7
ATOM      7  C   UNL     1      10.491  11.731  17.770  0.00  0.00    +0.000 C 
BRANCH   7  11
ATOM      8  C   UNL     1      10.268  16.034  17.354  0.00  0.00    +0.000 A 
ATOM      9  C   UNL     1       9.235  15.325  17.963  0.00  0.00    +0.000 A 
ATOM     10  C   UNL     1       9.313  13.939  18.101  0.00  0.00    +0.000 A 
ATOM     11  C   UNL     1      10.418  13.231  17.603  0.00  0.00    +0.000 A 
ATOM     12  C   UNL     1      11.445  13.945  16.971  0.00  0.00    +0.000 A 
ATOM     13  C   UNL     1      11.372  15.340  16.847  0.00  0.00    +0.000 A 
BRANCH   8  15
ATOM     14  C   UNL     1       9.314  17.946  18.354  0.00  0.00    +0.000 C 
ATOM     15  O   UNL     1      10.072  17.388  17.289  0.00  0.00    +0.000 OA
ENDBRANCH   8  15
ENDBRANCH   7  11
ENDBRANCH   5   7
ENDBRANCH   4   5
ENDBRANCH   3   4
ENDBRANCH   2   3
ENDBRANCH   1   2
BRANCH   1  16
ATOM     16  C   UNL     1       7.099   6.690  17.679  0.00  0.00    +0.000 C 
BRANCH  16  17
ATOM     17  C   UNL     1       5.728   6.687  17.027  0.00  0.00    +0.000 C 
BRANCH  17  18
ATOM     18  C   UNL     1       4.964   5.430  17.413  0.00  0.00    +0.000 C 
BRANCH  18  19
ATOM     19  C   UNL     1       5.229   5.078  18.870  0.00  0.00    +0.000 C 
BRANCH  19  20
ATOM     20  N   UNL     1       4.198   5.699  19.687  0.00  0.00    +0.000 NA
ATOM     21  H   UNL     1       4.480   6.647  19.931  0.00  0.00    +0.000 HD
BRANCH  20  22
ATOM     22  C   UNL     1       2.931   5.764  18.954  0.00  0.00    +0.000 C 
BRANCH  22  23
ATOM     23  C   UNL     1       2.304   7.134  19.062  0.00  0.00    +0.000 A 
ATOM     24  C   UNL     1       2.256   7.983  17.950  0.00  0.00    +0.000 A 
ATOM     25  C   UNL     1       1.722   9.271  18.066  0.00  0.00    +0.000 A 
ATOM     26  C   UNL     1       1.193   9.713  19.278  0.00  0.00    +0.000 A 
ATOM     27  C   UNL     1       1.215   8.869  20.386  0.00  0.00    +0.000 A 
ATOM     28  C   UNL     1       1.763   7.586  20.277  0.00  0.00    +0.000 A 
BRANCH  26  29
ATOM     29  O   UNL     1       0.728  11.001  19.272  0.00  0.00    +0.000 OA
ATOM     30  C   UNL     1       0.782  11.680  20.522  0.00  0.00    +0.000 C 
ENDBRANCH  26  29
ENDBRANCH  22  23
ENDBRANCH  20  22
ENDBRANCH  19  20
ENDBRANCH  18  19
ENDBRANCH  17  18
ENDBRANCH  16  17
ENDBRANCH   1  16
TORSDOF 15
ENDMDL
