MODEL 1
REMARK VINA RESULT:      -8.1      0.000      0.000
REMARK  Name = 
REMARK  5 active torsions:
REMARK  status: ('A' for Active; 'I' for Inactive)
REMARK    1  A    between atoms: C_1  and  C_2
REMARK    2  A    between atoms: C_4  and  C_5
REMARK    3  A    between atoms: N_7  and  C_8
REMARK    4  A    between atoms: C_10  and  C_11
REMARK    5  A    between atoms: C_19  and  C_20
REMARK                            x       y       z     vdW  Elec       q    Type
REMARK                         _______ _______ _______ _____ _____    ______ ____
ROOT
ATOM      1  C   UNL     1       5.238   4.705  17.528  0.00  0.00    +0.000 A 
ATOM      2  O   UNL     1       5.089   4.512  16.171  0.00  0.00    +0.000 OA
ATOM      3  C   UNL     1       6.359   4.596  15.650  0.00  0.00    +0.000 A 
ATOM      4  N   UNL     1       7.289   4.870  16.546  0.00  0.00    +0.000 NA
ATOM      5  C   UNL     1       6.590   4.932  17.728  0.00  0.00    +0.000 A 
ENDROOT
BRANCH   1  12
ATOM      6  C   UNL     1       2.191   6.989  18.736  0.00  0.00    +0.000 C 
ATOM      7  C   UNL     1       2.636   5.970  19.790  0.00  0.00    +0.000 C 
ATOM      8  C   UNL     1       1.685   4.768  19.857  0.00  0.00    +0.000 C 
ATOM      9  C   UNL     1       1.826   3.848  18.634  0.00  0.00    +0.000 C 
ATOM     10  C   UNL     1       0.919   2.630  18.797  0.00  0.00    +0.000 C 
ATOM     11  C   UNL     1       3.301   3.444  18.402  0.00  0.00    +0.000 C 
ATOM     12  N   UNL     1       4.130   4.656  18.331  0.00  0.00    +0.000 N 
ATOM     13  C   UNL     1       4.072   5.491  19.540  0.00  0.00    +0.000 C 
ENDBRANCH   1  12
BRANCH   3  14
ATOM     14  C   UNL     1       6.562   4.320  14.228  0.00  0.00    +0.000 A 
ATOM     15  C   UNL     1       5.698   3.420  13.572  0.00  0.00    +0.000 A 
ATOM     16  C   UNL     1       5.777   3.211  12.189  0.00  0.00    +0.000 A 
ATOM     17  C   UNL     1       6.729   3.894  11.439  0.00  0.00    +0.000 A 
ATOM     18  C   UNL     1       7.615   4.760  12.076  0.00  0.00    +0.000 A 
ATOM     19  C   UNL     1       7.531   4.963  13.456  0.00  0.00    +0.000 A 
ATOM     20  F   UNL     1       8.399   5.822  14.013  0.00  0.00    +0.000 F 
ENDBRANCH   3  14
BRANCH   5  21
ATOM     21  C   UNL     1       7.267   5.226  18.944  0.00  0.00    +0.000 C 
ATOM     22  N   UNL     1       7.811   5.450  19.949  0.00  0.00    +0.000 NA
ENDBRANCH   5  21
TORSDOF 3
ENDMDL
MODEL 2
REMARK VINA RESULT:      -7.9      0.744      1.837
REMARK  Name = 
REMARK  5 active torsions:
REMARK  status: ('A' for Active; 'I' for Inactive)
REMARK    1  A    between atoms: C_1  and  C_2
REMARK    2  A    between atoms: C_4  and  C_5
REMARK    3  A    between atoms: N_7  and  C_8
REMARK    4  A    between atoms: C_10  and  C_11
REMARK    5  A    between atoms: C_19  and  C_20
REMARK                            x       y       z     vdW  Elec       q    Type
REMARK                         _______ _______ _______ _____ _____    ______ ____
ROOT
ATOM      1  C   UNL     1       4.850   4.722  17.496  0.00  0.00    +0.000 A 
ATOM      2  O   UNL     1       4.760   4.516  16.136  0.00  0.00    +0.000 OA
ATOM      3  C   UNL     1       6.053   4.575  15.672  0.00  0.00    +0.000 A 
ATOM      4  N   UNL     1       6.946   4.845  16.607  0.00  0.00    +0.000 NA
ATOM      5  C   UNL     1       6.195   4.931  17.754  0.00  0.00    +0.000 A 
ENDROOT
BRANCH   1  12
ATOM      6  C   UNL     1       3.132   2.650  20.448  0.00  0.00    +0.000 C 
ATOM      7  C   UNL     1       2.122   3.253  19.466  0.00  0.00    +0.000 C 
ATOM      8  C   UNL     1       1.452   4.509  20.038  0.00  0.00    +0.000 C 
ATOM      9  C   UNL     1       2.413   5.709  20.081  0.00  0.00    +0.000 C 
ATOM     10  C   UNL     1       1.669   6.948  20.578  0.00  0.00    +0.000 C 
ATOM     11  C   UNL     1       3.076   5.947  18.704  0.00  0.00    +0.000 C 
ATOM     12  N   UNL     1       3.707   4.699  18.248  0.00  0.00    +0.000 N 
ATOM     13  C   UNL     1       2.771   3.572  18.114  0.00  0.00    +0.000 C 
ENDBRANCH   1  12
BRANCH   3  14
ATOM     14  C   UNL     1       6.317   4.279  14.264  0.00  0.00    +0.000 A 
ATOM     15  C   UNL     1       5.437   3.429  13.563  0.00  0.00    +0.000 A 
ATOM     16  C   UNL     1       5.578   3.208  12.188  0.00  0.00    +0.000 A 
ATOM     17  C   UNL     1       6.609   3.830  11.488  0.00  0.00    +0.000 A 
ATOM     18  C   UNL     1       7.510   4.645  12.172  0.00  0.00    +0.000 A 
ATOM     19  C   UNL     1       7.363   4.860  13.545  0.00  0.00    +0.000 A 
ATOM     20  F   UNL     1       8.249   5.668  14.146  0.00  0.00    +0.000 F 
ENDBRANCH   3  14
BRANCH   5  21
ATOM     21  C   UNL     1       6.821   5.229  18.997  0.00  0.00    +0.000 C 
ATOM     22  N   UNL     1       7.334   5.495  20.009  0.00  0.00    +0.000 NA
ENDBRANCH   5  21
TORSDOF 3
ENDMDL
MODEL 3
REMARK VINA RESULT:      -7.9      0.968      1.186
REMARK  Name = 
REMARK  5 active torsions:
REMARK  status: ('A' for Active; 'I' for Inactive)
REMARK    1  A    between atoms: C_1  and  C_2
REMARK    2  A    between atoms: C_4  and  C_5
REMARK    3  A    between atoms: N_7  and  C_8
REMARK    4  A    between atoms: C_10  and  C_11
REMARK    5  A    between atoms: C_19  and  C_20
REMARK                            x       y       z     vdW  Elec       q    Type
REMARK                         _______ _______ _______ _____ _____    ______ ____
ROOT
ATOM      1  C   UNL     1       5.404   4.655  17.489  0.00  0.00    +0.000 A 
ATOM      2  O   UNL     1       5.173   4.449  16.146  0.00  0.00    +0.000 OA
ATOM      3  C   UNL     1       6.406   4.542  15.546  0.00  0.00    +0.000 A 
ATOM      4  N   UNL     1       7.387   4.834  16.379  0.00  0.00    +0.000 NA
ATOM      5  C   UNL     1       6.763   4.899  17.602  0.00  0.00    +0.000 A 
ENDROOT
BRANCH   1  12
ATOM      6  C   UNL     1       1.416   4.421  17.508  0.00  0.00    +0.000 C 
ATOM      7  C   UNL     1       1.980   5.198  18.701  0.00  0.00    +0.000 C 
ATOM      8  C   UNL     1       1.976   4.355  19.982  0.00  0.00    +0.000 C 
ATOM      9  C   UNL     1       3.047   3.251  19.953  0.00  0.00    +0.000 C 
ATOM     10  C   UNL     1       3.052   2.502  21.284  0.00  0.00    +0.000 C 
ATOM     11  C   UNL     1       4.440   3.829  19.609  0.00  0.00    +0.000 C 
ATOM     12  N   UNL     1       4.350   4.601  18.360  0.00  0.00    +0.000 N 
ATOM     13  C   UNL     1       3.396   5.718  18.417  0.00  0.00    +0.000 C 
ENDBRANCH   1  12
BRANCH   3  14
ATOM     14  C   UNL     1       6.523   4.256  14.116  0.00  0.00    +0.000 A 
ATOM     15  C   UNL     1       5.596   3.384  13.511  0.00  0.00    +0.000 A 
ATOM     16  C   UNL     1       5.593   3.169  12.127  0.00  0.00    +0.000 A 
ATOM     17  C   UNL     1       6.525   3.819  11.323  0.00  0.00    +0.000 A 
ATOM     18  C   UNL     1       7.472   4.657  11.909  0.00  0.00    +0.000 A 
ATOM     19  C   UNL     1       7.469   4.866  13.290  0.00  0.00    +0.000 A 
ATOM     20  F   UNL     1       8.394   5.697  13.796  0.00  0.00    +0.000 F 
ENDBRANCH   3  14
BRANCH   5  21
ATOM     21  C   UNL     1       7.512   5.211  18.771  0.00  0.00    +0.000 C 
ATOM     22  N   UNL     1       8.139   5.448  19.724  0.00  0.00    +0.000 NA
ENDBRANCH   5  21
TORSDOF 3
ENDMDL
MODEL 4
REMARK VINA RESULT:      -7.6      1.000      1.431
REMARK  Name = 
REMARK  5 active torsions:
REMARK  status: ('A' for Active; 'I' for Inactive)
REMARK    1  A    between atoms: C_1  and  C_2
REMARK    2  A    between atoms: C_4  and  C_5
REMARK    3  A    between atoms: N_7  and  C_8
REMARK    4  A    between atoms: C_10  and  C_11
REMARK    5  A    between atoms: C_19  and  C_20
REMARK                            x       y       z     vdW  Elec       q    Type
REMARK                         _______ _______ _______ _____ _____    ______ ____
ROOT
ATOM      1  C   UNL     1       5.288   4.847  17.646  0.00  0.00    +0.000 A 
ATOM      2  O   UNL     1       5.176   4.764  16.275  0.00  0.00    +0.000 OA
ATOM      3  C   UNL     1       6.458   4.904  15.796  0.00  0.00    +0.000 A 
ATOM      4  N   UNL     1       7.361   5.114  16.736  0.00  0.00    +0.000 NA
ATOM      5  C   UNL     1       6.631   5.071  17.899  0.00  0.00    +0.000 A 
ENDROOT
BRANCH   1  12
ATOM      6  C   UNL     1       2.130   6.963  18.876  0.00  0.00    +0.000 C 
ATOM      7  C   UNL     1       2.582   5.908  19.891  0.00  0.00    +0.000 C 
ATOM      8  C   UNL     1       1.672   4.673  19.871  0.00  0.00    +0.000 C 
ATOM      9  C   UNL     1       1.879   3.820  18.608  0.00  0.00    +0.000 C 
ATOM     10  C   UNL     1       1.011   2.566  18.684  0.00  0.00    +0.000 C 
ATOM     11  C   UNL     1       3.373   3.479  18.400  0.00  0.00    +0.000 C 
ATOM     12  N   UNL     1       4.161   4.720  18.413  0.00  0.00    +0.000 N 
ATOM     13  C   UNL     1       4.040   5.491  19.660  0.00  0.00    +0.000 C 
ENDBRANCH   1  12
BRANCH   3  14
ATOM     14  C   UNL     1       6.701   4.747  14.362  0.00  0.00    +0.000 A 
ATOM     15  C   UNL     1       7.691   5.536  13.742  0.00  0.00    +0.000 A 
ATOM     16  C   UNL     1       8.042   5.342  12.400  0.00  0.00    +0.000 A 
ATOM     17  C   UNL     1       7.403   4.358  11.651  0.00  0.00    +0.000 A 
ATOM     18  C   UNL     1       6.396   3.593  12.239  0.00  0.00    +0.000 A 
ATOM     19  C   UNL     1       6.051   3.793  13.578  0.00  0.00    +0.000 A 
ATOM     20  F   UNL     1       5.087   3.015  14.094  0.00  0.00    +0.000 F 
ENDBRANCH   3  14
BRANCH   5  21
ATOM     21  C   UNL     1       7.274   5.271  19.153  0.00  0.00    +0.000 C 
ATOM     22  N   UNL     1       7.801   5.413  20.182  0.00  0.00    +0.000 NA
ENDBRANCH   5  21
TORSDOF 3
ENDMDL
MODEL 5
REMARK VINA RESULT:      -7.5      1.383      1.863
REMARK  Name = 
REMARK  5 active torsions:
REMARK  status: ('A' for Active; 'I' for Inactive)
REMARK    1  A    between atoms: C_1  and  C_2
REMARK    2  A    between atoms: C_4  and  C_5
REMARK    3  A    between atoms: N_7  and  C_8
REMARK    4  A    between atoms: C_10  and  C_11
REMARK    5  A    between atoms: C_19  and  C_20
REMARK                            x       y       z     vdW  Elec       q    Type
REMARK                         _______ _______ _______ _____ _____    ______ ____
ROOT
ATOM      1  C   UNL     1       5.383   4.863  17.818  0.00  0.00    +0.000 A 
ATOM      2  O   UNL     1       5.244   4.782  16.449  0.00  0.00    +0.000 OA
ATOM      3  C   UNL     1       6.514   4.930  15.944  0.00  0.00    +0.000 A 
ATOM      4  N   UNL     1       7.435   5.144  16.865  0.00  0.00    +0.000 NA
ATOM      5  C   UNL     1       6.730   5.095  18.044  0.00  0.00    +0.000 A 
ENDROOT
BRANCH   1  12
ATOM      6  C   UNL     1       1.424   4.408  17.537  0.00  0.00    +0.000 C 
ATOM      7  C   UNL     1       1.855   5.186  18.784  0.00  0.00    +0.000 C 
ATOM      8  C   UNL     1       1.806   4.313  20.044  0.00  0.00    +0.000 C 
ATOM      9  C   UNL     1       2.938   3.272  20.073  0.00  0.00    +0.000 C 
ATOM     10  C   UNL     1       2.889   2.492  21.385  0.00  0.00    +0.000 C 
ATOM     11  C   UNL     1       4.316   3.934  19.844  0.00  0.00    +0.000 C 
ATOM     12  N   UNL     1       4.273   4.729  18.608  0.00  0.00    +0.000 N 
ATOM     13  C   UNL     1       3.255   5.791  18.616  0.00  0.00    +0.000 C 
ENDBRANCH   1  12
BRANCH   3  14
ATOM     14  C   UNL     1       6.728   4.776  14.505  0.00  0.00    +0.000 A 
ATOM     15  C   UNL     1       7.720   5.552  13.871  0.00  0.00    +0.000 A 
ATOM     16  C   UNL     1       8.044   5.359  12.522  0.00  0.00    +0.000 A 
ATOM     17  C   UNL     1       7.374   4.390  11.780  0.00  0.00    +0.000 A 
ATOM     18  C   UNL     1       6.366   3.639  12.382  0.00  0.00    +0.000 A 
ATOM     19  C   UNL     1       6.048   3.837  13.728  0.00  0.00    +0.000 A 
ATOM     20  F   UNL     1       5.081   3.073  14.258  0.00  0.00    +0.000 F 
ENDBRANCH   3  14
BRANCH   5  21
ATOM     21  C   UNL     1       7.398   5.298  19.284  0.00  0.00    +0.000 C 
ATOM     22  N   UNL     1       7.960   5.475  20.289  0.00  0.00    +0.000 NA
ENDBRANCH   5  21
TORSDOF 3
ENDMDL
MODEL 6
REMARK VINA RESULT:      -7.5      2.874      7.230
REMARK  Name = 
REMARK  5 active torsions:
REMARK  status: ('A' for Active; 'I' for Inactive)
REMARK    1  A    between atoms: C_1  and  C_2
REMARK    2  A    between atoms: C_4  and  C_5
REMARK    3  A    between atoms: N_7  and  C_8
REMARK    4  A    between atoms: C_10  and  C_11
REMARK    5  A    between atoms: C_19  and  C_20
REMARK                            x       y       z     vdW  Elec       q    Type
REMARK                         _______ _______ _______ _____ _____    ______ ____
ROOT
ATOM      1  C   UNL     1       3.896   5.793  18.118  0.00  0.00    +0.000 A 
ATOM      2  O   UNL     1       3.384   7.053  18.344  0.00  0.00    +0.000 OA
ATOM      3  C   UNL     1       2.372   6.875  19.258  0.00  0.00    +0.000 A 
ATOM      4  N   UNL     1       2.168   5.614  19.594  0.00  0.00    +0.000 NA
ATOM      5  C   UNL     1       3.127   4.933  18.885  0.00  0.00    +0.000 A 
ENDROOT
BRANCH   1  12
ATOM      6  C   UNL     1       7.743   4.717  18.077  0.00  0.00    +0.000 C 
ATOM      7  C   UNL     1       7.401   5.772  17.020  0.00  0.00    +0.000 C 
ATOM      8  C   UNL     1       7.275   5.156  15.621  0.00  0.00    +0.000 C 
ATOM      9  C   UNL     1       5.995   4.316  15.470  0.00  0.00    +0.000 C 
ATOM     10  C   UNL     1       5.882   3.800  14.037  0.00  0.00    +0.000 C 
ATOM     11  C   UNL     1       4.744   5.117  15.897  0.00  0.00    +0.000 C 
ATOM     12  N   UNL     1       4.947   5.650  17.253  0.00  0.00    +0.000 N 
ATOM     13  C   UNL     1       6.117   6.532  17.378  0.00  0.00    +0.000 C 
ENDBRANCH   1  12
BRANCH   3  14
ATOM     14  C   UNL     1       1.691   8.050  19.801  0.00  0.00    +0.000 A 
ATOM     15  C   UNL     1       1.450   8.126  21.188  0.00  0.00    +0.000 A 
ATOM     16  C   UNL     1       0.909   9.279  21.772  0.00  0.00    +0.000 A 
ATOM     17  C   UNL     1       0.592  10.375  20.975  0.00  0.00    +0.000 A 
ATOM     18  C   UNL     1       0.791  10.305  19.598  0.00  0.00    +0.000 A 
ATOM     19  C   UNL     1       1.331   9.151  19.022  0.00  0.00    +0.000 A 
ATOM     20  F   UNL     1       1.516   9.147  17.693  0.00  0.00    +0.000 F 
ENDBRANCH   3  14
BRANCH   5  21
ATOM     21  C   UNL     1       3.215   3.516  18.982  0.00  0.00    +0.000 C 
ATOM     22  N   UNL     1       3.293   2.358  19.083  0.00  0.00    +0.000 NA
ENDBRANCH   5  21
TORSDOF 3
ENDMDL
MODEL 7
REMARK VINA RESULT:      -7.5      3.452      7.681
REMARK  Name = 
REMARK  5 active torsions:
REMARK  status: ('A' for Active; 'I' for Inactive)
REMARK    1  A    between atoms: C_1  and  C_2
REMARK    2  A    between atoms: C_4  and  C_5
REMARK    3  A    between atoms: N_7  and  C_8
REMARK    4  A    between atoms: C_10  and  C_11
REMARK    5  A    between atoms: C_19  and  C_20
REMARK                            x       y       z     vdW  Elec       q    Type
REMARK                         _______ _______ _______ _____ _____    ______ ____
ROOT
ATOM      1  C   UNL     1       3.302   5.830  19.468  0.00  0.00    +0.000 A 
ATOM      2  O   UNL     1       2.857   7.133  19.408  0.00  0.00    +0.000 OA
ATOM      3  C   UNL     1       1.778   7.188  20.260  0.00  0.00    +0.000 A 
ATOM      4  N   UNL     1       1.474   6.029  20.815  0.00  0.00    +0.000 NA
ATOM      5  C   UNL     1       2.433   5.176  20.326  0.00  0.00    +0.000 A 
ENDROOT
BRANCH   1  12
ATOM      6  C   UNL     1       5.024   6.548  15.935  0.00  0.00    +0.000 C 
ATOM      7  C   UNL     1       5.266   5.124  16.446  0.00  0.00    +0.000 C 
ATOM      8  C   UNL     1       6.674   4.961  17.033  0.00  0.00    +0.000 C 
ATOM      9  C   UNL     1       6.824   5.675  18.387  0.00  0.00    +0.000 C 
ATOM     10  C   UNL     1       8.215   5.408  18.960  0.00  0.00    +0.000 C 
ATOM     11  C   UNL     1       5.704   5.258  19.368  0.00  0.00    +0.000 C 
ATOM     12  N   UNL     1       4.396   5.468  18.729  0.00  0.00    +0.000 N 
ATOM     13  C   UNL     1       4.213   4.710  17.482  0.00  0.00    +0.000 C 
ENDBRANCH   1  12
BRANCH   3  14
ATOM     14  C   UNL     1       1.139   8.479  20.513  0.00  0.00    +0.000 A 
ATOM     15  C   UNL     1       0.777   8.820  21.832  0.00  0.00    +0.000 A 
ATOM     16  C   UNL     1       0.270  10.088  22.143  0.00  0.00    +0.000 A 
ATOM     17  C   UNL     1       0.110  11.037  21.137  0.00  0.00    +0.000 A 
ATOM     18  C   UNL     1       0.430  10.705  19.822  0.00  0.00    +0.000 A 
ATOM     19  C   UNL     1       0.935   9.437  19.519  0.00  0.00    +0.000 A 
ATOM     20  F   UNL     1       1.241   9.180  18.238  0.00  0.00    +0.000 F 
ENDBRANCH   3  14
BRANCH   5  21
ATOM     21  C   UNL     1       2.426   3.803  20.700  0.00  0.00    +0.000 C 
ATOM     22  N   UNL     1       2.414   2.685  21.028  0.00  0.00    +0.000 NA
ENDBRANCH   5  21
TORSDOF 3
ENDMDL
MODEL 8
REMARK VINA RESULT:      -7.5      1.309      2.354
REMARK  Name = 
REMARK  5 active torsions:
REMARK  status: ('A' for Active; 'I' for Inactive)
REMARK    1  A    between atoms: C_1  and  C_2
REMARK    2  A    between atoms: C_4  and  C_5
REMARK    3  A    between atoms: N_7  and  C_8
REMARK    4  A    between atoms: C_10  and  C_11
REMARK    5  A    between atoms: C_19  and  C_20
REMARK                            x       y       z     vdW  Elec       q    Type
REMARK                         _______ _______ _______ _____ _____    ______ ____
ROOT
ATOM      1  C   UNL     1       5.319   4.573  17.608  0.00  0.00    +0.000 A 
ATOM      2  O   UNL     1       5.222   4.500  16.235  0.00  0.00    +0.000 OA
ATOM      3  C   UNL     1       6.469   4.836  15.764  0.00  0.00    +0.000 A 
ATOM      4  N   UNL     1       7.331   5.159  16.710  0.00  0.00    +0.000 NA
ATOM      5  C   UNL     1       6.614   4.989  17.870  0.00  0.00    +0.000 A 
ENDROOT
BRANCH   1  12
ATOM      6  C   UNL     1       4.193   2.156  20.583  0.00  0.00    +0.000 C 
ATOM      7  C   UNL     1       3.059   2.478  19.606  0.00  0.00    +0.000 C 
ATOM      8  C   UNL     1       2.098   3.530  20.175  0.00  0.00    +0.000 C 
ATOM      9  C   UNL     1       2.725   4.933  20.205  0.00  0.00    +0.000 C 
ATOM     10  C   UNL     1       1.697   5.948  20.700  0.00  0.00    +0.000 C 
ATOM     11  C   UNL     1       3.301   5.321  18.823  0.00  0.00    +0.000 C 
ATOM     12  N   UNL     1       4.222   4.268  18.368  0.00  0.00    +0.000 N 
ATOM     13  C   UNL     1       3.600   2.941  18.247  0.00  0.00    +0.000 C 
ENDBRANCH   1  12
BRANCH   3  14
ATOM     14  C   UNL     1       6.734   4.743  14.328  0.00  0.00    +0.000 A 
ATOM     15  C   UNL     1       7.697   5.595  13.750  0.00  0.00    +0.000 A 
ATOM     16  C   UNL     1       8.070   5.466  12.406  0.00  0.00    +0.000 A 
ATOM     17  C   UNL     1       7.481   4.485  11.614  0.00  0.00    +0.000 A 
ATOM     18  C   UNL     1       6.501   3.658  12.160  0.00  0.00    +0.000 A 
ATOM     19  C   UNL     1       6.133   3.793  13.501  0.00  0.00    +0.000 A 
ATOM     20  F   UNL     1       5.196   2.957  13.976  0.00  0.00    +0.000 F 
ENDBRANCH   3  14
BRANCH   5  21
ATOM     21  C   UNL     1       7.219   5.258  19.130  0.00  0.00    +0.000 C 
ATOM     22  N   UNL     1       7.695   5.474  20.171  0.00  0.00    +0.000 NA
ENDBRANCH   5  21
TORSDOF 3
ENDMDL
MODEL 9
REMARK VINA RESULT:      -7.4      3.311      7.342
REMARK  Name = 
REMARK  5 active torsions:
REMARK  status: ('A' for Active; 'I' for Inactive)
REMARK    1  A    between atoms: C_1  and  C_2
REMARK    2  A    between atoms: C_4  and  C_5
REMARK    3  A    between atoms: N_7  and  C_8
REMARK    4  A    between atoms: C_10  and  C_11
REMARK    5  A    between atoms: C_19  and  C_20
REMARK                            x       y       z     vdW  Elec       q    Type
REMARK                         _______ _______ _______ _____ _____    ______ ____
ROOT
ATOM      1  C   UNL     1       3.903   6.215  18.261  0.00  0.00    +0.000 A 
ATOM      2  O   UNL     1       3.265   7.436  18.209  0.00  0.00    +0.000 OA
ATOM      3  C   UNL     1       2.285   7.376  19.171  0.00  0.00    +0.000 A 
ATOM      4  N   UNL     1       2.215   6.214  19.794  0.00  0.00    +0.000 NA
ATOM      5  C   UNL     1       3.234   5.485  19.230  0.00  0.00    +0.000 A 
ENDROOT
BRANCH   1  12
ATOM      6  C   UNL     1       7.755   5.161  18.345  0.00  0.00    +0.000 C 
ATOM      7  C   UNL     1       7.409   6.086  17.175  0.00  0.00    +0.000 C 
ATOM      8  C   UNL     1       7.287   5.313  15.855  0.00  0.00    +0.000 C 
ATOM      9  C   UNL     1       6.012   4.455  15.801  0.00  0.00    +0.000 C 
ATOM     10  C   UNL     1       5.903   3.778  14.436  0.00  0.00    +0.000 C 
ATOM     11  C   UNL     1       4.756   5.294  16.133  0.00  0.00    +0.000 C 
ATOM     12  N   UNL     1       4.955   5.979  17.419  0.00  0.00    +0.000 N 
ATOM     13  C   UNL     1       6.121   6.876  17.443  0.00  0.00    +0.000 C 
ENDBRANCH   1  12
BRANCH   3  14
ATOM     14  C   UNL     1       1.491   8.573  19.451  0.00  0.00    +0.000 A 
ATOM     15  C   UNL     1       1.114   9.413  18.384  0.00  0.00    +0.000 A 
ATOM     16  C   UNL     1       0.259  10.504  18.583  0.00  0.00    +0.000 A 
ATOM     17  C   UNL     1      -0.230  10.778  19.857  0.00  0.00    +0.000 A 
ATOM     18  C   UNL     1       0.161   9.979  20.930  0.00  0.00    +0.000 A 
ATOM     19  C   UNL     1       1.016   8.893  20.724  0.00  0.00    +0.000 A 
ATOM     20  F   UNL     1       1.344   8.149  21.791  0.00  0.00    +0.000 F 
ENDBRANCH   3  14
BRANCH   5  21
ATOM     21  C   UNL     1       3.469   4.145  19.648  0.00  0.00    +0.000 C 
ATOM     22  N   UNL     1       3.642   3.041  19.979  0.00  0.00    +0.000 NA
ENDBRANCH   5  21
TORSDOF 3
ENDMDL
