MODEL 1
REMARK VINA RESULT:      -7.2      0.000      0.000
REMARK  Name = 
REMARK  3 active torsions:
REMARK  status: ('A' for Active; 'I' for Inactive)
REMARK    1  A    between atoms: C_1  and  C_2
REMARK    2  A    between atoms: N_7  and  C_8
REMARK    3  A    between atoms: C_16  and  C_17
REMARK                            x       y       z     vdW  Elec       q    Type
REMARK                         _______ _______ _______ _____ _____    ______ ____
ROOT
ATOM      1  C   UNL     1       1.210   2.283  18.646  0.00  0.00    +0.000 C 
ATOM      2  C   UNL     1       2.519   2.230  17.865  0.00  0.00    +0.000 C 
ATOM      3  C   UNL     1       2.866   3.551  17.189  0.00  0.00    +0.000 C 
ATOM      4  N   UNL     1       3.248   4.584  18.163  0.00  0.00    +0.000 N 
ATOM      5  C   UNL     1       2.398   5.680  18.275  0.00  0.00    +0.000 C 
ATOM      6  O   UNL     1       1.361   5.727  17.610  0.00  0.00    +0.000 OA
ATOM      7  N   UNL     1       2.788   6.679  19.138  0.00  0.00    +0.000 N 
ATOM      8  C   UNL     1       4.396   4.243  19.028  0.00  0.00    +0.000 C 
ATOM      9  C   UNL     1       5.705   4.204  18.229  0.00  0.00    +0.000 C 
ATOM     10  C   UNL     1       4.146   2.916  19.752  0.00  0.00    +0.000 C 
ATOM     11  C   UNL     1       3.668   1.860  18.779  0.00  0.00    +0.000 C 
ATOM     12  O   UNL     1       4.145   0.725  18.784  0.00  0.00    +0.000 OA
ATOM     13  H   UNL     1       3.771   6.725  19.352  0.00  0.00    +0.000 HD
ENDROOT
BRANCH   7  14
ATOM     14  C   UNL     1       2.038   7.850  19.426  0.00  0.00    +0.000 A 
ATOM     15  C   UNL     1       1.818   8.870  18.493  0.00  0.00    +0.000 A 
ATOM     16  C   UNL     1       1.150  10.046  18.853  0.00  0.00    +0.000 A 
ATOM     17  C   UNL     1       0.667  10.207  20.148  0.00  0.00    +0.000 A 
ATOM     18 CL   UNL     1      -0.112  11.699  20.536  0.00  0.00    +0.000 Cl
ATOM     19  C   UNL     1       0.833   9.176  21.076  0.00  0.00    +0.000 A 
ATOM     20 CL   UNL     1       0.247   9.296  22.698  0.00  0.00    +0.000 Cl
ATOM     21  C   UNL     1       1.508   7.999  20.712  0.00  0.00    +0.000 A 
ENDBRANCH   7  14
TORSDOF 1
ENDMDL
MODEL 2
REMARK VINA RESULT:      -6.9      2.109      2.840
REMARK  Name = 
REMARK  3 active torsions:
REMARK  status: ('A' for Active; 'I' for Inactive)
REMARK    1  A    between atoms: C_1  and  C_2
REMARK    2  A    between atoms: N_7  and  C_8
REMARK    3  A    between atoms: C_16  and  C_17
REMARK                            x       y       z     vdW  Elec       q    Type
REMARK                         _______ _______ _______ _____ _____    ______ ____
ROOT
ATOM      1  C   UNL     1       5.545   4.332  19.453  0.00  0.00    +0.000 C 
ATOM      2  C   UNL     1       5.620   4.114  17.945  0.00  0.00    +0.000 C 
ATOM      3  C   UNL     1       4.354   4.545  17.214  0.00  0.00    +0.000 C 
ATOM      4  N   UNL     1       4.194   6.006  17.204  0.00  0.00    +0.000 N 
ATOM      5  C   UNL     1       3.110   6.520  17.910  0.00  0.00    +0.000 C 
ATOM      6  O   UNL     1       2.369   5.762  18.540  0.00  0.00    +0.000 OA
ATOM      7  N   UNL     1       2.921   7.882  17.847  0.00  0.00    +0.000 N 
ATOM      8  C   UNL     1       5.307   6.759  16.591  0.00  0.00    +0.000 C 
ATOM      9  C   UNL     1       5.363   6.536  15.074  0.00  0.00    +0.000 C 
ATOM     10  C   UNL     1       6.637   6.388  17.256  0.00  0.00    +0.000 C 
ATOM     11  C   UNL     1       6.782   4.886  17.355  0.00  0.00    +0.000 C 
ATOM     12  O   UNL     1       7.830   4.324  17.037  0.00  0.00    +0.000 OA
ATOM     13  H   UNL     1       3.334   8.354  17.058  0.00  0.00    +0.000 HD
ENDROOT
BRANCH   7  14
ATOM     14  C   UNL     1       1.906   8.599  18.533  0.00  0.00    +0.000 A 
ATOM     15  C   UNL     1       1.002   9.454  17.893  0.00  0.00    +0.000 A 
ATOM     16  C   UNL     1       0.078  10.208  18.626  0.00  0.00    +0.000 A 
ATOM     17  C   UNL     1       0.028  10.098  20.012  0.00  0.00    +0.000 A 
ATOM     18 CL   UNL     1      -1.107  11.086  20.857  0.00  0.00    +0.000 Cl
ATOM     19  C   UNL     1       0.889   9.208  20.662  0.00  0.00    +0.000 A 
ATOM     20 CL   UNL     1       0.875   9.004  22.378  0.00  0.00    +0.000 Cl
ATOM     21  C   UNL     1       1.818   8.456  19.923  0.00  0.00    +0.000 A 
ENDBRANCH   7  14
TORSDOF 1
ENDMDL
MODEL 3
REMARK VINA RESULT:      -6.7      0.798      1.595
REMARK  Name = 
REMARK  3 active torsions:
REMARK  status: ('A' for Active; 'I' for Inactive)
REMARK    1  A    between atoms: C_1  and  C_2
REMARK    2  A    between atoms: N_7  and  C_8
REMARK    3  A    between atoms: C_16  and  C_17
REMARK                            x       y       z     vdW  Elec       q    Type
REMARK                         _______ _______ _______ _____ _____    ______ ____
ROOT
ATOM      1  C   UNL     1       1.187   2.272  18.572  0.00  0.00    +0.000 C 
ATOM      2  C   UNL     1       2.527   2.335  17.847  0.00  0.00    +0.000 C 
ATOM      3  C   UNL     1       2.877   3.735  17.357  0.00  0.00    +0.000 C 
ATOM      4  N   UNL     1       3.200   4.643  18.468  0.00  0.00    +0.000 N 
ATOM      5  C   UNL     1       2.326   5.705  18.680  0.00  0.00    +0.000 C 
ATOM      6  O   UNL     1       1.317   5.822  17.982  0.00  0.00    +0.000 OA
ATOM      7  N   UNL     1       2.663   6.592  19.677  0.00  0.00    +0.000 N 
ATOM      8  C   UNL     1       4.318   4.210  19.332  0.00  0.00    +0.000 C 
ATOM      9  C   UNL     1       5.659   4.288  18.591  0.00  0.00    +0.000 C 
ATOM     10  C   UNL     1       4.063   2.799  19.873  0.00  0.00    +0.000 C 
ATOM     11  C   UNL     1       3.645   1.869  18.756  0.00  0.00    +0.000 C 
ATOM     12  O   UNL     1       4.142   0.748  18.639  0.00  0.00    +0.000 OA
ATOM     13  H   UNL     1       3.636   6.623  19.937  0.00  0.00    +0.000 HD
ENDROOT
BRANCH   7  14
ATOM     14  C   UNL     1       1.881   7.708  20.076  0.00  0.00    +0.000 A 
ATOM     15  C   UNL     1       1.152   7.748  21.270  0.00  0.00    +0.000 A 
ATOM     16  C   UNL     1       0.324   8.835  21.575  0.00  0.00    +0.000 A 
ATOM     17  C   UNL     1       0.233   9.911  20.698  0.00  0.00    +0.000 A 
ATOM     18 CL   UNL     1      -0.838  11.200  21.116  0.00  0.00    +0.000 Cl
ATOM     19  C   UNL     1       0.995   9.910  19.527  0.00  0.00    +0.000 A 
ATOM     20 CL   UNL     1       0.948  11.218  18.397  0.00  0.00    +0.000 Cl
ATOM     21  C   UNL     1       1.822   8.815  19.223  0.00  0.00    +0.000 A 
ENDBRANCH   7  14
TORSDOF 1
ENDMDL
MODEL 4
REMARK VINA RESULT:      -6.7      4.915      6.757
REMARK  Name = 
REMARK  3 active torsions:
REMARK  status: ('A' for Active; 'I' for Inactive)
REMARK    1  A    between atoms: C_1  and  C_2
REMARK    2  A    between atoms: N_7  and  C_8
REMARK    3  A    between atoms: C_16  and  C_17
REMARK                            x       y       z     vdW  Elec       q    Type
REMARK                         _______ _______ _______ _____ _____    ______ ____
ROOT
ATOM      1  C   UNL     1       2.206   5.606  20.318  0.00  0.00    +0.000 C 
ATOM      2  C   UNL     1       1.412   4.312  20.171  0.00  0.00    +0.000 C 
ATOM      3  C   UNL     1       1.478   3.726  18.766  0.00  0.00    +0.000 C 
ATOM      4  N   UNL     1       2.811   3.188  18.456  0.00  0.00    +0.000 N 
ATOM      5  C   UNL     1       3.527   3.834  17.453  0.00  0.00    +0.000 C 
ATOM      6  O   UNL     1       3.057   4.834  16.906  0.00  0.00    +0.000 OA
ATOM      7  N   UNL     1       4.747   3.292  17.117  0.00  0.00    +0.000 N 
ATOM      8  C   UNL     1       3.295   2.134  19.372  0.00  0.00    +0.000 C 
ATOM      9  C   UNL     1       2.493   0.837  19.205  0.00  0.00    +0.000 C 
ATOM     10  C   UNL     1       3.259   2.627  20.822  0.00  0.00    +0.000 C 
ATOM     11  C   UNL     1       1.924   3.263  21.136  0.00  0.00    +0.000 C 
ATOM     12  O   UNL     1       1.316   2.993  22.172  0.00  0.00    +0.000 OA
ATOM     13  H   UNL     1       4.881   2.320  17.346  0.00  0.00    +0.000 HD
ENDROOT
BRANCH   7  14
ATOM     14  C   UNL     1       5.644   3.830  16.157  0.00  0.00    +0.000 A 
ATOM     15  C   UNL     1       6.655   4.743  16.477  0.00  0.00    +0.000 A 
ATOM     16  C   UNL     1       7.455   5.314  15.480  0.00  0.00    +0.000 A 
ATOM     17  C   UNL     1       7.271   4.958  14.148  0.00  0.00    +0.000 A 
ATOM     18 CL   UNL     1       8.264   5.730  12.965  0.00  0.00    +0.000 Cl
ATOM     19  C   UNL     1       6.300   4.008  13.818  0.00  0.00    +0.000 A 
ATOM     20 CL   UNL     1       6.024   3.504  12.188  0.00  0.00    +0.000 Cl
ATOM     21  C   UNL     1       5.497   3.441  14.821  0.00  0.00    +0.000 A 
ENDBRANCH   7  14
TORSDOF 1
ENDMDL
MODEL 5
REMARK VINA RESULT:      -6.5      1.442      2.158
REMARK  Name = 
REMARK  3 active torsions:
REMARK  status: ('A' for Active; 'I' for Inactive)
REMARK    1  A    between atoms: C_1  and  C_2
REMARK    2  A    between atoms: N_7  and  C_8
REMARK    3  A    between atoms: C_16  and  C_17
REMARK                            x       y       z     vdW  Elec       q    Type
REMARK                         _______ _______ _______ _____ _____    ______ ____
ROOT
ATOM      1  C   UNL     1       4.248   3.850  16.889  0.00  0.00    +0.000 C 
ATOM      2  C   UNL     1       4.468   3.222  18.261  0.00  0.00    +0.000 C 
ATOM      3  C   UNL     1       4.549   4.249  19.384  0.00  0.00    +0.000 C 
ATOM      4  N   UNL     1       3.247   4.877  19.651  0.00  0.00    +0.000 N 
ATOM      5  C   UNL     1       3.143   6.237  19.374  0.00  0.00    +0.000 C 
ATOM      6  O   UNL     1       4.099   6.842  18.886  0.00  0.00    +0.000 OA
ATOM      7  N   UNL     1       1.945   6.840  19.686  0.00  0.00    +0.000 N 
ATOM      8  C   UNL     1       2.160   3.946  20.014  0.00  0.00    +0.000 C 
ATOM      9  C   UNL     1       2.391   3.329  21.400  0.00  0.00    +0.000 C 
ATOM     10  C   UNL     1       2.001   2.862  18.943  0.00  0.00    +0.000 C 
ATOM     11  C   UNL     1       3.344   2.261  18.590  0.00  0.00    +0.000 C 
ATOM     12  O   UNL     1       3.495   1.042  18.504  0.00  0.00    +0.000 OA
ATOM     13  H   UNL     1       1.379   6.378  20.379  0.00  0.00    +0.000 HD
ENDROOT
BRANCH   7  14
ATOM     14  C   UNL     1       1.627   8.202  19.437  0.00  0.00    +0.000 A 
ATOM     15  C   UNL     1       1.878   8.839  18.216  0.00  0.00    +0.000 A 
ATOM     16  C   UNL     1       1.630  10.207  18.052  0.00  0.00    +0.000 A 
ATOM     17  C   UNL     1       1.101  10.953  19.101  0.00  0.00    +0.000 A 
ATOM     18 CL   UNL     1       0.857  12.643  18.843  0.00  0.00    +0.000 Cl
ATOM     19  C   UNL     1       0.795  10.319  20.309  0.00  0.00    +0.000 A 
ATOM     20 CL   UNL     1       0.122  11.175  21.651  0.00  0.00    +0.000 Cl
ATOM     21  C   UNL     1       1.050   8.947  20.471  0.00  0.00    +0.000 A 
ENDBRANCH   7  14
TORSDOF 1
ENDMDL
MODEL 6
REMARK VINA RESULT:      -6.4      4.054      7.535
REMARK  Name = 
REMARK  3 active torsions:
REMARK  status: ('A' for Active; 'I' for Inactive)
REMARK    1  A    between atoms: C_1  and  C_2
REMARK    2  A    between atoms: N_7  and  C_8
REMARK    3  A    between atoms: C_16  and  C_17
REMARK                            x       y       z     vdW  Elec       q    Type
REMARK                         _______ _______ _______ _____ _____    ______ ____
ROOT
ATOM      1  C   UNL     1       2.056  12.300  18.642  0.00  0.00    +0.000 C 
ATOM      2  C   UNL     1       0.681  11.944  19.197  0.00  0.00    +0.000 C 
ATOM      3  C   UNL     1       0.166  10.598  18.702  0.00  0.00    +0.000 C 
ATOM      4  N   UNL     1       0.919   9.474  19.279  0.00  0.00    +0.000 N 
ATOM      5  C   UNL     1       1.674   8.710  18.394  0.00  0.00    +0.000 C 
ATOM      6  O   UNL     1       1.723   9.017  17.202  0.00  0.00    +0.000 OA
ATOM      7  N   UNL     1       2.327   7.619  18.922  0.00  0.00    +0.000 N 
ATOM      8  C   UNL     1       0.919   9.405  20.755  0.00  0.00    +0.000 C 
ATOM      9  C   UNL     1      -0.468   9.037  21.297  0.00  0.00    +0.000 C 
ATOM     10  C   UNL     1       1.417  10.725  21.353  0.00  0.00    +0.000 C 
ATOM     11  C   UNL     1       0.715  11.900  20.711  0.00  0.00    +0.000 C 
ATOM     12  O   UNL     1       0.257  12.819  21.390  0.00  0.00    +0.000 OA
ATOM     13  H   UNL     1       1.957   7.252  19.785  0.00  0.00    +0.000 HD
ENDROOT
BRANCH   7  14
ATOM     14  C   UNL     1       3.180   6.747  18.196  0.00  0.00    +0.000 A 
ATOM     15  C   UNL     1       4.275   7.193  17.447  0.00  0.00    +0.000 A 
ATOM     16  C   UNL     1       5.032   6.303  16.674  0.00  0.00    +0.000 A 
ATOM     17  C   UNL     1       4.718   4.947  16.661  0.00  0.00    +0.000 A 
ATOM     18 CL   UNL     1       5.666   3.912  15.656  0.00  0.00    +0.000 Cl
ATOM     19  C   UNL     1       3.660   4.479  17.446  0.00  0.00    +0.000 A 
ATOM     20 CL   UNL     1       3.220   2.809  17.494  0.00  0.00    +0.000 Cl
ATOM     21  C   UNL     1       2.901   5.377  18.216  0.00  0.00    +0.000 A 
ENDBRANCH   7  14
TORSDOF 1
ENDMDL
MODEL 7
REMARK VINA RESULT:      -6.3      1.734      2.411
REMARK  Name = 
REMARK  3 active torsions:
REMARK  status: ('A' for Active; 'I' for Inactive)
REMARK    1  A    between atoms: C_1  and  C_2
REMARK    2  A    between atoms: N_7  and  C_8
REMARK    3  A    between atoms: C_16  and  C_17
REMARK                            x       y       z     vdW  Elec       q    Type
REMARK                         _______ _______ _______ _____ _____    ______ ____
ROOT
ATOM      1  C   UNL     1       2.638   4.343  17.173  0.00  0.00    +0.000 C 
ATOM      2  C   UNL     1       3.235   3.596  18.360  0.00  0.00    +0.000 C 
ATOM      3  C   UNL     1       3.622   4.515  19.513  0.00  0.00    +0.000 C 
ATOM      4  N   UNL     1       2.443   5.073  20.191  0.00  0.00    +0.000 N 
ATOM      5  C   UNL     1       2.258   6.448  20.091  0.00  0.00    +0.000 C 
ATOM      6  O   UNL     1       3.037   7.128  19.419  0.00  0.00    +0.000 OA
ATOM      7  N   UNL     1       1.192   6.981  20.780  0.00  0.00    +0.000 N 
ATOM      8  C   UNL     1       1.504   4.077  20.748  0.00  0.00    +0.000 C 
ATOM      9  C   UNL     1       2.116   3.341  21.946  0.00  0.00    +0.000 C 
ATOM     10  C   UNL     1       1.059   3.093  19.660  0.00  0.00    +0.000 C 
ATOM     11  C   UNL     1       2.253   2.572  18.892  0.00  0.00    +0.000 C 
ATOM     12  O   UNL     1       2.380   1.373  18.646  0.00  0.00    +0.000 OA
ATOM     13  H   UNL     1       0.844   6.437  21.553  0.00  0.00    +0.000 HD
ENDROOT
BRANCH   7  14
ATOM     14  C   UNL     1       0.810   8.349  20.765  0.00  0.00    +0.000 A 
ATOM     15  C   UNL     1       1.177   9.238  19.749  0.00  0.00    +0.000 A 
ATOM     16  C   UNL     1       0.853  10.597  19.827  0.00  0.00    +0.000 A 
ATOM     17  C   UNL     1       0.132  11.082  20.914  0.00  0.00    +0.000 A 
ATOM     18 CL   UNL     1      -0.200  12.776  20.967  0.00  0.00    +0.000 Cl
ATOM     19  C   UNL     1      -0.287  10.197  21.911  0.00  0.00    +0.000 A 
ATOM     20 CL   UNL     1      -1.199  10.722  23.283  0.00  0.00    +0.000 Cl
ATOM     21  C   UNL     1       0.044   8.834  21.831  0.00  0.00    +0.000 A 
ENDBRANCH   7  14
TORSDOF 1
ENDMDL
MODEL 8
REMARK VINA RESULT:      -6.3      1.586      2.295
REMARK  Name = 
REMARK  3 active torsions:
REMARK  status: ('A' for Active; 'I' for Inactive)
REMARK    1  A    between atoms: C_1  and  C_2
REMARK    2  A    between atoms: N_7  and  C_8
REMARK    3  A    between atoms: C_16  and  C_17
REMARK                            x       y       z     vdW  Elec       q    Type
REMARK                         _______ _______ _______ _____ _____    ______ ____
ROOT
ATOM      1  C   UNL     1       2.576   2.797  21.674  0.00  0.00    +0.000 C 
ATOM      2  C   UNL     1       2.766   2.569  20.178  0.00  0.00    +0.000 C 
ATOM      3  C   UNL     1       1.978   3.549  19.318  0.00  0.00    +0.000 C 
ATOM      4  N   UNL     1       2.527   4.911  19.391  0.00  0.00    +0.000 N 
ATOM      5  C   UNL     1       1.720   5.878  19.981  0.00  0.00    +0.000 C 
ATOM      6  O   UNL     1       0.624   5.564  20.451  0.00  0.00    +0.000 OA
ATOM      7  N   UNL     1       2.205   7.166  19.991  0.00  0.00    +0.000 N 
ATOM      8  C   UNL     1       3.942   5.044  18.986  0.00  0.00    +0.000 C 
ATOM      9  C   UNL     1       4.115   4.820  17.478  0.00  0.00    +0.000 C 
ATOM     10  C   UNL     1       4.823   4.086  19.795  0.00  0.00    +0.000 C 
ATOM     11  C   UNL     1       4.229   2.695  19.804  0.00  0.00    +0.000 C 
ATOM     12  O   UNL     1       4.924   1.702  19.589  0.00  0.00    +0.000 OA
ATOM     13  H   UNL     1       2.905   7.385  19.299  0.00  0.00    +0.000 HD
ENDROOT
BRANCH   7  14
ATOM     14  C   UNL     1       1.555   8.280  20.585  0.00  0.00    +0.000 A 
ATOM     15  C   UNL     1       1.411   8.437  21.968  0.00  0.00    +0.000 A 
ATOM     16  C   UNL     1       0.682   9.507  22.501  0.00  0.00    +0.000 A 
ATOM     17  C   UNL     1       0.108  10.452  21.656  0.00  0.00    +0.000 A 
ATOM     18 CL   UNL     1      -0.811  11.723  22.378  0.00  0.00    +0.000 Cl
ATOM     19  C   UNL     1       0.289  10.338  20.275  0.00  0.00    +0.000 A 
ATOM     20 CL   UNL     1      -0.380  11.480  19.163  0.00  0.00    +0.000 Cl
ATOM     21  C   UNL     1       1.017   9.260  19.744  0.00  0.00    +0.000 A 
ENDBRANCH   7  14
TORSDOF 1
ENDMDL
MODEL 9
REMARK VINA RESULT:      -6.2      1.890      2.862
REMARK  Name = 
REMARK  3 active torsions:
REMARK  status: ('A' for Active; 'I' for Inactive)
REMARK    1  A    between atoms: C_1  and  C_2
REMARK    2  A    between atoms: N_7  and  C_8
REMARK    3  A    between atoms: C_16  and  C_17
REMARK                            x       y       z     vdW  Elec       q    Type
REMARK                         _______ _______ _______ _____ _____    ______ ____
ROOT
ATOM      1  C   UNL     1       1.588   4.424  17.210  0.00  0.00    +0.000 C 
ATOM      2  C   UNL     1       2.470   3.642  18.179  0.00  0.00    +0.000 C 
ATOM      3  C   UNL     1       3.183   4.532  19.190  0.00  0.00    +0.000 C 
ATOM      4  N   UNL     1       2.252   5.104  20.173  0.00  0.00    +0.000 N 
ATOM      5  C   UNL     1       2.084   6.485  20.143  0.00  0.00    +0.000 C 
ATOM      6  O   UNL     1       2.665   7.158  19.290  0.00  0.00    +0.000 OA
ATOM      7  N   UNL     1       1.263   7.029  21.105  0.00  0.00    +0.000 N 
ATOM      8  C   UNL     1       1.477   4.120  20.956  0.00  0.00    +0.000 C 
ATOM      9  C   UNL     1       2.375   3.349  21.931  0.00  0.00    +0.000 C 
ATOM     10  C   UNL     1       0.723   3.166  20.023  0.00  0.00    +0.000 C 
ATOM     11  C   UNL     1       1.645   2.632  18.950  0.00  0.00    +0.000 C 
ATOM     12  O   UNL     1       1.667   1.434  18.665  0.00  0.00    +0.000 OA
ATOM     13  H   UNL     1       1.128   6.479  21.939  0.00  0.00    +0.000 HD
ENDROOT
BRANCH   7  14
ATOM     14  C   UNL     1       0.929   8.405  21.212  0.00  0.00    +0.000 A 
ATOM     15  C   UNL     1       0.432   8.986  22.383  0.00  0.00    +0.000 A 
ATOM     16  C   UNL     1       0.031  10.328  22.410  0.00  0.00    +0.000 A 
ATOM     17  C   UNL     1       0.147  11.114  21.268  0.00  0.00    +0.000 A 
ATOM     18 CL   UNL     1      -0.403  12.749  21.359  0.00  0.00    +0.000 Cl
ATOM     19  C   UNL     1       0.691  10.562  20.105  0.00  0.00    +0.000 A 
ATOM     20 CL   UNL     1       0.881  11.480  18.653  0.00  0.00    +0.000 Cl
ATOM     21  C   UNL     1       1.088   9.214  20.081  0.00  0.00    +0.000 A 
ENDBRANCH   7  14
TORSDOF 1
ENDMDL
