MODEL 1
REMARK VINA RESULT:      -7.6      0.000      0.000
REMARK  Name = 
REMARK  12 active torsions:
REMARK  status: ('A' for Active; 'I' for Inactive)
REMARK    1  A    between atoms: C_1  and  O_2
REMARK    2  A    between atoms: O_2  and  C_3
REMARK    3  A    between atoms: C_8  and  O_9
REMARK    4  A    between atoms: O_9  and  C_10
REMARK    5  A    between atoms: N_14  and  C_15
REMARK    6  A    between atoms: C_15  and  C_16
REMARK    7  A    between atoms: C_16  and  C_17
REMARK    8  A    between atoms: C_17  and  N_18
REMARK    9  A    between atoms: N_18  and  C_19
REMARK   10  A    between atoms: N_18  and  C_20
REMARK   11  A    between atoms: C_20  and  C_21
REMARK   12  A    between atoms: C_21  and  C_22
REMARK                            x       y       z     vdW  Elec       q    Type
REMARK                         _______ _______ _______ _____ _____    ______ ____
ROOT
ATOM      1  C   UNL     1      -0.266  12.866  21.108  0.00  0.00    +0.000 A 
ATOM      2  C   UNL     1      -0.280  11.530  21.520  0.00  0.00    +0.000 A 
ATOM      3  C   UNL     1       0.052  10.495  20.637  0.00  0.00    +0.000 A 
ATOM      4  C   UNL     1       0.380  10.799  19.310  0.00  0.00    +0.000 A 
ATOM      5  C   UNL     1       0.336  12.141  18.885  0.00  0.00    +0.000 A 
ATOM      6  C   UNL     1       0.013  13.179  19.770  0.00  0.00    +0.000 A 
ATOM      7  C   UNL     1       0.669   9.712  18.305  0.00  0.00    +0.000 C 
ATOM      8  C   UNL     1       1.850   8.792  18.574  0.00  0.00    +0.000 C 
ATOM      9  O   UNL     1       2.754   8.675  17.745  0.00  0.00    +0.000 OA
ATOM     10  N   UNL     1       1.715   7.926  19.658  0.00  0.00    +0.000 N 
ATOM     11  C   UNL     1       1.439   8.444  20.996  0.00  0.00    +0.000 C 
ATOM     12  C   UNL     1       0.057   9.074  21.142  0.00  0.00    +0.000 C 
ENDROOT
BRANCH   1  14
ATOM     13  C   UNL     1      -1.199  13.500  23.174  0.00  0.00    +0.000 C 
ATOM     14  O   UNL     1      -0.555  13.900  21.966  0.00  0.00    +0.000 OA
ENDBRANCH   1  14
BRANCH   6  15
ATOM     15  O   UNL     1      -0.043  14.505  19.426  0.00  0.00    +0.000 OA
ATOM     16  C   UNL     1       1.177  15.143  19.073  0.00  0.00    +0.000 C 
ENDBRANCH   6  15
BRANCH  10  17
ATOM     17  C   UNL     1       2.314   6.597  19.551  0.00  0.00    +0.000 C 
BRANCH  17  18
ATOM     18  C   UNL     1       1.964   5.632  20.682  0.00  0.00    +0.000 C 
BRANCH  18  19
ATOM     19  C   UNL     1       1.277   4.358  20.146  0.00  0.00    +0.000 C 
BRANCH  19  20
ATOM     20  N   UNL     1       1.981   3.093  20.433  0.00  0.00    +0.000 NA
ATOM     21  C   UNL     1       1.524   2.509  21.701  0.00  0.00    +0.000 C 
BRANCH  20  22
ATOM     22  C   UNL     1       1.821   2.082  19.355  0.00  0.00    +0.000 C 
BRANCH  22  23
ATOM     23  C   UNL     1       2.117   2.653  17.972  0.00  0.00    +0.000 C 
BRANCH  23  24
ATOM     24  C   UNL     1       3.484   3.210  17.792  0.00  0.00    +0.000 A 
ATOM     25  C   UNL     1       4.563   3.224  18.649  0.00  0.00    +0.000 A 
ATOM     26  C   UNL     1       5.301   4.382  18.305  0.00  0.00    +0.000 A 
ATOM     27  C   UNL     1       6.287   5.157  18.931  0.00  0.00    +0.000 A 
ATOM     28  C   UNL     1       6.783   6.283  18.262  0.00  0.00    +0.000 A 
ATOM     29  C   UNL     1       6.373   6.579  16.966  0.00  0.00    +0.000 A 
ATOM     30  C   UNL     1       5.370   5.827  16.327  0.00  0.00    +0.000 A 
ATOM     31  C   UNL     1       4.817   4.780  17.069  0.00  0.00    +0.000 A 
ATOM     32  O   UNL     1       3.705   4.054  16.740  0.00  0.00    +0.000 OA
ENDBRANCH  23  24
ENDBRANCH  22  23
ENDBRANCH  20  22
ENDBRANCH  19  20
ENDBRANCH  18  19
ENDBRANCH  17  18
ENDBRANCH  10  17
TORSDOF 9
ENDMDL
MODEL 2
REMARK VINA RESULT:      -7.4      1.020      1.302
REMARK  Name = 
REMARK  12 active torsions:
REMARK  status: ('A' for Active; 'I' for Inactive)
REMARK    1  A    between atoms: C_1  and  O_2
REMARK    2  A    between atoms: O_2  and  C_3
REMARK    3  A    between atoms: C_8  and  O_9
REMARK    4  A    between atoms: O_9  and  C_10
REMARK    5  A    between atoms: N_14  and  C_15
REMARK    6  A    between atoms: C_15  and  C_16
REMARK    7  A    between atoms: C_16  and  C_17
REMARK    8  A    between atoms: C_17  and  N_18
REMARK    9  A    between atoms: N_18  and  C_19
REMARK   10  A    between atoms: N_18  and  C_20
REMARK   11  A    between atoms: C_20  and  C_21
REMARK   12  A    between atoms: C_21  and  C_22
REMARK                            x       y       z     vdW  Elec       q    Type
REMARK                         _______ _______ _______ _____ _____    ______ ____
ROOT
ATOM      1  C   UNL     1      -0.788  13.158  21.522  0.00  0.00    +0.000 A 
ATOM      2  C   UNL     1      -0.622  11.839  21.956  0.00  0.00    +0.000 A 
ATOM      3  C   UNL     1      -0.281  10.818  21.060  0.00  0.00    +0.000 A 
ATOM      4  C   UNL     1      -0.129  11.116  19.700  0.00  0.00    +0.000 A 
ATOM      5  C   UNL     1      -0.354  12.435  19.259  0.00  0.00    +0.000 A 
ATOM      6  C   UNL     1      -0.685  13.459  20.156  0.00  0.00    +0.000 A 
ATOM      7  C   UNL     1       0.162  10.036  18.688  0.00  0.00    +0.000 C 
ATOM      8  C   UNL     1       1.453   9.246  18.843  0.00  0.00    +0.000 C 
ATOM      9  O   UNL     1       2.271   9.197  17.923  0.00  0.00    +0.000 OA
ATOM     10  N   UNL     1       1.522   8.401  19.950  0.00  0.00    +0.000 N 
ATOM     11  C   UNL     1       1.338   8.926  21.301  0.00  0.00    +0.000 C 
ATOM     12  C   UNL     1      -0.078   9.419  21.585  0.00  0.00    +0.000 C 
ENDROOT
BRANCH   1  14
ATOM     13  C   UNL     1      -2.327  14.025  23.077  0.00  0.00    +0.000 C 
ATOM     14  O   UNL     1      -1.088  14.181  22.389  0.00  0.00    +0.000 OA
ENDBRANCH   1  14
BRANCH   6  15
ATOM     15  O   UNL     1      -0.913  14.764  19.799  0.00  0.00    +0.000 OA
ATOM     16  C   UNL     1       0.216  15.555  19.456  0.00  0.00    +0.000 C 
ENDBRANCH   6  15
BRANCH  10  17
ATOM     17  C   UNL     1       2.239   7.136  19.801  0.00  0.00    +0.000 C 
BRANCH  17  18
ATOM     18  C   UNL     1       1.709   5.983  20.652  0.00  0.00    +0.000 C 
BRANCH  18  19
ATOM     19  C   UNL     1       1.145   4.846  19.773  0.00  0.00    +0.000 C 
BRANCH  19  20
ATOM     20  N   UNL     1       1.216   3.497  20.367  0.00  0.00    +0.000 NA
ATOM     21  C   UNL     1       0.796   2.472  19.403  0.00  0.00    +0.000 C 
BRANCH  20  22
ATOM     22  C   UNL     1       2.572   3.153  20.870  0.00  0.00    +0.000 C 
BRANCH  22  23
ATOM     23  C   UNL     1       3.409   2.414  19.832  0.00  0.00    +0.000 C 
BRANCH  23  24
ATOM     24  C   UNL     1       4.307   3.269  19.011  0.00  0.00    +0.000 A 
ATOM     25  C   UNL     1       4.837   4.514  19.270  0.00  0.00    +0.000 A 
ATOM     26  C   UNL     1       5.015   5.119  18.002  0.00  0.00    +0.000 A 
ATOM     27  C   UNL     1       5.200   6.429  17.541  0.00  0.00    +0.000 A 
ATOM     28  C   UNL     1       5.323   6.647  16.163  0.00  0.00    +0.000 A 
ATOM     29  C   UNL     1       5.348   5.577  15.273  0.00  0.00    +0.000 A 
ATOM     30  C   UNL     1       5.142   4.256  15.713  0.00  0.00    +0.000 A 
ATOM     31  C   UNL     1       4.910   4.090  17.080  0.00  0.00    +0.000 A 
ATOM     32  O   UNL     1       4.487   2.943  17.696  0.00  0.00    +0.000 OA
ENDBRANCH  23  24
ENDBRANCH  22  23
ENDBRANCH  20  22
ENDBRANCH  19  20
ENDBRANCH  18  19
ENDBRANCH  17  18
ENDBRANCH  10  17
TORSDOF 9
ENDMDL
MODEL 3
REMARK VINA RESULT:      -7.4      2.640      5.324
REMARK  Name = 
REMARK  12 active torsions:
REMARK  status: ('A' for Active; 'I' for Inactive)
REMARK    1  A    between atoms: C_1  and  O_2
REMARK    2  A    between atoms: O_2  and  C_3
REMARK    3  A    between atoms: C_8  and  O_9
REMARK    4  A    between atoms: O_9  and  C_10
REMARK    5  A    between atoms: N_14  and  C_15
REMARK    6  A    between atoms: C_15  and  C_16
REMARK    7  A    between atoms: C_16  and  C_17
REMARK    8  A    between atoms: C_17  and  N_18
REMARK    9  A    between atoms: N_18  and  C_19
REMARK   10  A    between atoms: N_18  and  C_20
REMARK   11  A    between atoms: C_20  and  C_21
REMARK   12  A    between atoms: C_21  and  C_22
REMARK                            x       y       z     vdW  Elec       q    Type
REMARK                         _______ _______ _______ _____ _____    ______ ____
ROOT
ATOM      1  C   UNL     1       1.533   7.946  20.215  0.00  0.00    +0.000 A 
ATOM      2  C   UNL     1       2.405   6.857  20.299  0.00  0.00    +0.000 A 
ATOM      3  C   UNL     1       3.335   6.593  19.285  0.00  0.00    +0.000 A 
ATOM      4  C   UNL     1       3.377   7.420  18.155  0.00  0.00    +0.000 A 
ATOM      5  C   UNL     1       2.456   8.481  18.050  0.00  0.00    +0.000 A 
ATOM      6  C   UNL     1       1.532   8.751  19.067  0.00  0.00    +0.000 A 
ATOM      7  C   UNL     1       4.308   7.130  17.006  0.00  0.00    +0.000 C 
ATOM      8  C   UNL     1       5.803   7.135  17.284  0.00  0.00    +0.000 C 
ATOM      9  O   UNL     1       6.557   7.872  16.646  0.00  0.00    +0.000 OA
ATOM     10  N   UNL     1       6.277   6.101  18.091  0.00  0.00    +0.000 N 
ATOM     11  C   UNL     1       5.733   5.892  19.430  0.00  0.00    +0.000 C 
ATOM     12  C   UNL     1       4.279   5.428  19.441  0.00  0.00    +0.000 C 
ENDROOT
BRANCH   1  14
ATOM     13  C   UNL     1       1.127   9.153  22.195  0.00  0.00    +0.000 C 
ATOM     14  O   UNL     1       0.636   8.243  21.214  0.00  0.00    +0.000 OA
ENDBRANCH   1  14
BRANCH   6  15
ATOM     15  O   UNL     1       0.612   9.769  19.034  0.00  0.00    +0.000 OA
ATOM     16  C   UNL     1       1.108  11.097  18.934  0.00  0.00    +0.000 C 
ENDBRANCH   6  15
BRANCH  10  17
ATOM     17  C   UNL     1       7.604   5.560  17.803  0.00  0.00    +0.000 C 
BRANCH  17  18
ATOM     18  C   UNL     1       7.620   4.287  16.959  0.00  0.00    +0.000 C 
BRANCH  18  19
ATOM     19  C   UNL     1       7.206   4.571  15.500  0.00  0.00    +0.000 C 
BRANCH  19  20
ATOM     20  N   UNL     1       5.761   4.454  15.221  0.00  0.00    +0.000 NA
ATOM     21  C   UNL     1       5.523   3.962  13.858  0.00  0.00    +0.000 C 
BRANCH  20  22
ATOM     22  C   UNL     1       5.054   3.565  16.180  0.00  0.00    +0.000 C 
BRANCH  22  23
ATOM     23  C   UNL     1       3.537   3.635  16.030  0.00  0.00    +0.000 C 
BRANCH  23  24
ATOM     24  C   UNL     1       2.759   3.165  17.206  0.00  0.00    +0.000 A 
ATOM     25  C   UNL     1       1.529   3.564  17.682  0.00  0.00    +0.000 A 
ATOM     26  C   UNL     1       1.573   3.335  19.078  0.00  0.00    +0.000 A 
ATOM     27  C   UNL     1       0.836   3.780  20.184  0.00  0.00    +0.000 A 
ATOM     28  C   UNL     1       1.202   3.334  21.460  0.00  0.00    +0.000 A 
ATOM     29  C   UNL     1       2.220   2.401  21.623  0.00  0.00    +0.000 A 
ATOM     30  C   UNL     1       2.988   1.958  20.529  0.00  0.00    +0.000 A 
ATOM     31  C   UNL     1       2.667   2.511  19.287  0.00  0.00    +0.000 A 
ATOM     32  O   UNL     1       3.396   2.390  18.135  0.00  0.00    +0.000 OA
ENDBRANCH  23  24
ENDBRANCH  22  23
ENDBRANCH  20  22
ENDBRANCH  19  20
ENDBRANCH  18  19
ENDBRANCH  17  18
ENDBRANCH  10  17
TORSDOF 9
ENDMDL
MODEL 4
REMARK VINA RESULT:      -7.3      1.169      1.614
REMARK  Name = 
REMARK  12 active torsions:
REMARK  status: ('A' for Active; 'I' for Inactive)
REMARK    1  A    between atoms: C_1  and  O_2
REMARK    2  A    between atoms: O_2  and  C_3
REMARK    3  A    between atoms: C_8  and  O_9
REMARK    4  A    between atoms: O_9  and  C_10
REMARK    5  A    between atoms: N_14  and  C_15
REMARK    6  A    between atoms: C_15  and  C_16
REMARK    7  A    between atoms: C_16  and  C_17
REMARK    8  A    between atoms: C_17  and  N_18
REMARK    9  A    between atoms: N_18  and  C_19
REMARK   10  A    between atoms: N_18  and  C_20
REMARK   11  A    between atoms: C_20  and  C_21
REMARK   12  A    between atoms: C_21  and  C_22
REMARK                            x       y       z     vdW  Elec       q    Type
REMARK                         _______ _______ _______ _____ _____    ______ ____
ROOT
ATOM      1  C   UNL     1       0.821  12.543  20.884  0.00  0.00    +0.000 A 
ATOM      2  C   UNL     1       0.554  11.228  21.274  0.00  0.00    +0.000 A 
ATOM      3  C   UNL     1       0.730  10.158  20.387  0.00  0.00    +0.000 A 
ATOM      4  C   UNL     1       1.158  10.411  19.078  0.00  0.00    +0.000 A 
ATOM      5  C   UNL     1       1.369  11.744  18.673  0.00  0.00    +0.000 A 
ATOM      6  C   UNL     1       1.202  12.814  19.562  0.00  0.00    +0.000 A 
ATOM      7  C   UNL     1       1.288   9.300  18.067  0.00  0.00    +0.000 C 
ATOM      8  C   UNL     1       2.276   8.182  18.363  0.00  0.00    +0.000 C 
ATOM      9  O   UNL     1       3.176   7.914  17.565  0.00  0.00    +0.000 OA
ATOM     10  N   UNL     1       1.948   7.344  19.428  0.00  0.00    +0.000 N 
ATOM     11  C   UNL     1       1.717   7.889  20.763  0.00  0.00    +0.000 C 
ATOM     12  C   UNL     1       0.464   8.754  20.869  0.00  0.00    +0.000 C 
ENDROOT
BRANCH   1  14
ATOM     13  C   UNL     1      -0.655  13.873  22.146  0.00  0.00    +0.000 C 
ATOM     14  O   UNL     1       0.687  13.604  21.748  0.00  0.00    +0.000 OA
ENDBRANCH   1  14
BRANCH   6  15
ATOM     15  O   UNL     1       1.395  14.132  19.238  0.00  0.00    +0.000 OA
ATOM     16  C   UNL     1       2.632  14.484  18.635  0.00  0.00    +0.000 C 
ENDBRANCH   6  15
BRANCH  10  17
ATOM     17  C   UNL     1       2.305   5.930  19.322  0.00  0.00    +0.000 C 
BRANCH  17  18
ATOM     18  C   UNL     1       1.692   5.021  20.384  0.00  0.00    +0.000 C 
BRANCH  18  19
ATOM     19  C   UNL     1       2.477   3.699  20.519  0.00  0.00    +0.000 C 
BRANCH  19  20
ATOM     20  N   UNL     1       1.907   2.550  19.787  0.00  0.00    +0.000 NA
ATOM     21  C   UNL     1       0.454   2.692  19.628  0.00  0.00    +0.000 C 
BRANCH  20  22
ATOM     22  C   UNL     1       2.518   2.355  18.446  0.00  0.00    +0.000 C 
BRANCH  22  23
ATOM     23  C   UNL     1       4.042   2.414  18.486  0.00  0.00    +0.000 C 
BRANCH  23  24
ATOM     24  C   UNL     1       4.627   3.780  18.445  0.00  0.00    +0.000 A 
ATOM     25  C   UNL     1       4.545   4.759  17.480  0.00  0.00    +0.000 A 
ATOM     26  C   UNL     1       5.742   5.506  17.599  0.00  0.00    +0.000 A 
ATOM     27  C   UNL     1       6.442   6.402  16.779  0.00  0.00    +0.000 A 
ATOM     28  C   UNL     1       7.645   6.944  17.249  0.00  0.00    +0.000 A 
ATOM     29  C   UNL     1       8.094   6.671  18.537  0.00  0.00    +0.000 A 
ATOM     30  C   UNL     1       7.417   5.758  19.368  0.00  0.00    +0.000 A 
ATOM     31  C   UNL     1       6.284   5.150  18.823  0.00  0.00    +0.000 A 
ATOM     32  O   UNL     1       5.595   4.096  19.358  0.00  0.00    +0.000 OA
ENDBRANCH  23  24
ENDBRANCH  22  23
ENDBRANCH  20  22
ENDBRANCH  19  20
ENDBRANCH  18  19
ENDBRANCH  17  18
ENDBRANCH  10  17
TORSDOF 9
ENDMDL
MODEL 5
REMARK VINA RESULT:      -7.3      1.040      1.382
REMARK  Name = 
REMARK  12 active torsions:
REMARK  status: ('A' for Active; 'I' for Inactive)
REMARK    1  A    between atoms: C_1  and  O_2
REMARK    2  A    between atoms: O_2  and  C_3
REMARK    3  A    between atoms: C_8  and  O_9
REMARK    4  A    between atoms: O_9  and  C_10
REMARK    5  A    between atoms: N_14  and  C_15
REMARK    6  A    between atoms: C_15  and  C_16
REMARK    7  A    between atoms: C_16  and  C_17
REMARK    8  A    between atoms: C_17  and  N_18
REMARK    9  A    between atoms: N_18  and  C_19
REMARK   10  A    between atoms: N_18  and  C_20
REMARK   11  A    between atoms: C_20  and  C_21
REMARK   12  A    between atoms: C_21  and  C_22
REMARK                            x       y       z     vdW  Elec       q    Type
REMARK                         _______ _______ _______ _____ _____    ______ ____
ROOT
ATOM      1  C   UNL     1      -0.077  12.567  21.861  0.00  0.00    +0.000 A 
ATOM      2  C   UNL     1      -0.159  11.193  22.106  0.00  0.00    +0.000 A 
ATOM      3  C   UNL     1       0.131  10.258  21.104  0.00  0.00    +0.000 A 
ATOM      4  C   UNL     1       0.484  10.706  19.825  0.00  0.00    +0.000 A 
ATOM      5  C   UNL     1       0.509  12.090  19.567  0.00  0.00    +0.000 A 
ATOM      6  C   UNL     1       0.229  13.026  20.572  0.00  0.00    +0.000 A 
ATOM      7  C   UNL     1       0.730   9.737  18.696  0.00  0.00    +0.000 C 
ATOM      8  C   UNL     1       1.863   8.735  18.853  0.00  0.00    +0.000 C 
ATOM      9  O   UNL     1       2.768   8.677  18.018  0.00  0.00    +0.000 OA
ATOM     10  N   UNL     1       1.677   7.751  19.822  0.00  0.00    +0.000 N 
ATOM     11  C   UNL     1       1.415   8.113  21.213  0.00  0.00    +0.000 C 
ATOM     12  C   UNL     1       0.064   8.788  21.431  0.00  0.00    +0.000 C 
ENDROOT
BRANCH   1  14
ATOM     13  C   UNL     1      -1.662  13.500  23.329  0.00  0.00    +0.000 C 
ATOM     14  O   UNL     1      -0.323  13.501  22.839  0.00  0.00    +0.000 OA
ENDBRANCH   1  14
BRANCH   6  15
ATOM     15  O   UNL     1       0.239  14.386  20.393  0.00  0.00    +0.000 OA
ATOM     16  C   UNL     1      -0.724  14.938  19.506  0.00  0.00    +0.000 C 
ENDBRANCH   6  15
BRANCH  10  17
ATOM     17  C   UNL     1       2.213   6.417  19.555  0.00  0.00    +0.000 C 
BRANCH  17  18
ATOM     18  C   UNL     1       1.814   5.340  20.563  0.00  0.00    +0.000 C 
BRANCH  18  19
ATOM     19  C   UNL     1       1.840   3.934  19.927  0.00  0.00    +0.000 C 
BRANCH  19  20
ATOM     20  N   UNL     1       3.178   3.439  19.546  0.00  0.00    +0.000 NA
ATOM     21  C   UNL     1       3.657   2.425  20.495  0.00  0.00    +0.000 C 
BRANCH  20  22
ATOM     22  C   UNL     1       3.217   2.868  18.175  0.00  0.00    +0.000 C 
BRANCH  22  23
ATOM     23  C   UNL     1       3.508   3.923  17.112  0.00  0.00    +0.000 C 
BRANCH  23  24
ATOM     24  C   UNL     1       4.878   4.501  17.147  0.00  0.00    +0.000 A 
ATOM     25  C   UNL     1       5.980   4.141  17.890  0.00  0.00    +0.000 A 
ATOM     26  C   UNL     1       6.727   5.333  18.056  0.00  0.00    +0.000 A 
ATOM     27  C   UNL     1       7.742   5.760  18.924  0.00  0.00    +0.000 A 
ATOM     28  C   UNL     1       8.237   7.063  18.791  0.00  0.00    +0.000 A 
ATOM     29  C   UNL     1       7.796   7.890  17.764  0.00  0.00    +0.000 A 
ATOM     30  C   UNL     1       6.763   7.489  16.895  0.00  0.00    +0.000 A 
ATOM     31  C   UNL     1       6.215   6.226  17.130  0.00  0.00    +0.000 A 
ATOM     32  O   UNL     1       5.082   5.716  16.555  0.00  0.00    +0.000 OA
ENDBRANCH  23  24
ENDBRANCH  22  23
ENDBRANCH  20  22
ENDBRANCH  19  20
ENDBRANCH  18  19
ENDBRANCH  17  18
ENDBRANCH  10  17
TORSDOF 9
ENDMDL
MODEL 6
REMARK VINA RESULT:      -7.3      1.391      1.729
REMARK  Name = 
REMARK  12 active torsions:
REMARK  status: ('A' for Active; 'I' for Inactive)
REMARK    1  A    between atoms: C_1  and  O_2
REMARK    2  A    between atoms: O_2  and  C_3
REMARK    3  A    between atoms: C_8  and  O_9
REMARK    4  A    between atoms: O_9  and  C_10
REMARK    5  A    between atoms: N_14  and  C_15
REMARK    6  A    between atoms: C_15  and  C_16
REMARK    7  A    between atoms: C_16  and  C_17
REMARK    8  A    between atoms: C_17  and  N_18
REMARK    9  A    between atoms: N_18  and  C_19
REMARK   10  A    between atoms: N_18  and  C_20
REMARK   11  A    between atoms: C_20  and  C_21
REMARK   12  A    between atoms: C_21  and  C_22
REMARK                            x       y       z     vdW  Elec       q    Type
REMARK                         _______ _______ _______ _____ _____    ______ ____
ROOT
ATOM      1  C   UNL     1       1.223  12.834  20.679  0.00  0.00    +0.000 A 
ATOM      2  C   UNL     1       0.753  11.561  21.015  0.00  0.00    +0.000 A 
ATOM      3  C   UNL     1       0.914  10.475  20.145  0.00  0.00    +0.000 A 
ATOM      4  C   UNL     1       1.536  10.670  18.906  0.00  0.00    +0.000 A 
ATOM      5  C   UNL     1       1.956  11.967  18.548  0.00  0.00    +0.000 A 
ATOM      6  C   UNL     1       1.804  13.052  19.421  0.00  0.00    +0.000 A 
ATOM      7  C   UNL     1       1.663   9.548  17.907  0.00  0.00    +0.000 C 
ATOM      8  C   UNL     1       2.463   8.321  18.315  0.00  0.00    +0.000 C 
ATOM      9  O   UNL     1       3.421   7.944  17.637  0.00  0.00    +0.000 OA
ATOM     10  N   UNL     1       1.901   7.531  19.317  0.00  0.00    +0.000 N 
ATOM     11  C   UNL     1       1.565   8.105  20.618  0.00  0.00    +0.000 C 
ATOM     12  C   UNL     1       0.422   9.115  20.571  0.00  0.00    +0.000 C 
ENDROOT
BRANCH   1  14
ATOM     13  C   UNL     1      -0.059  14.700  21.321  0.00  0.00    +0.000 C 
ATOM     14  O   UNL     1       1.106  13.905  21.531  0.00  0.00    +0.000 OA
ENDBRANCH   1  14
BRANCH   6  15
ATOM     15  O   UNL     1       2.193  14.337  19.141  0.00  0.00    +0.000 OA
ATOM     16  C   UNL     1       2.700  14.599  17.840  0.00  0.00    +0.000 C 
ENDBRANCH   6  15
BRANCH  10  17
ATOM     17  C   UNL     1       2.098   6.085  19.241  0.00  0.00    +0.000 C 
BRANCH  17  18
ATOM     18  C   UNL     1       1.537   5.287  20.417  0.00  0.00    +0.000 C 
BRANCH  18  19
ATOM     19  C   UNL     1       2.624   4.412  21.075  0.00  0.00    +0.000 C 
BRANCH  19  20
ATOM     20  N   UNL     1       2.410   2.955  20.970  0.00  0.00    +0.000 NA
ATOM     21  C   UNL     1       1.390   2.500  21.925  0.00  0.00    +0.000 C 
BRANCH  20  22
ATOM     22  C   UNL     1       2.013   2.523  19.604  0.00  0.00    +0.000 C 
BRANCH  22  23
ATOM     23  C   UNL     1       3.208   2.088  18.761  0.00  0.00    +0.000 C 
BRANCH  23  24
ATOM     24  C   UNL     1       3.871   3.172  17.990  0.00  0.00    +0.000 A 
ATOM     25  C   UNL     1       3.606   3.664  16.731  0.00  0.00    +0.000 A 
ATOM     26  C   UNL     1       4.847   4.142  16.244  0.00  0.00    +0.000 A 
ATOM     27  C   UNL     1       5.365   4.464  14.982  0.00  0.00    +0.000 A 
ATOM     28  C   UNL     1       6.691   4.903  14.891  0.00  0.00    +0.000 A 
ATOM     29  C   UNL     1       7.456   5.100  16.036  0.00  0.00    +0.000 A 
ATOM     30  C   UNL     1       6.963   4.762  17.311  0.00  0.00    +0.000 A 
ATOM     31  C   UNL     1       5.676   4.221  17.351  0.00  0.00    +0.000 A 
ATOM     32  O   UNL     1       5.078   3.637  18.435  0.00  0.00    +0.000 OA
ENDBRANCH  23  24
ENDBRANCH  22  23
ENDBRANCH  20  22
ENDBRANCH  19  20
ENDBRANCH  18  19
ENDBRANCH  17  18
ENDBRANCH  10  17
TORSDOF 9
ENDMDL
MODEL 7
REMARK VINA RESULT:      -7.2      3.837      6.169
REMARK  Name = 
REMARK  12 active torsions:
REMARK  status: ('A' for Active; 'I' for Inactive)
REMARK    1  A    between atoms: C_1  and  O_2
REMARK    2  A    between atoms: O_2  and  C_3
REMARK    3  A    between atoms: C_8  and  O_9
REMARK    4  A    between atoms: O_9  and  C_10
REMARK    5  A    between atoms: N_14  and  C_15
REMARK    6  A    between atoms: C_15  and  C_16
REMARK    7  A    between atoms: C_16  and  C_17
REMARK    8  A    between atoms: C_17  and  N_18
REMARK    9  A    between atoms: N_18  and  C_19
REMARK   10  A    between atoms: N_18  and  C_20
REMARK   11  A    between atoms: C_20  and  C_21
REMARK   12  A    between atoms: C_21  and  C_22
REMARK                            x       y       z     vdW  Elec       q    Type
REMARK                         _______ _______ _______ _____ _____    ______ ____
ROOT
ATOM      1  C   UNL     1       0.431   9.663  20.126  0.00  0.00    +0.000 A 
ATOM      2  C   UNL     1       1.352   9.311  19.135  0.00  0.00    +0.000 A 
ATOM      3  C   UNL     1       2.053   8.099  19.193  0.00  0.00    +0.000 A 
ATOM      4  C   UNL     1       1.848   7.235  20.275  0.00  0.00    +0.000 A 
ATOM      5  C   UNL     1       0.962   7.621  21.301  0.00  0.00    +0.000 A 
ATOM      6  C   UNL     1       0.253   8.828  21.239  0.00  0.00    +0.000 A 
ATOM      7  C   UNL     1       2.635   5.957  20.419  0.00  0.00    +0.000 C 
ATOM      8  C   UNL     1       2.494   4.909  19.326  0.00  0.00    +0.000 C 
ATOM      9  O   UNL     1       2.136   3.763  19.600  0.00  0.00    +0.000 OA
ATOM     10  N   UNL     1       3.031   5.247  18.084  0.00  0.00    +0.000 N 
ATOM     11  C   UNL     1       2.595   6.455  17.387  0.00  0.00    +0.000 C 
ATOM     12  C   UNL     1       3.007   7.751  18.079  0.00  0.00    +0.000 C 
ENDROOT
BRANCH   1  14
ATOM     13  C   UNL     1       0.226  11.802  19.167  0.00  0.00    +0.000 C 
ATOM     14  O   UNL     1      -0.293  10.830  20.071  0.00  0.00    +0.000 OA
ENDBRANCH   1  14
BRANCH   6  15
ATOM     15  O   UNL     1      -0.627   9.264  22.196  0.00  0.00    +0.000 OA
ATOM     16  C   UNL     1      -0.085   9.692  23.438  0.00  0.00    +0.000 C 
ENDBRANCH   6  15
BRANCH  10  17
ATOM     17  C   UNL     1       3.637   4.182  17.287  0.00  0.00    +0.000 C 
BRANCH  17  18
ATOM     18  C   UNL     1       5.157   4.070  17.397  0.00  0.00    +0.000 C 
BRANCH  18  19
ATOM     19  C   UNL     1       5.854   5.361  16.919  0.00  0.00    +0.000 C 
BRANCH  19  20
ATOM     20  N   UNL     1       6.381   6.228  17.991  0.00  0.00    +0.000 NA
ATOM     21  C   UNL     1       7.566   5.630  18.620  0.00  0.00    +0.000 C 
BRANCH  20  22
ATOM     22  C   UNL     1       6.728   7.593  17.517  0.00  0.00    +0.000 C 
BRANCH  22  23
ATOM     23  C   UNL     1       8.189   7.947  17.778  0.00  0.00    +0.000 C 
BRANCH  23  24
ATOM     24  C   UNL     1       8.434   9.339  18.241  0.00  0.00    +0.000 A 
ATOM     25  C   UNL     1       8.327  10.536  17.568  0.00  0.00    +0.000 A 
ATOM     26  C   UNL     1       9.265  11.399  18.184  0.00  0.00    +0.000 A 
ATOM     27  C   UNL     1       9.891  12.603  17.834  0.00  0.00    +0.000 A 
ATOM     28  C   UNL     1      10.809  13.169  18.727  0.00  0.00    +0.000 A 
ATOM     29  C   UNL     1      11.032  12.598  19.975  0.00  0.00    +0.000 A 
ATOM     30  C   UNL     1      10.429  11.379  20.339  0.00  0.00    +0.000 A 
ATOM     31  C   UNL     1       9.608  10.785  19.378  0.00  0.00    +0.000 A 
ATOM     32  O   UNL     1       9.090   9.520  19.427  0.00  0.00    +0.000 OA
ENDBRANCH  23  24
ENDBRANCH  22  23
ENDBRANCH  20  22
ENDBRANCH  19  20
ENDBRANCH  18  19
ENDBRANCH  17  18
ENDBRANCH  10  17
TORSDOF 9
ENDMDL
MODEL 8
REMARK VINA RESULT:      -7.1      1.828      4.291
REMARK  Name = 
REMARK  12 active torsions:
REMARK  status: ('A' for Active; 'I' for Inactive)
REMARK    1  A    between atoms: C_1  and  O_2
REMARK    2  A    between atoms: O_2  and  C_3
REMARK    3  A    between atoms: C_8  and  O_9
REMARK    4  A    between atoms: O_9  and  C_10
REMARK    5  A    between atoms: N_14  and  C_15
REMARK    6  A    between atoms: C_15  and  C_16
REMARK    7  A    between atoms: C_16  and  C_17
REMARK    8  A    between atoms: C_17  and  N_18
REMARK    9  A    between atoms: N_18  and  C_19
REMARK   10  A    between atoms: N_18  and  C_20
REMARK   11  A    between atoms: C_20  and  C_21
REMARK   12  A    between atoms: C_21  and  C_22
REMARK                            x       y       z     vdW  Elec       q    Type
REMARK                         _______ _______ _______ _____ _____    ______ ____
ROOT
ATOM      1  C   UNL     1      -0.791  11.927  19.779  0.00  0.00    +0.000 A 
ATOM      2  C   UNL     1       0.223  11.523  18.906  0.00  0.00    +0.000 A 
ATOM      3  C   UNL     1       1.053  10.436  19.211  0.00  0.00    +0.000 A 
ATOM      4  C   UNL     1       0.882   9.757  20.423  0.00  0.00    +0.000 A 
ATOM      5  C   UNL     1      -0.103  10.205  21.325  0.00  0.00    +0.000 A 
ATOM      6  C   UNL     1      -0.940  11.286  21.017  0.00  0.00    +0.000 A 
ATOM      7  C   UNL     1       1.800   8.631  20.828  0.00  0.00    +0.000 C 
ATOM      8  C   UNL     1       1.847   7.399  19.939  0.00  0.00    +0.000 C 
ATOM      9  O   UNL     1       1.606   6.283  20.402  0.00  0.00    +0.000 OA
ATOM     10  N   UNL     1       2.416   7.576  18.678  0.00  0.00    +0.000 N 
ATOM     11  C   UNL     1       1.889   8.580  17.757  0.00  0.00    +0.000 C 
ATOM     12  C   UNL     1       2.108  10.018  18.218  0.00  0.00    +0.000 C 
ENDROOT
BRANCH   1  14
ATOM     13  C   UNL     1      -0.979  14.187  19.149  0.00  0.00    +0.000 C 
ATOM     14  O   UNL     1      -1.638  12.968  19.484  0.00  0.00    +0.000 OA
ENDBRANCH   1  14
BRANCH   6  15
ATOM     15  O   UNL     1      -1.922  11.771  21.843  0.00  0.00    +0.000 OA
ATOM     16  C   UNL     1      -1.650  11.798  23.238  0.00  0.00    +0.000 C 
ENDBRANCH   6  15
BRANCH  10  17
ATOM     17  C   UNL     1       3.189   6.471  18.114  0.00  0.00    +0.000 C 
BRANCH  17  18
ATOM     18  C   UNL     1       4.678   6.748  17.921  0.00  0.00    +0.000 C 
BRANCH  18  19
ATOM     19  C   UNL     1       5.072   6.709  16.429  0.00  0.00    +0.000 C 
BRANCH  19  20
ATOM     20  N   UNL     1       5.148   5.361  15.832  0.00  0.00    +0.000 NA
ATOM     21  C   UNL     1       6.151   5.313  14.760  0.00  0.00    +0.000 C 
BRANCH  20  22
ATOM     22  C   UNL     1       5.459   4.301  16.827  0.00  0.00    +0.000 C 
BRANCH  22  23
ATOM     23  C   UNL     1       4.705   3.004  16.551  0.00  0.00    +0.000 C 
BRANCH  23  24
ATOM     24  C   UNL     1       3.817   2.538  17.649  0.00  0.00    +0.000 A 
ATOM     25  C   UNL     1       2.460   2.303  17.662  0.00  0.00    +0.000 A 
ATOM     26  C   UNL     1       2.049   2.545  18.995  0.00  0.00    +0.000 A 
ATOM     27  C   UNL     1       0.825   2.796  19.630  0.00  0.00    +0.000 A 
ATOM     28  C   UNL     1       0.816   3.013  21.014  0.00  0.00    +0.000 A 
ATOM     29  C   UNL     1       1.984   2.894  21.759  0.00  0.00    +0.000 A 
ATOM     30  C   UNL     1       3.227   2.663  21.140  0.00  0.00    +0.000 A 
ATOM     31  C   UNL     1       3.213   2.566  19.746  0.00  0.00    +0.000 A 
ATOM     32  O   UNL     1       4.307   2.549  18.925  0.00  0.00    +0.000 OA
ENDBRANCH  23  24
ENDBRANCH  22  23
ENDBRANCH  20  22
ENDBRANCH  19  20
ENDBRANCH  18  19
ENDBRANCH  17  18
ENDBRANCH  10  17
TORSDOF 9
ENDMDL
MODEL 9
REMARK VINA RESULT:      -7.1      4.589      8.863
REMARK  Name = 
REMARK  12 active torsions:
REMARK  status: ('A' for Active; 'I' for Inactive)
REMARK    1  A    between atoms: C_1  and  O_2
REMARK    2  A    between atoms: O_2  and  C_3
REMARK    3  A    between atoms: C_8  and  O_9
REMARK    4  A    between atoms: O_9  and  C_10
REMARK    5  A    between atoms: N_14  and  C_15
REMARK    6  A    between atoms: C_15  and  C_16
REMARK    7  A    between atoms: C_16  and  C_17
REMARK    8  A    between atoms: C_17  and  N_18
REMARK    9  A    between atoms: N_18  and  C_19
REMARK   10  A    between atoms: N_18  and  C_20
REMARK   11  A    between atoms: C_20  and  C_21
REMARK   12  A    between atoms: C_21  and  C_22
REMARK                            x       y       z     vdW  Elec       q    Type
REMARK                         _______ _______ _______ _____ _____    ______ ____
ROOT
ATOM      1  C   UNL     1       3.134   6.487  18.534  0.00  0.00    +0.000 A 
ATOM      2  C   UNL     1       2.753   7.654  17.866  0.00  0.00    +0.000 A 
ATOM      3  C   UNL     1       1.923   8.603  18.479  0.00  0.00    +0.000 A 
ATOM      4  C   UNL     1       1.447   8.367  19.775  0.00  0.00    +0.000 A 
ATOM      5  C   UNL     1       1.788   7.162  20.421  0.00  0.00    +0.000 A 
ATOM      6  C   UNL     1       2.625   6.218  19.812  0.00  0.00    +0.000 A 
ATOM      7  C   UNL     1       0.492   9.323  20.444  0.00  0.00    +0.000 C 
ATOM      8  C   UNL     1       0.965  10.748  20.685  0.00  0.00    +0.000 C 
ATOM      9  O   UNL     1       0.960  11.226  21.821  0.00  0.00    +0.000 OA
ATOM     10  N   UNL     1       1.146  11.531  19.546  0.00  0.00    +0.000 N 
ATOM     11  C   UNL     1       2.049  11.102  18.481  0.00  0.00    +0.000 C 
ATOM     12  C   UNL     1       1.572   9.862  17.729  0.00  0.00    +0.000 C 
ENDROOT
BRANCH   1  14
ATOM     13  C   UNL     1       5.281   6.049  17.675  0.00  0.00    +0.000 C 
ATOM     14  O   UNL     1       3.974   5.560  17.965  0.00  0.00    +0.000 OA
ENDBRANCH   1  14
BRANCH   6  15
ATOM     15  O   UNL     1       3.001   5.029  20.384  0.00  0.00    +0.000 OA
ATOM     16  C   UNL     1       1.969   4.122  20.748  0.00  0.00    +0.000 C 
ENDBRANCH   6  15
BRANCH  10  17
ATOM     17  C   UNL     1       0.828  12.956  19.637  0.00  0.00    +0.000 C 
BRANCH  17  18
ATOM     18  C   UNL     1       1.511  13.843  18.598  0.00  0.00    +0.000 C 
BRANCH  18  19
ATOM     19  C   UNL     1       2.779  14.510  19.171  0.00  0.00    +0.000 C 
BRANCH  19  20
ATOM     20  N   UNL     1       3.692  15.095  18.169  0.00  0.00    +0.000 NA
ATOM     21  C   UNL     1       4.105  16.450  18.557  0.00  0.00    +0.000 C 
BRANCH  20  22
ATOM     22  C   UNL     1       4.907  14.271  17.939  0.00  0.00    +0.000 C 
BRANCH  22  23
ATOM     23  C   UNL     1       6.195  15.064  18.139  0.00  0.00    +0.000 C 
BRANCH  23  24
ATOM     24  C   UNL     1       7.443  14.362  17.739  0.00  0.00    +0.000 A 
ATOM     25  C   UNL     1       7.647  13.060  17.336  0.00  0.00    +0.000 A 
ATOM     26  C   UNL     1       8.971  12.748  17.726  0.00  0.00    +0.000 A 
ATOM     27  C   UNL     1       9.702  11.566  17.913  0.00  0.00    +0.000 A 
ATOM     28  C   UNL     1      11.033  11.659  18.338  0.00  0.00    +0.000 A 
ATOM     29  C   UNL     1      11.648  12.898  18.488  0.00  0.00    +0.000 A 
ATOM     30  C   UNL     1      10.927  14.096  18.326  0.00  0.00    +0.000 A 
ATOM     31  C   UNL     1       9.572  13.963  18.013  0.00  0.00    +0.000 A 
ATOM     32  O   UNL     1       8.640  14.965  18.010  0.00  0.00    +0.000 OA
ENDBRANCH  23  24
ENDBRANCH  22  23
ENDBRANCH  20  22
ENDBRANCH  19  20
ENDBRANCH  18  19
ENDBRANCH  17  18
ENDBRANCH  10  17
TORSDOF 9
ENDMDL
