MODEL 1
REMARK VINA RESULT:      -7.2      0.000      0.000
REMARK  Name = 
REMARK  7 active torsions:
REMARK  status: ('A' for Active; 'I' for Inactive)
REMARK    1  A    between atoms: C_1  and  O_2
REMARK    2  A    between atoms: O_2  and  C_3
REMARK    3  A    between atoms: C_7  and  C_8
REMARK    4  A    between atoms: C_8  and  C_9
REMARK    5  A    between atoms: C_12  and  C_13
REMARK    6  A    between atoms: C_13  and  O_15
REMARK    7  A    between atoms: N_28  and  C_29
REMARK                            x       y       z     vdW  Elec       q    Type
REMARK                         _______ _______ _______ _____ _____    ______ ____
ROOT
ATOM      1  C   UNL     1      10.932  12.521  20.237  0.00  0.00    +0.000 C 
ATOM      2  C   UNL     1      11.907  12.040  19.161  0.00  0.00    +0.000 C 
ATOM      3  C   UNL     1       9.702  12.744  21.147  0.00  0.00    +0.000 A 
ATOM      4  C   UNL     1       9.138  12.009  22.268  0.00  0.00    +0.000 A 
ATOM      5  C   UNL     1       8.133  12.716  22.934  0.00  0.00    +0.000 A 
ATOM      6  S   UNL     1       7.899  14.262  22.215  0.00  0.00    +0.000 S 
ATOM      7  C   UNL     1       8.939  13.911  20.934  0.00  0.00    +0.000 A 
ATOM      8  C   UNL     1       9.146  14.854  19.785  0.00  0.00    +0.000 C 
ATOM      9  O   UNL     1       8.425  15.816  19.536  0.00  0.00    +0.000 OA
ATOM     10  C   UNL     1      10.389  14.484  19.105  0.00  0.00    +0.000 A 
ATOM     11  C   UNL     1      11.347  14.173  20.064  0.00  0.00    +0.000 A 
ATOM     12  C   UNL     1      11.729  15.731  19.866  0.00  0.00    +0.000 A 
ATOM     13  C   UNL     1      11.969  16.876  20.681  0.00  0.00    +0.000 A 
ATOM     14  C   UNL     1      11.941  18.208  20.101  0.00  0.00    +0.000 A 
ATOM     15  C   UNL     1      11.772  18.442  18.736  0.00  0.00    +0.000 A 
ATOM     16  C   UNL     1      11.559  17.369  17.910  0.00  0.00    +0.000 A 
ATOM     17  C   UNL     1      11.454  16.133  18.545  0.00  0.00    +0.000 A 
ATOM     18  N   UNL     1      11.144  14.928  18.006  0.00  0.00    +0.000 N 
ATOM     19  C   UNL     1      12.332  14.399  17.305  0.00  0.00    +0.000 C 
ENDROOT
BRANCH   1  24
ATOM     20  C   UNL     1       8.667   9.276  18.670  0.00  0.00    +0.000 A 
ATOM     21  C   UNL     1       7.915   9.854  17.653  0.00  0.00    +0.000 A 
ATOM     22  C   UNL     1       8.117  11.192  17.377  0.00  0.00    +0.000 A 
ATOM     23  C   UNL     1       9.063  11.952  18.139  0.00  0.00    +0.000 A 
ATOM     24  C   UNL     1       9.749  11.448  19.328  0.00  0.00    +0.000 A 
ATOM     25  C   UNL     1       9.501  10.061  19.534  0.00  0.00    +0.000 A 
BRANCH  20  27
ATOM     26  C   UNL     1       7.592   7.332  17.788  0.00  0.00    +0.000 C 
ATOM     27  O   UNL     1       8.548   7.906  18.658  0.00  0.00    +0.000 OA
ENDBRANCH  20  27
ENDBRANCH   1  24
BRANCH   5  28
ATOM     28  C   UNL     1       7.308  12.337  24.084  0.00  0.00    +0.000 C 
ATOM     29  O   UNL     1       6.105  12.119  24.071  0.00  0.00    +0.000 OA
BRANCH  28  30
ATOM     30  O   UNL     1       8.021  12.242  25.246  0.00  0.00    +0.000 OA
ATOM     31  H   UNL     1       8.974  12.419  25.113  0.00  0.00    +0.000 HD
ENDBRANCH  28  30
ENDBRANCH   5  28
TORSDOF 4
ENDMDL
MODEL 2
REMARK VINA RESULT:      -7.1     10.355     12.464
REMARK  Name = 
REMARK  7 active torsions:
REMARK  status: ('A' for Active; 'I' for Inactive)
REMARK    1  A    between atoms: C_1  and  O_2
REMARK    2  A    between atoms: O_2  and  C_3
REMARK    3  A    between atoms: C_7  and  C_8
REMARK    4  A    between atoms: C_8  and  C_9
REMARK    5  A    between atoms: C_12  and  C_13
REMARK    6  A    between atoms: C_13  and  O_15
REMARK    7  A    between atoms: N_28  and  C_29
REMARK                            x       y       z     vdW  Elec       q    Type
REMARK                         _______ _______ _______ _____ _____    ______ ____
ROOT
ATOM      1  C   UNL     1      -1.042  13.370  20.397  0.00  0.00    +0.000 C 
ATOM      2  C   UNL     1      -1.569  14.489  19.496  0.00  0.00    +0.000 C 
ATOM      3  C   UNL     1      -0.698  12.008  21.041  0.00  0.00    +0.000 A 
ATOM      4  C   UNL     1       0.285  10.977  20.744  0.00  0.00    +0.000 A 
ATOM      5  C   UNL     1       0.378  10.007  21.746  0.00  0.00    +0.000 A 
ATOM      6  S   UNL     1      -0.701  10.361  23.038  0.00  0.00    +0.000 S 
ATOM      7  C   UNL     1      -1.421  11.632  22.193  0.00  0.00    +0.000 A 
ATOM      8  C   UNL     1      -2.602  12.387  22.729  0.00  0.00    +0.000 C 
ATOM      9  O   UNL     1      -3.296  12.016  23.671  0.00  0.00    +0.000 OA
ATOM     10  C   UNL     1      -2.699  13.659  22.009  0.00  0.00    +0.000 A 
ATOM     11  C   UNL     1      -1.420  14.184  21.855  0.00  0.00    +0.000 A 
ATOM     12  C   UNL     1      -1.812  14.953  23.221  0.00  0.00    +0.000 A 
ATOM     13  C   UNL     1      -1.241  15.190  24.506  0.00  0.00    +0.000 A 
ATOM     14  C   UNL     1      -2.075  15.644  25.607  0.00  0.00    +0.000 A 
ATOM     15  C   UNL     1      -3.427  15.955  25.462  0.00  0.00    +0.000 A 
ATOM     16  C   UNL     1      -4.014  15.763  24.238  0.00  0.00    +0.000 A 
ATOM     17  C   UNL     1      -3.199  15.191  23.262  0.00  0.00    +0.000 A 
ATOM     18  N   UNL     1      -3.530  14.792  22.009  0.00  0.00    +0.000 N 
ATOM     19  C   UNL     1      -3.630  15.983  21.141  0.00  0.00    +0.000 C 
ENDROOT
BRANCH   1  24
ATOM     20  C   UNL     1      -2.481  10.863  17.273  0.00  0.00    +0.000 A 
ATOM     21  C   UNL     1      -3.848  10.777  17.516  0.00  0.00    +0.000 A 
ATOM     22  C   UNL     1      -4.366  11.509  18.567  0.00  0.00    +0.000 A 
ATOM     23  C   UNL     1      -3.506  12.313  19.382  0.00  0.00    +0.000 A 
ATOM     24  C   UNL     1      -2.046  12.306  19.285  0.00  0.00    +0.000 A 
ATOM     25  C   UNL     1      -1.593  11.543  18.172  0.00  0.00    +0.000 A 
BRANCH  20  27
ATOM     26  C   UNL     1      -3.070  10.447  14.993  0.00  0.00    +0.000 C 
ATOM     27  O   UNL     1      -2.157  10.296  16.063  0.00  0.00    +0.000 OA
ENDBRANCH  20  27
ENDBRANCH   1  24
BRANCH   5  28
ATOM     28  C   UNL     1       1.217   8.809  21.832  0.00  0.00    +0.000 C 
ATOM     29  O   UNL     1       1.067   7.774  21.198  0.00  0.00    +0.000 OA
BRANCH  28  30
ATOM     30  O   UNL     1       2.241   8.936  22.728  0.00  0.00    +0.000 OA
ATOM     31  H   UNL     1       2.441   9.871  22.935  0.00  0.00    +0.000 HD
ENDBRANCH  28  30
ENDBRANCH   5  28
TORSDOF 4
ENDMDL
MODEL 3
REMARK VINA RESULT:      -7.0     10.261     12.524
REMARK  Name = 
REMARK  7 active torsions:
REMARK  status: ('A' for Active; 'I' for Inactive)
REMARK    1  A    between atoms: C_1  and  O_2
REMARK    2  A    between atoms: O_2  and  C_3
REMARK    3  A    between atoms: C_7  and  C_8
REMARK    4  A    between atoms: C_8  and  C_9
REMARK    5  A    between atoms: C_12  and  C_13
REMARK    6  A    between atoms: C_13  and  O_15
REMARK    7  A    between atoms: N_28  and  C_29
REMARK                            x       y       z     vdW  Elec       q    Type
REMARK                         _______ _______ _______ _____ _____    ______ ____
ROOT
ATOM      1  C   UNL     1      -0.886  13.342  20.330  0.00  0.00    +0.000 C 
ATOM      2  C   UNL     1      -1.364  14.446  19.384  0.00  0.00    +0.000 C 
ATOM      3  C   UNL     1      -0.573  11.990  21.011  0.00  0.00    +0.000 A 
ATOM      4  C   UNL     1       0.440  10.968  20.792  0.00  0.00    +0.000 A 
ATOM      5  C   UNL     1       0.476  10.010  21.808  0.00  0.00    +0.000 A 
ATOM      6  S   UNL     1      -0.692  10.365  23.021  0.00  0.00    +0.000 S 
ATOM      7  C   UNL     1      -1.367  11.618  22.116  0.00  0.00    +0.000 A 
ATOM      8  C   UNL     1      -2.589  12.366  22.563  0.00  0.00    +0.000 C 
ATOM      9  O   UNL     1      -3.341  11.995  23.460  0.00  0.00    +0.000 OA
ATOM     10  C   UNL     1      -2.651  13.629  21.825  0.00  0.00    +0.000 A 
ATOM     11  C   UNL     1      -1.371  14.167  21.750  0.00  0.00    +0.000 A 
ATOM     12  C   UNL     1      -1.861  14.945  23.079  0.00  0.00    +0.000 A 
ATOM     13  C   UNL     1      -1.381  15.201  24.397  0.00  0.00    +0.000 A 
ATOM     14  C   UNL     1      -2.291  15.657  25.434  0.00  0.00    +0.000 A 
ATOM     15  C   UNL     1      -3.634  15.951  25.195  0.00  0.00    +0.000 A 
ATOM     16  C   UNL     1      -4.135  15.739  23.937  0.00  0.00    +0.000 A 
ATOM     17  C   UNL     1      -3.251  15.167  23.024  0.00  0.00    +0.000 A 
ATOM     18  N   UNL     1      -3.492  14.752  21.757  0.00  0.00    +0.000 N 
ATOM     19  C   UNL     1      -3.547  15.933  20.871  0.00  0.00    +0.000 C 
ENDROOT
BRANCH   1  24
ATOM     20  C   UNL     1      -3.822  11.080  18.237  0.00  0.00    +0.000 A 
ATOM     21  C   UNL     1      -3.082  10.338  17.322  0.00  0.00    +0.000 A 
ATOM     22  C   UNL     1      -1.706  10.450  17.358  0.00  0.00    +0.000 A 
ATOM     23  C   UNL     1      -1.076  11.323  18.303  0.00  0.00    +0.000 A 
ATOM     24  C   UNL     1      -1.803  12.256  19.165  0.00  0.00    +0.000 A 
ATOM     25  C   UNL     1      -3.212  12.067  19.081  0.00  0.00    +0.000 A 
BRANCH  20  27
ATOM     26  C   UNL     1      -6.122  11.616  17.867  0.00  0.00    +0.000 C 
ATOM     27  O   UNL     1      -5.137  10.678  18.253  0.00  0.00    +0.000 OA
ENDBRANCH  20  27
ENDBRANCH   1  24
BRANCH   5  28
ATOM     28  C   UNL     1       1.320   8.822  21.962  0.00  0.00    +0.000 C 
ATOM     29  O   UNL     1       1.208   7.770  21.349  0.00  0.00    +0.000 OA
BRANCH  28  30
ATOM     30  O   UNL     1       2.299   8.981  22.902  0.00  0.00    +0.000 OA
ATOM     31  H   UNL     1       2.843   8.175  23.012  0.00  0.00    +0.000 HD
ENDBRANCH  28  30
ENDBRANCH   5  28
TORSDOF 4
ENDMDL
MODEL 4
REMARK VINA RESULT:      -6.6     11.443     14.275
REMARK  Name = 
REMARK  7 active torsions:
REMARK  status: ('A' for Active; 'I' for Inactive)
REMARK    1  A    between atoms: C_1  and  O_2
REMARK    2  A    between atoms: O_2  and  C_3
REMARK    3  A    between atoms: C_7  and  C_8
REMARK    4  A    between atoms: C_8  and  C_9
REMARK    5  A    between atoms: C_12  and  C_13
REMARK    6  A    between atoms: C_13  and  O_15
REMARK    7  A    between atoms: N_28  and  C_29
REMARK                            x       y       z     vdW  Elec       q    Type
REMARK                         _______ _______ _______ _____ _____    ______ ____
ROOT
ATOM      1  C   UNL     1      -1.908  13.258  22.013  0.00  0.00    +0.000 C 
ATOM      2  C   UNL     1      -1.279  14.115  23.114  0.00  0.00    +0.000 C 
ATOM      3  C   UNL     1      -2.323  12.628  20.664  0.00  0.00    +0.000 A 
ATOM      4  C   UNL     1      -1.685  11.684  19.760  0.00  0.00    +0.000 A 
ATOM      5  C   UNL     1      -2.542  11.226  18.756  0.00  0.00    +0.000 A 
ATOM      6  S   UNL     1      -4.107  11.921  18.928  0.00  0.00    +0.000 S 
ATOM      7  C   UNL     1      -3.597  12.959  20.156  0.00  0.00    +0.000 A 
ATOM      8  C   UNL     1      -4.497  14.000  20.755  0.00  0.00    +0.000 C 
ATOM      9  O   UNL     1      -5.563  14.363  20.264  0.00  0.00    +0.000 OA
ATOM     10  C   UNL     1      -3.935  14.408  22.043  0.00  0.00    +0.000 A 
ATOM     11  C   UNL     1      -3.473  13.276  22.708  0.00  0.00    +0.000 A 
ATOM     12  C   UNL     1      -4.949  13.330  23.361  0.00  0.00    +0.000 A 
ATOM     13  C   UNL     1      -6.041  12.440  23.592  0.00  0.00    +0.000 A 
ATOM     14  C   UNL     1      -7.361  12.964  23.899  0.00  0.00    +0.000 A 
ATOM     15  C   UNL     1      -7.622  14.323  24.072  0.00  0.00    +0.000 A 
ATOM     16  C   UNL     1      -6.598  15.214  23.881  0.00  0.00    +0.000 A 
ATOM     17  C   UNL     1      -5.393  14.663  23.449  0.00  0.00    +0.000 A 
ATOM     18  N   UNL     1      -4.254  15.300  23.081  0.00  0.00    +0.000 N 
ATOM     19  C   UNL     1      -3.543  15.746  24.297  0.00  0.00    +0.000 C 
ENDROOT
BRANCH   1  24
ATOM     20  C   UNL     1      -0.841  16.436  19.390  0.00  0.00    +0.000 A 
ATOM     21  C   UNL     1       0.463  16.133  19.011  0.00  0.00    +0.000 A 
ATOM     22  C   UNL     1       1.016  14.955  19.476  0.00  0.00    +0.000 A 
ATOM     23  C   UNL     1       0.262  14.092  20.335  0.00  0.00    +0.000 A 
ATOM     24  C   UNL     1      -1.039  14.440  20.907  0.00  0.00    +0.000 A 
ATOM     25  C   UNL     1      -1.545  15.657  20.368  0.00  0.00    +0.000 A 
BRANCH  20  27
ATOM     26  C   UNL     1      -0.603  17.915  17.528  0.00  0.00    +0.000 C 
ATOM     27  O   UNL     1      -1.338  17.488  18.658  0.00  0.00    +0.000 OA
ENDBRANCH  20  27
ENDBRANCH   1  24
BRANCH   5  28
ATOM     28  C   UNL     1      -2.298  10.296  17.650  0.00  0.00    +0.000 C 
ATOM     29  O   UNL     1      -3.147   9.687  17.015  0.00  0.00    +0.000 OA
BRANCH  28  30
ATOM     30  O   UNL     1      -0.971  10.146  17.361  0.00  0.00    +0.000 OA
ATOM     31  H   UNL     1      -0.394  10.566  18.030  0.00  0.00    +0.000 HD
ENDBRANCH  28  30
ENDBRANCH   5  28
TORSDOF 4
ENDMDL
MODEL 5
REMARK VINA RESULT:      -6.5      8.561     10.324
REMARK  Name = 
REMARK  7 active torsions:
REMARK  status: ('A' for Active; 'I' for Inactive)
REMARK    1  A    between atoms: C_1  and  O_2
REMARK    2  A    between atoms: O_2  and  C_3
REMARK    3  A    between atoms: C_7  and  C_8
REMARK    4  A    between atoms: C_8  and  C_9
REMARK    5  A    between atoms: C_12  and  C_13
REMARK    6  A    between atoms: C_13  and  O_15
REMARK    7  A    between atoms: N_28  and  C_29
REMARK                            x       y       z     vdW  Elec       q    Type
REMARK                         _______ _______ _______ _____ _____    ______ ____
ROOT
ATOM      1  C   UNL     1      -0.617  13.695  21.143  0.00  0.00    +0.000 C 
ATOM      2  C   UNL     1      -0.030  14.123  22.490  0.00  0.00    +0.000 C 
ATOM      3  C   UNL     1      -1.182  12.898  19.946  0.00  0.00    +0.000 A 
ATOM      4  C   UNL     1      -2.479  12.305  19.657  0.00  0.00    +0.000 A 
ATOM      5  C   UNL     1      -2.597  11.868  18.335  0.00  0.00    +0.000 A 
ATOM      6  S   UNL     1      -1.156  12.196  17.454  0.00  0.00    +0.000 S 
ATOM      7  C   UNL     1      -0.330  12.697  18.838  0.00  0.00    +0.000 A 
ATOM      8  C   UNL     1       1.125  13.061  18.819  0.00  0.00    +0.000 C 
ATOM      9  O   UNL     1       1.895  12.802  17.899  0.00  0.00    +0.000 OA
ATOM     10  C   UNL     1       1.417  13.852  20.017  0.00  0.00    +0.000 A 
ATOM     11  C   UNL     1       0.373  14.748  20.226  0.00  0.00    +0.000 A 
ATOM     12  C   UNL     1       1.337  15.725  19.373  0.00  0.00    +0.000 A 
ATOM     13  C   UNL     1       1.236  16.602  18.252  0.00  0.00    +0.000 A 
ATOM     14  C   UNL     1       2.433  17.044  17.557  0.00  0.00    +0.000 A 
ATOM     15  C   UNL     1       3.723  16.725  17.980  0.00  0.00    +0.000 A 
ATOM     16  C   UNL     1       3.869  15.902  19.067  0.00  0.00    +0.000 A 
ATOM     17  C   UNL     1       2.686  15.396  19.603  0.00  0.00    +0.000 A 
ATOM     18  N   UNL     1       2.527  14.488  20.597  0.00  0.00    +0.000 N 
ATOM     19  C   UNL     1       2.756  15.157  21.894  0.00  0.00    +0.000 C 
ENDROOT
BRANCH   1  24
ATOM     20  C   UNL     1       0.643   9.689  21.835  0.00  0.00    +0.000 A 
ATOM     21  C   UNL     1      -0.131   9.277  22.915  0.00  0.00    +0.000 A 
ATOM     22  C   UNL     1      -1.076  10.156  23.408  0.00  0.00    +0.000 A 
ATOM     23  C   UNL     1      -1.230  11.455  22.824  0.00  0.00    +0.000 A 
ATOM     24  C   UNL     1      -0.332  12.006  21.809  0.00  0.00    +0.000 A 
ATOM     25  C   UNL     1       0.601  11.037  21.344  0.00  0.00    +0.000 A 
BRANCH  20  27
ATOM     26  C   UNL     1       1.547   8.616  19.900  0.00  0.00    +0.000 C 
ATOM     27  O   UNL     1       1.347   8.636  21.300  0.00  0.00    +0.000 OA
ENDBRANCH  20  27
ENDBRANCH   1  24
BRANCH   5  28
ATOM     28  C   UNL     1      -3.712  11.210  17.649  0.00  0.00    +0.000 C 
ATOM     29  O   UNL     1      -4.099  10.064  17.832  0.00  0.00    +0.000 OA
BRANCH  28  30
ATOM     30  O   UNL     1      -4.325  12.014  16.730  0.00  0.00    +0.000 OA
ATOM     31  H   UNL     1      -3.797  12.115  15.913  0.00  0.00    +0.000 HD
ENDBRANCH  28  30
ENDBRANCH   5  28
TORSDOF 4
ENDMDL
MODEL 6
REMARK VINA RESULT:      -6.5      9.390     12.314
REMARK  Name = 
REMARK  7 active torsions:
REMARK  status: ('A' for Active; 'I' for Inactive)
REMARK    1  A    between atoms: C_1  and  O_2
REMARK    2  A    between atoms: O_2  and  C_3
REMARK    3  A    between atoms: C_7  and  C_8
REMARK    4  A    between atoms: C_8  and  C_9
REMARK    5  A    between atoms: C_12  and  C_13
REMARK    6  A    between atoms: C_13  and  O_15
REMARK    7  A    between atoms: N_28  and  C_29
REMARK                            x       y       z     vdW  Elec       q    Type
REMARK                         _______ _______ _______ _____ _____    ______ ____
ROOT
ATOM      1  C   UNL     1       0.244  14.334  21.709  0.00  0.00    +0.000 C 
ATOM      2  C   UNL     1       0.375  15.679  22.428  0.00  0.00    +0.000 C 
ATOM      3  C   UNL     1       0.211  13.198  20.663  0.00  0.00    +0.000 A 
ATOM      4  C   UNL     1       1.241  12.399  20.016  0.00  0.00    +0.000 A 
ATOM      5  C   UNL     1       0.723  11.320  19.295  0.00  0.00    +0.000 A 
ATOM      6  S   UNL     1      -0.992  11.270  19.424  0.00  0.00    +0.000 S 
ATOM      7  C   UNL     1      -1.055  12.754  20.223  0.00  0.00    +0.000 A 
ATOM      8  C   UNL     1      -2.350  13.423  20.579  0.00  0.00    +0.000 C 
ATOM      9  O   UNL     1      -3.445  13.104  20.124  0.00  0.00    +0.000 OA
ATOM     10  C   UNL     1      -2.083  14.419  21.618  0.00  0.00    +0.000 A 
ATOM     11  C   UNL     1      -1.185  13.881  22.535  0.00  0.00    +0.000 A 
ATOM     12  C   UNL     1      -2.551  13.481  23.300  0.00  0.00    +0.000 A 
ATOM     13  C   UNL     1      -3.130  12.326  23.904  0.00  0.00    +0.000 A 
ATOM     14  C   UNL     1      -4.555  12.282  24.185  0.00  0.00    +0.000 A 
ATOM     15  C   UNL     1      -5.409  13.365  23.973  0.00  0.00    +0.000 A 
ATOM     16  C   UNL     1      -4.891  14.504  23.414  0.00  0.00    +0.000 A 
ATOM     17  C   UNL     1      -3.552  14.435  23.036  0.00  0.00    +0.000 A 
ATOM     18  N   UNL     1      -2.810  15.356  22.372  0.00  0.00    +0.000 N 
ATOM     19  C   UNL     1      -2.426  16.427  23.314  0.00  0.00    +0.000 C 
ENDROOT
BRANCH   1  24
ATOM     20  C   UNL     1       1.899  16.632  18.531  0.00  0.00    +0.000 A 
ATOM     21  C   UNL     1       0.786  17.165  17.889  0.00  0.00    +0.000 A 
ATOM     22  C   UNL     1      -0.459  16.904  18.427  0.00  0.00    +0.000 A 
ATOM     23  C   UNL     1      -0.584  16.092  19.600  0.00  0.00    +0.000 A 
ATOM     24  C   UNL     1       0.527  15.362  20.212  0.00  0.00    +0.000 A 
ATOM     25  C   UNL     1       1.774  15.697  19.612  0.00  0.00    +0.000 A 
BRANCH  20  27
ATOM     26  C   UNL     1       4.273  16.488  18.285  0.00  0.00    +0.000 C 
ATOM     27  O   UNL     1       3.062  17.179  18.042  0.00  0.00    +0.000 OA
ENDBRANCH  20  27
ENDBRANCH   1  24
BRANCH   5  28
ATOM     28  C   UNL     1       1.403  10.298  18.496  0.00  0.00    +0.000 C 
ATOM     29  O   UNL     1       1.385   9.091  18.697  0.00  0.00    +0.000 OA
BRANCH  28  30
ATOM     30  O   UNL     1       2.108  10.819  17.448  0.00  0.00    +0.000 OA
ATOM     31  H   UNL     1       1.754  11.683  17.155  0.00  0.00    +0.000 HD
ENDBRANCH  28  30
ENDBRANCH   5  28
TORSDOF 4
ENDMDL
MODEL 7
REMARK VINA RESULT:      -6.5      9.225     11.739
REMARK  Name = 
REMARK  7 active torsions:
REMARK  status: ('A' for Active; 'I' for Inactive)
REMARK    1  A    between atoms: C_1  and  O_2
REMARK    2  A    between atoms: O_2  and  C_3
REMARK    3  A    between atoms: C_7  and  C_8
REMARK    4  A    between atoms: C_8  and  C_9
REMARK    5  A    between atoms: C_12  and  C_13
REMARK    6  A    between atoms: C_13  and  O_15
REMARK    7  A    between atoms: N_28  and  C_29
REMARK                            x       y       z     vdW  Elec       q    Type
REMARK                         _______ _______ _______ _____ _____    ______ ____
ROOT
ATOM      1  C   UNL     1      -1.744  13.452  19.804  0.00  0.00    +0.000 C 
ATOM      2  C   UNL     1      -2.875  12.426  19.887  0.00  0.00    +0.000 C 
ATOM      3  C   UNL     1      -0.374  14.159  19.693  0.00  0.00    +0.000 A 
ATOM      4  C   UNL     1       0.513  14.459  18.579  0.00  0.00    +0.000 A 
ATOM      5  C   UNL     1       1.554  15.325  18.929  0.00  0.00    +0.000 A 
ATOM      6  S   UNL     1       1.436  15.782  20.583  0.00  0.00    +0.000 S 
ATOM      7  C   UNL     1       0.180  14.694  20.876  0.00  0.00    +0.000 A 
ATOM      8  C   UNL     1      -0.392  14.475  22.246  0.00  0.00    +0.000 C 
ATOM      9  O   UNL     1       0.136  14.853  23.288  0.00  0.00    +0.000 OA
ATOM     10  C   UNL     1      -1.705  13.844  22.101  0.00  0.00    +0.000 A 
ATOM     11  C   UNL     1      -2.377  14.449  21.044  0.00  0.00    +0.000 A 
ATOM     12  C   UNL     1      -2.973  15.362  22.236  0.00  0.00    +0.000 A 
ATOM     13  C   UNL     1      -3.154  16.747  22.523  0.00  0.00    +0.000 A 
ATOM     14  C   UNL     1      -3.414  17.187  23.883  0.00  0.00    +0.000 A 
ATOM     15  C   UNL     1      -3.588  16.304  24.950  0.00  0.00    +0.000 A 
ATOM     16  C   UNL     1      -3.445  14.961  24.717  0.00  0.00    +0.000 A 
ATOM     17  C   UNL     1      -3.055  14.612  23.425  0.00  0.00    +0.000 A 
ATOM     18  N   UNL     1      -2.737  13.388  22.938  0.00  0.00    +0.000 N 
ATOM     19  C   UNL     1      -3.984  12.631  22.700  0.00  0.00    +0.000 C 
ENDROOT
BRANCH   1  24
ATOM     20  C   UNL     1       0.640  10.049  18.877  0.00  0.00    +0.000 A 
ATOM     21  C   UNL     1       0.863   9.451  20.113  0.00  0.00    +0.000 A 
ATOM     22  C   UNL     1       0.259  10.010  21.223  0.00  0.00    +0.000 A 
ATOM     23  C   UNL     1      -0.555  11.182  21.090  0.00  0.00    +0.000 A 
ATOM     24  C   UNL     1      -0.682  11.953  19.853  0.00  0.00    +0.000 A 
ATOM     25  C   UNL     1      -0.046  11.304  18.757  0.00  0.00    +0.000 A 
BRANCH  20  27
ATOM     26  C   UNL     1       2.211   8.428  18.092  0.00  0.00    +0.000 C 
ATOM     27  O   UNL     1       1.085   9.249  17.852  0.00  0.00    +0.000 OA
ENDBRANCH  20  27
ENDBRANCH   1  24
BRANCH   5  28
ATOM     28  C   UNL     1       2.657  15.855  18.124  0.00  0.00    +0.000 C 
ATOM     29  O   UNL     1       2.980  17.031  18.023  0.00  0.00    +0.000 OA
BRANCH  28  30
ATOM     30  O   UNL     1       3.341  14.884  17.448  0.00  0.00    +0.000 OA
ATOM     31  H   UNL     1       3.608  14.144  18.029  0.00  0.00    +0.000 HD
ENDBRANCH  28  30
ENDBRANCH   5  28
TORSDOF 4
ENDMDL
MODEL 8
REMARK VINA RESULT:      -6.5     11.541     14.311
REMARK  Name = 
REMARK  7 active torsions:
REMARK  status: ('A' for Active; 'I' for Inactive)
REMARK    1  A    between atoms: C_1  and  O_2
REMARK    2  A    between atoms: O_2  and  C_3
REMARK    3  A    between atoms: C_7  and  C_8
REMARK    4  A    between atoms: C_8  and  C_9
REMARK    5  A    between atoms: C_12  and  C_13
REMARK    6  A    between atoms: C_13  and  O_15
REMARK    7  A    between atoms: N_28  and  C_29
REMARK                            x       y       z     vdW  Elec       q    Type
REMARK                         _______ _______ _______ _____ _____    ______ ____
ROOT
ATOM      1  C   UNL     1      -2.069  13.559  21.787  0.00  0.00    +0.000 C 
ATOM      2  C   UNL     1      -1.448  14.520  22.804  0.00  0.00    +0.000 C 
ATOM      3  C   UNL     1      -2.507  12.828  20.497  0.00  0.00    +0.000 A 
ATOM      4  C   UNL     1      -1.848  11.886  19.605  0.00  0.00    +0.000 A 
ATOM      5  C   UNL     1      -2.722  11.311  18.678  0.00  0.00    +0.000 A 
ATOM      6  S   UNL     1      -4.324  11.895  18.908  0.00  0.00    +0.000 S 
ATOM      7  C   UNL     1      -3.829  13.034  20.050  0.00  0.00    +0.000 A 
ATOM      8  C   UNL     1      -4.773  14.036  20.648  0.00  0.00    +0.000 C 
ATOM      9  O   UNL     1      -5.889  14.291  20.204  0.00  0.00    +0.000 OA
ATOM     10  C   UNL     1      -4.174  14.555  21.879  0.00  0.00    +0.000 A 
ATOM     11  C   UNL     1      -3.589  13.499  22.571  0.00  0.00    +0.000 A 
ATOM     12  C   UNL     1      -5.027  13.477  23.307  0.00  0.00    +0.000 A 
ATOM     13  C   UNL     1      -6.031  12.522  23.646  0.00  0.00    +0.000 A 
ATOM     14  C   UNL     1      -7.370  12.962  24.004  0.00  0.00    +0.000 A 
ATOM     15  C   UNL     1      -7.725  14.305  24.124  0.00  0.00    +0.000 A 
ATOM     16  C   UNL     1      -6.786  15.258  23.828  0.00  0.00    +0.000 A 
ATOM     17  C   UNL     1      -5.567  14.777  23.354  0.00  0.00    +0.000 A 
ATOM     18  N   UNL     1      -4.503  15.476  22.888  0.00  0.00    +0.000 N 
ATOM     19  C   UNL     1      -3.763  16.039  24.036  0.00  0.00    +0.000 C 
ENDROOT
BRANCH   1  24
ATOM     20  C   UNL     1       0.405  15.658  19.031  0.00  0.00    +0.000 A 
ATOM     21  C   UNL     1      -0.297  16.831  18.777  0.00  0.00    +0.000 A 
ATOM     22  C   UNL     1      -1.476  17.043  19.466  0.00  0.00    +0.000 A 
ATOM     23  C   UNL     1      -1.955  16.065  20.396  0.00  0.00    +0.000 A 
ATOM     24  C   UNL     1      -1.356  14.741  20.573  0.00  0.00    +0.000 A 
ATOM     25  C   UNL     1      -0.141  14.609  19.843  0.00  0.00    +0.000 A 
BRANCH  20  27
ATOM     26  C   UNL     1       2.162  16.962  18.067  0.00  0.00    +0.000 C 
ATOM     27  O   UNL     1       1.663  15.704  18.477  0.00  0.00    +0.000 OA
ENDBRANCH  20  27
ENDBRANCH   1  24
BRANCH   5  28
ATOM     28  C   UNL     1      -2.467  10.344  17.608  0.00  0.00    +0.000 C 
ATOM     29  O   UNL     1      -3.293   9.607  17.086  0.00  0.00    +0.000 OA
BRANCH  28  30
ATOM     30  O   UNL     1      -1.160  10.317  17.210  0.00  0.00    +0.000 OA
ATOM     31  H   UNL     1      -0.577   9.900  17.876  0.00  0.00    +0.000 HD
ENDBRANCH  28  30
ENDBRANCH   5  28
TORSDOF 4
ENDMDL
MODEL 9
REMARK VINA RESULT:      -6.4      9.494     12.406
REMARK  Name = 
REMARK  7 active torsions:
REMARK  status: ('A' for Active; 'I' for Inactive)
REMARK    1  A    between atoms: C_1  and  O_2
REMARK    2  A    between atoms: O_2  and  C_3
REMARK    3  A    between atoms: C_7  and  C_8
REMARK    4  A    between atoms: C_8  and  C_9
REMARK    5  A    between atoms: C_12  and  C_13
REMARK    6  A    between atoms: C_13  and  O_15
REMARK    7  A    between atoms: N_28  and  C_29
REMARK                            x       y       z     vdW  Elec       q    Type
REMARK                         _______ _______ _______ _____ _____    ______ ____
ROOT
ATOM      1  C   UNL     1       0.353  14.336  21.918  0.00  0.00    +0.000 C 
ATOM      2  C   UNL     1       0.538  15.639  22.697  0.00  0.00    +0.000 C 
ATOM      3  C   UNL     1       0.286  13.247  20.822  0.00  0.00    +0.000 A 
ATOM      4  C   UNL     1       1.288  12.417  20.171  0.00  0.00    +0.000 A 
ATOM      5  C   UNL     1       0.731  11.401  19.390  0.00  0.00    +0.000 A 
ATOM      6  S   UNL     1      -0.987  11.445  19.469  0.00  0.00    +0.000 S 
ATOM      7  C   UNL     1      -0.989  12.897  20.330  0.00  0.00    +0.000 A 
ATOM      8  C   UNL     1      -2.254  13.624  20.679  0.00  0.00    +0.000 C 
ATOM      9  O   UNL     1      -3.351  13.389  20.180  0.00  0.00    +0.000 OA
ATOM     10  C   UNL     1      -1.962  14.559  21.766  0.00  0.00    +0.000 A 
ATOM     11  C   UNL     1      -1.124  13.932  22.683  0.00  0.00    +0.000 A 
ATOM     12  C   UNL     1      -2.533  13.581  23.393  0.00  0.00    +0.000 A 
ATOM     13  C   UNL     1      -3.194  12.437  23.931  0.00  0.00    +0.000 A 
ATOM     14  C   UNL     1      -4.628  12.464  24.169  0.00  0.00    +0.000 A 
ATOM     15  C   UNL     1      -5.411  13.603  23.981  0.00  0.00    +0.000 A 
ATOM     16  C   UNL     1      -4.813  14.733  23.486  0.00  0.00    +0.000 A 
ATOM     17  C   UNL     1      -3.469  14.602  23.142  0.00  0.00    +0.000 A 
ATOM     18  N   UNL     1      -2.657  15.505  22.539  0.00  0.00    +0.000 N 
ATOM     19  C   UNL     1      -2.240  16.511  23.537  0.00  0.00    +0.000 C 
ENDROOT
BRANCH   1  24
ATOM     20  C   UNL     1       0.207  16.817  18.462  0.00  0.00    +0.000 A 
ATOM     21  C   UNL     1       1.541  16.954  18.092  0.00  0.00    +0.000 A 
ATOM     22  C   UNL     1       2.490  16.262  18.821  0.00  0.00    +0.000 A 
ATOM     23  C   UNL     1       2.096  15.449  19.932  0.00  0.00    +0.000 A 
ATOM     24  C   UNL     1       0.738  15.406  20.475  0.00  0.00    +0.000 A 
ATOM     25  C   UNL     1      -0.180  16.129  19.661  0.00  0.00    +0.000 A 
BRANCH  20  27
ATOM     26  C   UNL     1      -0.133  18.396  16.699  0.00  0.00    +0.000 C 
ATOM     27  O   UNL     1      -0.629  17.346  17.507  0.00  0.00    +0.000 OA
ENDBRANCH  20  27
ENDBRANCH   1  24
BRANCH   5  28
ATOM     28  C   UNL     1       1.376  10.375  18.567  0.00  0.00    +0.000 C 
ATOM     29  O   UNL     1       1.331   9.166  18.750  0.00  0.00    +0.000 OA
BRANCH  28  30
ATOM     30  O   UNL     1       2.078  10.895  17.516  0.00  0.00    +0.000 OA
ATOM     31  H   UNL     1       1.620  10.765  16.662  0.00  0.00    +0.000 HD
ENDBRANCH  28  30
ENDBRANCH   5  28
TORSDOF 4
ENDMDL
