MODEL 1
REMARK VINA RESULT:      -8.7      0.000      0.000
REMARK  Name = 
REMARK  6 active torsions:
REMARK  status: ('A' for Active; 'I' for Inactive)
REMARK    1  A    between atoms: C_1  and  O_2
REMARK    2  A    between atoms: O_2  and  C_3
REMARK    3  A    between atoms: N_9  and  C_10
REMARK    4  A    between atoms: C_10  and  C_11
REMARK    5  A    between atoms: C_11  and  N_12
REMARK    6  A    between atoms: C_22  and  C_23
REMARK                            x       y       z     vdW  Elec       q    Type
REMARK                         _______ _______ _______ _____ _____    ______ ____
ROOT
ATOM      1  C   UNL     1       4.331   4.682  18.953  0.00  0.00    +0.000 A 
ATOM      2  C   UNL     1       3.425   5.137  19.929  0.00  0.00    +0.000 A 
ATOM      3  C   UNL     1       2.722   6.326  19.735  0.00  0.00    +0.000 A 
ATOM      4  N   UNL     1       1.921   6.834  20.752  0.00  0.00    +0.000 N 
ATOM      5  C   UNL     1       1.329   8.072  20.712  0.00  0.00    +0.000 A 
ATOM      6  O   UNL     1       0.753   8.477  21.716  0.00  0.00    +0.000 OA
ATOM      7  N   UNL     1       1.458   8.786  19.530  0.00  0.00    +0.000 N 
ATOM      8  C   UNL     1       2.159   8.322  18.416  0.00  0.00    +0.000 A 
ATOM      9  O   UNL     1       2.249   8.936  17.357  0.00  0.00    +0.000 OA
ATOM     10  C   UNL     1       2.867   7.035  18.559  0.00  0.00    +0.000 A 
ATOM     11  C   UNL     1       3.748   6.585  17.572  0.00  0.00    +0.000 A 
ATOM     12  C   UNL     1       4.533   5.429  17.769  0.00  0.00    +0.000 A 
ATOM     13  H   UNL     1       1.834   6.352  21.637  0.00  0.00    +0.000 HD
ENDROOT
BRANCH  12  14
ATOM     14  C   UNL     1       5.554   5.090  16.775  0.00  0.00    +0.000 A 
ATOM     15  C   UNL     1       6.904   5.326  16.588  0.00  0.00    +0.000 A 
ATOM     16  N   UNL     1       7.330   4.792  15.396  0.00  0.00    +0.000 NA
ATOM     17  C   UNL     1       6.238   4.261  14.896  0.00  0.00    +0.000 A 
ATOM     18  O   UNL     1       5.129   4.392  15.670  0.00  0.00    +0.000 OA
ENDBRANCH  12  14
BRANCH   1  20
ATOM     19  C   UNL     1       4.481   2.471  19.830  0.00  0.00    +0.000 C 
ATOM     20  O   UNL     1       5.092   3.552  19.132  0.00  0.00    +0.000 OA
ENDBRANCH   1  20
BRANCH   7  21
ATOM     21  C   UNL     1       0.953  10.163  19.484  0.00  0.00    +0.000 C 
BRANCH  21  22
ATOM     22  C   UNL     1      -0.576  10.266  19.281  0.00  0.00    +0.000 C 
BRANCH  22  23
ATOM     23  N   UNL     1      -1.009  10.820  17.977  0.00  0.00    +0.000 NA
ATOM     24  C   UNL     1      -1.824  12.044  18.177  0.00  0.00    +0.000 C 
ATOM     25  C   UNL     1      -3.253  11.762  18.673  0.00  0.00    +0.000 C 
ATOM     26  O   UNL     1      -3.952  10.916  17.754  0.00  0.00    +0.000 OA
ATOM     27  C   UNL     1      -3.256   9.675  17.576  0.00  0.00    +0.000 C 
ATOM     28  C   UNL     1      -1.796   9.893  17.134  0.00  0.00    +0.000 C 
ENDBRANCH  22  23
ENDBRANCH  21  22
ENDBRANCH   7  21
TORSDOF 5
ENDMDL
MODEL 2
REMARK VINA RESULT:      -8.0      1.080      1.397
REMARK  Name = 
REMARK  6 active torsions:
REMARK  status: ('A' for Active; 'I' for Inactive)
REMARK    1  A    between atoms: C_1  and  O_2
REMARK    2  A    between atoms: O_2  and  C_3
REMARK    3  A    between atoms: N_9  and  C_10
REMARK    4  A    between atoms: C_10  and  C_11
REMARK    5  A    between atoms: C_11  and  N_12
REMARK    6  A    between atoms: C_22  and  C_23
REMARK                            x       y       z     vdW  Elec       q    Type
REMARK                         _______ _______ _______ _____ _____    ______ ____
ROOT
ATOM      1  C   UNL     1       4.422   4.968  18.863  0.00  0.00    +0.000 A 
ATOM      2  C   UNL     1       3.493   5.386  19.834  0.00  0.00    +0.000 A 
ATOM      3  C   UNL     1       2.740   6.543  19.632  0.00  0.00    +0.000 A 
ATOM      4  N   UNL     1       1.913   7.020  20.644  0.00  0.00    +0.000 N 
ATOM      5  C   UNL     1       1.268   8.231  20.597  0.00  0.00    +0.000 A 
ATOM      6  O   UNL     1       0.671   8.614  21.598  0.00  0.00    +0.000 OA
ATOM      7  N   UNL     1       1.372   8.946  19.413  0.00  0.00    +0.000 N 
ATOM      8  C   UNL     1       2.097   8.509  18.304  0.00  0.00    +0.000 A 
ATOM      9  O   UNL     1       2.165   9.122  17.243  0.00  0.00    +0.000 OA
ATOM     10  C   UNL     1       2.859   7.254  18.455  0.00  0.00    +0.000 A 
ATOM     11  C   UNL     1       3.763   6.839  17.473  0.00  0.00    +0.000 A 
ATOM     12  C   UNL     1       4.596   5.719  17.677  0.00  0.00    +0.000 A 
ATOM     13  H   UNL     1       1.843   6.537  21.531  0.00  0.00    +0.000 HD
ENDROOT
BRANCH  12  14
ATOM     14  C   UNL     1       5.636   5.421  16.689  0.00  0.00    +0.000 A 
ATOM     15  C   UNL     1       6.960   5.757  16.479  0.00  0.00    +0.000 A 
ATOM     16  N   UNL     1       7.421   5.208  15.306  0.00  0.00    +0.000 NA
ATOM     17  C   UNL     1       6.374   4.570  14.841  0.00  0.00    +0.000 A 
ATOM     18  O   UNL     1       5.262   4.644  15.619  0.00  0.00    +0.000 OA
ENDBRANCH  12  14
BRANCH   1  20
ATOM     19  C   UNL     1       4.619   2.710  19.602  0.00  0.00    +0.000 C 
ATOM     20  O   UNL     1       5.230   3.873  19.049  0.00  0.00    +0.000 OA
ENDBRANCH   1  20
BRANCH   7  21
ATOM     21  C   UNL     1       0.808  10.300  19.360  0.00  0.00    +0.000 C 
BRANCH  21  22
ATOM     22  C   UNL     1      -0.674  10.347  18.923  0.00  0.00    +0.000 C 
BRANCH  22  23
ATOM     23  N   UNL     1      -1.103  11.602  18.263  0.00  0.00    +0.000 NA
ATOM     24  C   UNL     1      -0.310  12.752  18.766  0.00  0.00    +0.000 C 
ATOM     25  C   UNL     1      -0.712  13.210  20.180  0.00  0.00    +0.000 C 
ATOM     26  O   UNL     1      -2.094  13.581  20.220  0.00  0.00    +0.000 OA
ATOM     27  C   UNL     1      -2.925  12.483  19.821  0.00  0.00    +0.000 C 
ATOM     28  C   UNL     1      -2.534  11.940  18.432  0.00  0.00    +0.000 C 
ENDBRANCH  22  23
ENDBRANCH  21  22
ENDBRANCH   7  21
TORSDOF 5
ENDMDL
MODEL 3
REMARK VINA RESULT:      -7.9      1.354      1.848
REMARK  Name = 
REMARK  6 active torsions:
REMARK  status: ('A' for Active; 'I' for Inactive)
REMARK    1  A    between atoms: C_1  and  O_2
REMARK    2  A    between atoms: O_2  and  C_3
REMARK    3  A    between atoms: N_9  and  C_10
REMARK    4  A    between atoms: C_10  and  C_11
REMARK    5  A    between atoms: C_11  and  N_12
REMARK    6  A    between atoms: C_22  and  C_23
REMARK                            x       y       z     vdW  Elec       q    Type
REMARK                         _______ _______ _______ _____ _____    ______ ____
ROOT
ATOM      1  C   UNL     1       4.339   4.622  18.996  0.00  0.00    +0.000 A 
ATOM      2  C   UNL     1       3.422   5.103  19.949  0.00  0.00    +0.000 A 
ATOM      3  C   UNL     1       2.739   6.299  19.724  0.00  0.00    +0.000 A 
ATOM      4  N   UNL     1       1.926   6.833  20.718  0.00  0.00    +0.000 N 
ATOM      5  C   UNL     1       1.353   8.078  20.650  0.00  0.00    +0.000 A 
ATOM      6  O   UNL     1       0.764   8.505  21.638  0.00  0.00    +0.000 OA
ATOM      7  N   UNL     1       1.515   8.773  19.461  0.00  0.00    +0.000 N 
ATOM      8  C   UNL     1       2.229   8.284  18.367  0.00  0.00    +0.000 A 
ATOM      9  O   UNL     1       2.348   8.881  17.302  0.00  0.00    +0.000 OA
ATOM     10  C   UNL     1       2.916   6.990  18.542  0.00  0.00    +0.000 A 
ATOM     11  C   UNL     1       3.809   6.513  17.578  0.00  0.00    +0.000 A 
ATOM     12  C   UNL     1       4.574   5.350  17.806  0.00  0.00    +0.000 A 
ATOM     13  H   UNL     1       1.816   6.365  21.609  0.00  0.00    +0.000 HD
ENDROOT
BRANCH  12  14
ATOM     14  C   UNL     1       5.609   4.982  16.836  0.00  0.00    +0.000 A 
ATOM     15  C   UNL     1       6.951   5.248  16.637  0.00  0.00    +0.000 A 
ATOM     16  N   UNL     1       7.398   4.655  15.480  0.00  0.00    +0.000 NA
ATOM     17  C   UNL     1       6.325   4.060  15.013  0.00  0.00    +0.000 A 
ATOM     18  O   UNL     1       5.209   4.204  15.775  0.00  0.00    +0.000 OA
ENDBRANCH  12  14
BRANCH   1  20
ATOM     19  C   UNL     1       4.400   2.370  19.776  0.00  0.00    +0.000 C 
ATOM     20  O   UNL     1       5.081   3.484  19.205  0.00  0.00    +0.000 OA
ENDBRANCH   1  20
BRANCH   7  21
ATOM     21  C   UNL     1       1.030  10.157  19.386  0.00  0.00    +0.000 C 
BRANCH  21  22
ATOM     22  C   UNL     1      -0.409  10.290  18.838  0.00  0.00    +0.000 C 
BRANCH  22  23
ATOM     23  N   UNL     1      -1.307  11.176  19.615  0.00  0.00    +0.000 NA
ATOM     24  C   UNL     1      -1.714  12.348  18.800  0.00  0.00    +0.000 C 
ATOM     25  C   UNL     1      -0.606  13.404  18.638  0.00  0.00    +0.000 C 
ATOM     26  O   UNL     1      -0.175  13.888  19.915  0.00  0.00    +0.000 OA
ATOM     27  C   UNL     1       0.309  12.810  20.728  0.00  0.00    +0.000 C 
ATOM     28  C   UNL     1      -0.737  11.689  20.880  0.00  0.00    +0.000 C 
ENDBRANCH  22  23
ENDBRANCH  21  22
ENDBRANCH   7  21
TORSDOF 5
ENDMDL
MODEL 4
REMARK VINA RESULT:      -7.9      0.956      1.157
REMARK  Name = 
REMARK  6 active torsions:
REMARK  status: ('A' for Active; 'I' for Inactive)
REMARK    1  A    between atoms: C_1  and  O_2
REMARK    2  A    between atoms: O_2  and  C_3
REMARK    3  A    between atoms: N_9  and  C_10
REMARK    4  A    between atoms: C_10  and  C_11
REMARK    5  A    between atoms: C_11  and  N_12
REMARK    6  A    between atoms: C_22  and  C_23
REMARK                            x       y       z     vdW  Elec       q    Type
REMARK                         _______ _______ _______ _____ _____    ______ ____
ROOT
ATOM      1  C   UNL     1       4.230   4.649  19.038  0.00  0.00    +0.000 A 
ATOM      2  C   UNL     1       3.371   5.159  20.029  0.00  0.00    +0.000 A 
ATOM      3  C   UNL     1       2.675   6.348  19.811  0.00  0.00    +0.000 A 
ATOM      4  N   UNL     1       1.924   6.913  20.836  0.00  0.00    +0.000 N 
ATOM      5  C   UNL     1       1.346   8.156  20.765  0.00  0.00    +0.000 A 
ATOM      6  O   UNL     1       0.818   8.613  21.773  0.00  0.00    +0.000 OA
ATOM      7  N   UNL     1       1.434   8.815  19.548  0.00  0.00    +0.000 N 
ATOM      8  C   UNL     1       2.082   8.292  18.428  0.00  0.00    +0.000 A 
ATOM      9  O   UNL     1       2.134   8.857  17.339  0.00  0.00    +0.000 OA
ATOM     10  C   UNL     1       2.779   7.003  18.599  0.00  0.00    +0.000 A 
ATOM     11  C   UNL     1       3.612   6.496  17.597  0.00  0.00    +0.000 A 
ATOM     12  C   UNL     1       4.391   5.340  17.814  0.00  0.00    +0.000 A 
ATOM     13  H   UNL     1       1.869   6.472  21.745  0.00  0.00    +0.000 HD
ENDROOT
BRANCH  12  14
ATOM     14  C   UNL     1       5.365   4.942  16.795  0.00  0.00    +0.000 A 
ATOM     15  C   UNL     1       5.411   4.070  15.723  0.00  0.00    +0.000 A 
ATOM     16  N   UNL     1       6.659   4.075  15.145  0.00  0.00    +0.000 NA
ATOM     17  C   UNL     1       7.327   4.934  15.879  0.00  0.00    +0.000 A 
ATOM     18  O   UNL     1       6.616   5.504  16.888  0.00  0.00    +0.000 OA
ENDBRANCH  12  14
BRANCH   1  20
ATOM     19  C   UNL     1       4.277   2.323  19.560  0.00  0.00    +0.000 C 
ATOM     20  O   UNL     1       4.984   3.518  19.235  0.00  0.00    +0.000 OA
ENDBRANCH   1  20
BRANCH   7  21
ATOM     21  C   UNL     1       0.945  10.195  19.461  0.00  0.00    +0.000 C 
BRANCH  21  22
ATOM     22  C   UNL     1      -0.498  10.318  18.919  0.00  0.00    +0.000 C 
BRANCH  22  23
ATOM     23  N   UNL     1      -0.875  11.658  18.412  0.00  0.00    +0.000 NA
ATOM     24  C   UNL     1      -1.000  12.622  19.534  0.00  0.00    +0.000 C 
ATOM     25  C   UNL     1      -2.280  12.438  20.369  0.00  0.00    +0.000 C 
ATOM     26  O   UNL     1      -3.445  12.570  19.548  0.00  0.00    +0.000 OA
ATOM     27  C   UNL     1      -3.428  11.608  18.484  0.00  0.00    +0.000 C 
ATOM     28  C   UNL     1      -2.139  11.703  17.644  0.00  0.00    +0.000 C 
ENDBRANCH  22  23
ENDBRANCH  21  22
ENDBRANCH   7  21
TORSDOF 5
ENDMDL
MODEL 5
REMARK VINA RESULT:      -7.9      2.114      3.101
REMARK  Name = 
REMARK  6 active torsions:
REMARK  status: ('A' for Active; 'I' for Inactive)
REMARK    1  A    between atoms: C_1  and  O_2
REMARK    2  A    between atoms: O_2  and  C_3
REMARK    3  A    between atoms: N_9  and  C_10
REMARK    4  A    between atoms: C_10  and  C_11
REMARK    5  A    between atoms: C_11  and  N_12
REMARK    6  A    between atoms: C_22  and  C_23
REMARK                            x       y       z     vdW  Elec       q    Type
REMARK                         _______ _______ _______ _____ _____    ______ ____
ROOT
ATOM      1  C   UNL     1       4.223   5.173  18.965  0.00  0.00    +0.000 A 
ATOM      2  C   UNL     1       3.263   5.555  19.920  0.00  0.00    +0.000 A 
ATOM      3  C   UNL     1       2.513   6.716  19.736  0.00  0.00    +0.000 A 
ATOM      4  N   UNL     1       1.654   7.155  20.738  0.00  0.00    +0.000 N 
ATOM      5  C   UNL     1       1.007   8.366  20.714  0.00  0.00    +0.000 A 
ATOM      6  O   UNL     1       0.378   8.712  21.708  0.00  0.00    +0.000 OA
ATOM      7  N   UNL     1       1.144   9.122  19.559  0.00  0.00    +0.000 N 
ATOM      8  C   UNL     1       1.904   8.726  18.458  0.00  0.00    +0.000 A 
ATOM      9  O   UNL     1       2.003   9.376  17.422  0.00  0.00    +0.000 OA
ATOM     10  C   UNL     1       2.666   7.468  18.588  0.00  0.00    +0.000 A 
ATOM     11  C   UNL     1       3.601   7.090  17.621  0.00  0.00    +0.000 A 
ATOM     12  C   UNL     1       4.431   5.966  17.812  0.00  0.00    +0.000 A 
ATOM     13  H   UNL     1       1.558   6.642  21.605  0.00  0.00    +0.000 HD
ENDROOT
BRANCH  12  14
ATOM     14  C   UNL     1       5.502   5.705  16.846  0.00  0.00    +0.000 A 
ATOM     15  C   UNL     1       6.834   6.043  16.694  0.00  0.00    +0.000 A 
ATOM     16  N   UNL     1       7.331   5.542  15.515  0.00  0.00    +0.000 NA
ATOM     17  C   UNL     1       6.297   4.929  14.988  0.00  0.00    +0.000 A 
ATOM     18  O   UNL     1       5.161   4.976  15.732  0.00  0.00    +0.000 OA
ENDBRANCH  12  14
BRANCH   1  20
ATOM     19  C   UNL     1       4.398   2.880  19.592  0.00  0.00    +0.000 C 
ATOM     20  O   UNL     1       5.030   4.074  19.137  0.00  0.00    +0.000 OA
ENDBRANCH   1  20
BRANCH   7  21
ATOM     21  C   UNL     1       0.577  10.475  19.536  0.00  0.00    +0.000 C 
BRANCH  21  22
ATOM     22  C   UNL     1       1.379  11.507  20.363  0.00  0.00    +0.000 C 
BRANCH  22  23
ATOM     23  N   UNL     1       1.060  12.927  20.089  0.00  0.00    +0.000 NA
ATOM     24  C   UNL     1       1.319  13.253  18.664  0.00  0.00    +0.000 C 
ATOM     25  C   UNL     1       2.813  13.392  18.322  0.00  0.00    +0.000 C 
ATOM     26  O   UNL     1       3.424  14.410  19.122  0.00  0.00    +0.000 OA
ATOM     27  C   UNL     1       3.281  14.113  20.518  0.00  0.00    +0.000 C 
ATOM     28  C   UNL     1       1.806  13.905  20.912  0.00  0.00    +0.000 C 
ENDBRANCH  22  23
ENDBRANCH  21  22
ENDBRANCH   7  21
TORSDOF 5
ENDMDL
MODEL 6
REMARK VINA RESULT:      -7.8      2.305      8.143
REMARK  Name = 
REMARK  6 active torsions:
REMARK  status: ('A' for Active; 'I' for Inactive)
REMARK    1  A    between atoms: C_1  and  O_2
REMARK    2  A    between atoms: O_2  and  C_3
REMARK    3  A    between atoms: N_9  and  C_10
REMARK    4  A    between atoms: C_10  and  C_11
REMARK    5  A    between atoms: C_11  and  N_12
REMARK    6  A    between atoms: C_22  and  C_23
REMARK                            x       y       z     vdW  Elec       q    Type
REMARK                         _______ _______ _______ _____ _____    ______ ____
ROOT
ATOM      1  C   UNL     1       0.695  10.109  21.278  0.00  0.00    +0.000 A 
ATOM      2  C   UNL     1       1.071   8.803  21.642  0.00  0.00    +0.000 A 
ATOM      3  C   UNL     1       1.636   7.945  20.699  0.00  0.00    +0.000 A 
ATOM      4  N   UNL     1       1.893   6.619  21.030  0.00  0.00    +0.000 N 
ATOM      5  C   UNL     1       2.289   5.668  20.123  0.00  0.00    +0.000 A 
ATOM      6  O   UNL     1       2.360   4.501  20.494  0.00  0.00    +0.000 OA
ATOM      7  N   UNL     1       2.553   6.108  18.835  0.00  0.00    +0.000 N 
ATOM      8  C   UNL     1       2.420   7.435  18.426  0.00  0.00    +0.000 A 
ATOM      9  O   UNL     1       2.683   7.835  17.296  0.00  0.00    +0.000 OA
ATOM     10  C   UNL     1       1.883   8.390  19.415  0.00  0.00    +0.000 A 
ATOM     11  C   UNL     1       1.534   9.692  19.044  0.00  0.00    +0.000 A 
ATOM     12  C   UNL     1       0.890  10.559  19.950  0.00  0.00    +0.000 A 
ATOM     13  H   UNL     1       1.680   6.262  21.952  0.00  0.00    +0.000 HD
ENDROOT
BRANCH  12  14
ATOM     14  C   UNL     1       0.402  11.853  19.466  0.00  0.00    +0.000 A 
ATOM     15  C   UNL     1      -0.699  12.326  18.777  0.00  0.00    +0.000 A 
ATOM     16  N   UNL     1      -0.582  13.676  18.542  0.00  0.00    +0.000 NA
ATOM     17  C   UNL     1       0.576  13.976  19.082  0.00  0.00    +0.000 A 
ATOM     18  O   UNL     1       1.227  12.934  19.664  0.00  0.00    +0.000 OA
ENDBRANCH  12  14
BRANCH   1  20
ATOM     19  C   UNL     1      -0.875  10.390  23.049  0.00  0.00    +0.000 C 
ATOM     20  O   UNL     1       0.076  10.965  22.156  0.00  0.00    +0.000 OA
ENDBRANCH   1  20
BRANCH   7  21
ATOM     21  C   UNL     1       2.855   5.111  17.801  0.00  0.00    +0.000 C 
BRANCH  21  22
ATOM     22  C   UNL     1       4.340   4.683  17.754  0.00  0.00    +0.000 C 
BRANCH  22  23
ATOM     23  N   UNL     1       5.288   5.725  17.295  0.00  0.00    +0.000 NA
ATOM     24  C   UNL     1       5.627   5.523  15.863  0.00  0.00    +0.000 C 
ATOM     25  C   UNL     1       6.597   4.354  15.616  0.00  0.00    +0.000 C 
ATOM     26  O   UNL     1       7.821   4.548  16.333  0.00  0.00    +0.000 OA
ATOM     27  C   UNL     1       7.570   4.670  17.740  0.00  0.00    +0.000 C 
ATOM     28  C   UNL     1       6.559   5.791  18.049  0.00  0.00    +0.000 C 
ENDBRANCH  22  23
ENDBRANCH  21  22
ENDBRANCH   7  21
TORSDOF 5
ENDMDL
MODEL 7
REMARK VINA RESULT:      -7.8      1.917      7.965
REMARK  Name = 
REMARK  6 active torsions:
REMARK  status: ('A' for Active; 'I' for Inactive)
REMARK    1  A    between atoms: C_1  and  O_2
REMARK    2  A    between atoms: O_2  and  C_3
REMARK    3  A    between atoms: N_9  and  C_10
REMARK    4  A    between atoms: C_10  and  C_11
REMARK    5  A    between atoms: C_11  and  N_12
REMARK    6  A    between atoms: C_22  and  C_23
REMARK                            x       y       z     vdW  Elec       q    Type
REMARK                         _______ _______ _______ _____ _____    ______ ____
ROOT
ATOM      1  C   UNL     1       0.314   9.349  20.801  0.00  0.00    +0.000 A 
ATOM      2  C   UNL     1       0.844   8.122  21.240  0.00  0.00    +0.000 A 
ATOM      3  C   UNL     1       1.696   7.389  20.414  0.00  0.00    +0.000 A 
ATOM      4  N   UNL     1       2.120   6.122  20.801  0.00  0.00    +0.000 N 
ATOM      5  C   UNL     1       2.818   5.267  19.985  0.00  0.00    +0.000 A 
ATOM      6  O   UNL     1       3.027   4.125  20.378  0.00  0.00    +0.000 OA
ATOM      7  N   UNL     1       3.210   5.765  18.751  0.00  0.00    +0.000 N 
ATOM      8  C   UNL     1       2.919   7.056  18.308  0.00  0.00    +0.000 A 
ATOM      9  O   UNL     1       3.291   7.512  17.231  0.00  0.00    +0.000 OA
ATOM     10  C   UNL     1       2.071   7.889  19.182  0.00  0.00    +0.000 A 
ATOM     11  C   UNL     1       1.568   9.117  18.741  0.00  0.00    +0.000 A 
ATOM     12  C   UNL     1       0.643   9.846  19.517  0.00  0.00    +0.000 A 
ATOM     13  H   UNL     1       1.823   5.719  21.680  0.00  0.00    +0.000 HD
ENDROOT
BRANCH  12  14
ATOM     14  C   UNL     1       0.026  11.043  18.942  0.00  0.00    +0.000 A 
ATOM     15  C   UNL     1       0.307  12.395  18.875  0.00  0.00    +0.000 A 
ATOM     16  N   UNL     1      -0.704  13.071  18.234  0.00  0.00    +0.000 NA
ATOM     17  C   UNL     1      -1.562  12.122  17.941  0.00  0.00    +0.000 A 
ATOM     18  O   UNL     1      -1.192  10.872  18.327  0.00  0.00    +0.000 OA
ENDBRANCH  12  14
BRANCH   1  20
ATOM     19  C   UNL     1      -0.396  10.045  22.967  0.00  0.00    +0.000 C 
ATOM     20  O   UNL     1      -0.579  10.072  21.554  0.00  0.00    +0.000 OA
ENDBRANCH   1  20
BRANCH   7  21
ATOM     21  C   UNL     1       3.845   4.851  17.795  0.00  0.00    +0.000 C 
BRANCH  21  22
ATOM     22  C   UNL     1       5.248   4.366  18.226  0.00  0.00    +0.000 C 
BRANCH  22  23
ATOM     23  N   UNL     1       6.338   4.633  17.259  0.00  0.00    +0.000 NA
ATOM     24  C   UNL     1       7.653   4.650  17.950  0.00  0.00    +0.000 C 
ATOM     25  C   UNL     1       7.902   5.925  18.775  0.00  0.00    +0.000 C 
ATOM     26  O   UNL     1       7.829   7.090  17.946  0.00  0.00    +0.000 OA
ATOM     27  C   UNL     1       6.547   7.178  17.308  0.00  0.00    +0.000 C 
ATOM     28  C   UNL     1       6.213   5.903  16.510  0.00  0.00    +0.000 C 
ENDBRANCH  22  23
ENDBRANCH  21  22
ENDBRANCH   7  21
TORSDOF 5
ENDMDL
MODEL 8
REMARK VINA RESULT:      -7.8      2.185      2.691
REMARK  Name = 
REMARK  6 active torsions:
REMARK  status: ('A' for Active; 'I' for Inactive)
REMARK    1  A    between atoms: C_1  and  O_2
REMARK    2  A    between atoms: O_2  and  C_3
REMARK    3  A    between atoms: N_9  and  C_10
REMARK    4  A    between atoms: C_10  and  C_11
REMARK    5  A    between atoms: C_11  and  N_12
REMARK    6  A    between atoms: C_22  and  C_23
REMARK                            x       y       z     vdW  Elec       q    Type
REMARK                         _______ _______ _______ _____ _____    ______ ____
ROOT
ATOM      1  C   UNL     1       4.211   5.252  18.981  0.00  0.00    +0.000 A 
ATOM      2  C   UNL     1       3.250   5.640  19.933  0.00  0.00    +0.000 A 
ATOM      3  C   UNL     1       2.495   6.796  19.738  0.00  0.00    +0.000 A 
ATOM      4  N   UNL     1       1.635   7.241  20.736  0.00  0.00    +0.000 N 
ATOM      5  C   UNL     1       0.983   8.449  20.701  0.00  0.00    +0.000 A 
ATOM      6  O   UNL     1       0.353   8.802  21.692  0.00  0.00    +0.000 OA
ATOM      7  N   UNL     1       1.118   9.195  19.540  0.00  0.00    +0.000 N 
ATOM      8  C   UNL     1       1.880   8.792  18.442  0.00  0.00    +0.000 A 
ATOM      9  O   UNL     1       1.975   9.433  17.400  0.00  0.00    +0.000 OA
ATOM     10  C   UNL     1       2.646   7.539  18.584  0.00  0.00    +0.000 A 
ATOM     11  C   UNL     1       3.582   7.155  17.619  0.00  0.00    +0.000 A 
ATOM     12  C   UNL     1       4.417   6.036  17.821  0.00  0.00    +0.000 A 
ATOM     13  H   UNL     1       1.541   6.736  21.607  0.00  0.00    +0.000 HD
ENDROOT
BRANCH  12  14
ATOM     14  C   UNL     1       5.488   5.770  16.857  0.00  0.00    +0.000 A 
ATOM     15  C   UNL     1       6.815   6.124  16.695  0.00  0.00    +0.000 A 
ATOM     16  N   UNL     1       7.316   5.605  15.524  0.00  0.00    +0.000 NA
ATOM     17  C   UNL     1       6.289   4.967  15.013  0.00  0.00    +0.000 A 
ATOM     18  O   UNL     1       5.154   5.013  15.759  0.00  0.00    +0.000 OA
ENDBRANCH  12  14
BRANCH   1  20
ATOM     19  C   UNL     1       4.377   2.930  19.494  0.00  0.00    +0.000 C 
ATOM     20  O   UNL     1       5.022   4.158  19.163  0.00  0.00    +0.000 OA
ENDBRANCH   1  20
BRANCH   7  21
ATOM     21  C   UNL     1       0.546  10.547  19.504  0.00  0.00    +0.000 C 
BRANCH  21  22
ATOM     22  C   UNL     1       1.410  11.614  20.215  0.00  0.00    +0.000 C 
BRANCH  22  23
ATOM     23  N   UNL     1       1.941  12.686  19.343  0.00  0.00    +0.000 NA
ATOM     24  C   UNL     1       2.622  13.727  20.154  0.00  0.00    +0.000 C 
ATOM     25  C   UNL     1       1.653  14.651  20.913  0.00  0.00    +0.000 C 
ATOM     26  O   UNL     1       0.767  15.315  20.005  0.00  0.00    +0.000 OA
ATOM     27  C   UNL     1       0.016  14.361  19.242  0.00  0.00    +0.000 C 
ATOM     28  C   UNL     1       0.932  13.367  18.502  0.00  0.00    +0.000 C 
ENDBRANCH  22  23
ENDBRANCH  21  22
ENDBRANCH   7  21
TORSDOF 5
ENDMDL
MODEL 9
REMARK VINA RESULT:      -7.6      0.931      1.259
REMARK  Name = 
REMARK  6 active torsions:
REMARK  status: ('A' for Active; 'I' for Inactive)
REMARK    1  A    between atoms: C_1  and  O_2
REMARK    2  A    between atoms: O_2  and  C_3
REMARK    3  A    between atoms: N_9  and  C_10
REMARK    4  A    between atoms: C_10  and  C_11
REMARK    5  A    between atoms: C_11  and  N_12
REMARK    6  A    between atoms: C_22  and  C_23
REMARK                            x       y       z     vdW  Elec       q    Type
REMARK                         _______ _______ _______ _____ _____    ______ ____
ROOT
ATOM      1  C   UNL     1       3.926   5.423  18.993  0.00  0.00    +0.000 A 
ATOM      2  C   UNL     1       2.960   5.876  19.911  0.00  0.00    +0.000 A 
ATOM      3  C   UNL     1       2.316   7.096  19.707  0.00  0.00    +0.000 A 
ATOM      4  N   UNL     1       1.453   7.598  20.676  0.00  0.00    +0.000 N 
ATOM      5  C   UNL     1       0.909   8.857  20.637  0.00  0.00    +0.000 A 
ATOM      6  O   UNL     1       0.269   9.247  21.608  0.00  0.00    +0.000 OA
ATOM      7  N   UNL     1       1.157   9.608  19.498  0.00  0.00    +0.000 N 
ATOM      8  C   UNL     1       1.929   9.158  18.426  0.00  0.00    +0.000 A 
ATOM      9  O   UNL     1       2.125   9.806  17.402  0.00  0.00    +0.000 OA
ATOM     10  C   UNL     1       2.579   7.842  18.575  0.00  0.00    +0.000 A 
ATOM     11  C   UNL     1       3.521   7.394  17.644  0.00  0.00    +0.000 A 
ATOM     12  C   UNL     1       4.248   6.204  17.858  0.00  0.00    +0.000 A 
ATOM     13  H   UNL     1       1.279   7.088  21.533  0.00  0.00    +0.000 HD
ENDROOT
BRANCH  12  14
ATOM     14  C   UNL     1       5.334   5.863  16.936  0.00  0.00    +0.000 A 
ATOM     15  C   UNL     1       6.658   6.216  16.756  0.00  0.00    +0.000 A 
ATOM     16  N   UNL     1       7.179   5.597  15.644  0.00  0.00    +0.000 NA
ATOM     17  C   UNL     1       6.166   4.902  15.183  0.00  0.00    +0.000 A 
ATOM     18  O   UNL     1       5.021   5.004  15.909  0.00  0.00    +0.000 OA
ENDBRANCH  12  14
BRANCH   1  20
ATOM     19  C   UNL     1       3.886   3.046  19.159  0.00  0.00    +0.000 C 
ATOM     20  O   UNL     1       4.631   4.261  19.187  0.00  0.00    +0.000 OA
ENDBRANCH   1  20
BRANCH   7  21
ATOM     21  C   UNL     1       0.705  11.003  19.465  0.00  0.00    +0.000 C 
BRANCH  21  22
ATOM     22  C   UNL     1      -0.412  11.278  18.433  0.00  0.00    +0.000 C 
BRANCH  22  23
ATOM     23  N   UNL     1      -1.528  10.304  18.428  0.00  0.00    +0.000 NA
ATOM     24  C   UNL     1      -1.769   9.797  17.053  0.00  0.00    +0.000 C 
ATOM     25  C   UNL     1      -2.483  10.808  16.138  0.00  0.00    +0.000 C 
ATOM     26  O   UNL     1      -3.746  11.191  16.691  0.00  0.00    +0.000 OA
ATOM     27  C   UNL     1      -3.576  11.766  17.993  0.00  0.00    +0.000 C 
ATOM     28  C   UNL     1      -2.814  10.822  18.944  0.00  0.00    +0.000 C 
ENDBRANCH  22  23
ENDBRANCH  21  22
ENDBRANCH   7  21
TORSDOF 5
ENDMDL
