MODEL 1
REMARK VINA RESULT:      -8.6      0.000      0.000
REMARK  Name = 
REMARK  10 active torsions:
REMARK  status: ('A' for Active; 'I' for Inactive)
REMARK    1  A    between atoms: C_1  and  O_2
REMARK    2  A    between atoms: O_2  and  C_3
REMARK    3  A    between atoms: C_15  and  C_17
REMARK    4  A    between atoms: C_17  and  C_18
REMARK    5  A    between atoms: C_18  and  C_19
REMARK    6  A    between atoms: C_18  and  C_20
REMARK    7  A    between atoms: N_22  and  C_23
REMARK    8  A    between atoms: C_23  and  C_24
REMARK    9  A    between atoms: C_24  and  C_25
REMARK   10  A    between atoms: C_24  and  C_26
REMARK                            x       y       z     vdW  Elec       q    Type
REMARK                         _______ _______ _______ _____ _____    ______ ____
ROOT
ATOM      1  C   UNL     1       1.060  10.204  18.912  0.00  0.00    +0.000 A 
ATOM      2  C   UNL     1       0.616   9.612  20.089  0.00  0.00    +0.000 A 
ATOM      3  C   UNL     1       1.098   8.343  20.464  0.00  0.00    +0.000 A 
ATOM      4  C   UNL     1       1.997   7.624  19.682  0.00  0.00    +0.000 A 
ATOM      5  N   UNL     1       2.354   6.373  20.051  0.00  0.00    +0.000 NA
ATOM      6  C   UNL     1       3.146   5.734  19.161  0.00  0.00    +0.000 A 
ATOM      7  C   UNL     1       3.651   6.258  17.981  0.00  0.00    +0.000 A 
ATOM      8  C   UNL     1       3.334   7.582  17.659  0.00  0.00    +0.000 A 
ATOM      9  C   UNL     1       2.452   8.258  18.502  0.00  0.00    +0.000 A 
ATOM     10  C   UNL     1       1.993   9.530  18.135  0.00  0.00    +0.000 A 
ATOM     11  C   UNL     1       4.350   5.192  17.360  0.00  0.00    +0.000 A 
ATOM     12  N   UNL     1       4.937   5.303  16.116  0.00  0.00    +0.000 N 
ATOM     13  C   UNL     1       5.565   4.288  15.426  0.00  0.00    +0.000 C 
ATOM     14  O   UNL     1       5.651   3.110  15.756  0.00  0.00    +0.000 OA
ATOM     15  N   UNL     1       4.322   4.092  18.110  0.00  0.00    +0.000 NA
ATOM     16  N   UNL     1       3.586   4.432  19.187  0.00  0.00    +0.000 N 
ATOM     17  H   UNL     1       4.854   6.208  15.672  0.00  0.00    +0.000 HD
ENDROOT
BRANCH   1  19
ATOM     18  C   UNL     1      -0.708  11.761  18.653  0.00  0.00    +0.000 C 
ATOM     19  O   UNL     1       0.635  11.387  18.383  0.00  0.00    +0.000 OA
ENDBRANCH   1  19
BRANCH  13  20
ATOM     20  C   UNL     1       6.159   4.761  14.115  0.00  0.00    +0.000 C 
BRANCH  20  21
ATOM     21  C   UNL     1       6.178   3.668  13.033  0.00  0.00    +0.000 C 
ATOM     22  C   UNL     1       4.808   3.508  12.371  0.00  0.00    +0.000 C 
ATOM     23  C   UNL     1       7.236   3.986  11.978  0.00  0.00    +0.000 C 
ENDBRANCH  20  21
ENDBRANCH  13  20
BRANCH  16  24
ATOM     24  C   UNL     1       3.217   3.390  20.128  0.00  0.00    +0.000 C 
BRANCH  24  25
ATOM     25  C   UNL     1       1.704   3.283  20.414  0.00  0.00    +0.000 C 
ATOM     26  C   UNL     1       0.947   2.611  19.267  0.00  0.00    +0.000 C 
ATOM     27  C   UNL     1       1.462   2.505  21.710  0.00  0.00    +0.000 C 
ENDBRANCH  24  25
ENDBRANCH  16  24
TORSDOF 5
ENDMDL
MODEL 2
REMARK VINA RESULT:      -7.9      1.486      7.042
REMARK  Name = 
REMARK  10 active torsions:
REMARK  status: ('A' for Active; 'I' for Inactive)
REMARK    1  A    between atoms: C_1  and  O_2
REMARK    2  A    between atoms: O_2  and  C_3
REMARK    3  A    between atoms: C_15  and  C_17
REMARK    4  A    between atoms: C_17  and  C_18
REMARK    5  A    between atoms: C_18  and  C_19
REMARK    6  A    between atoms: C_18  and  C_20
REMARK    7  A    between atoms: N_22  and  C_23
REMARK    8  A    between atoms: C_23  and  C_24
REMARK    9  A    between atoms: C_24  and  C_25
REMARK   10  A    between atoms: C_24  and  C_26
REMARK                            x       y       z     vdW  Elec       q    Type
REMARK                         _______ _______ _______ _____ _____    ______ ____
ROOT
ATOM      1  C   UNL     1       6.402   5.201  15.162  0.00  0.00    +0.000 A 
ATOM      2  C   UNL     1       6.466   4.003  15.863  0.00  0.00    +0.000 A 
ATOM      3  C   UNL     1       5.606   3.779  16.956  0.00  0.00    +0.000 A 
ATOM      4  C   UNL     1       4.692   4.733  17.394  0.00  0.00    +0.000 A 
ATOM      5  N   UNL     1       3.956   4.496  18.503  0.00  0.00    +0.000 NA
ATOM      6  C   UNL     1       3.183   5.534  18.893  0.00  0.00    +0.000 A 
ATOM      7  C   UNL     1       3.043   6.749  18.240  0.00  0.00    +0.000 A 
ATOM      8  C   UNL     1       3.753   6.943  17.050  0.00  0.00    +0.000 A 
ATOM      9  C   UNL     1       4.629   5.934  16.649  0.00  0.00    +0.000 A 
ATOM     10  C   UNL     1       5.467   6.153  15.548  0.00  0.00    +0.000 A 
ATOM     11  C   UNL     1       2.199   7.532  19.069  0.00  0.00    +0.000 A 
ATOM     12  N   UNL     1       1.882   8.845  18.789  0.00  0.00    +0.000 N 
ATOM     13  C   UNL     1       1.131   9.681  19.588  0.00  0.00    +0.000 C 
ATOM     14  O   UNL     1       0.678   9.435  20.701  0.00  0.00    +0.000 OA
ATOM     15  N   UNL     1       1.804   6.848  20.141  0.00  0.00    +0.000 NA
ATOM     16  N   UNL     1       2.412   5.650  20.025  0.00  0.00    +0.000 N 
ATOM     17  H   UNL     1       2.278   9.220  17.938  0.00  0.00    +0.000 HD
ENDROOT
BRANCH   1  19
ATOM     18  C   UNL     1       7.294   4.713  13.021  0.00  0.00    +0.000 C 
ATOM     19  O   UNL     1       7.211   5.589  14.135  0.00  0.00    +0.000 OA
ENDBRANCH   1  19
BRANCH  13  20
ATOM     20  C   UNL     1       0.915  11.042  18.958  0.00  0.00    +0.000 C 
BRANCH  20  21
ATOM     21  C   UNL     1      -0.570  11.429  18.856  0.00  0.00    +0.000 C 
ATOM     22  C   UNL     1      -0.745  12.848  18.310  0.00  0.00    +0.000 C 
ATOM     23  C   UNL     1      -1.318  10.432  17.973  0.00  0.00    +0.000 C 
ENDBRANCH  20  21
ENDBRANCH  13  20
BRANCH  16  24
ATOM     24  C   UNL     1       2.324   4.721  21.137  0.00  0.00    +0.000 C 
BRANCH  24  25
ATOM     25  C   UNL     1       1.882   3.292  20.752  0.00  0.00    +0.000 C 
ATOM     26  C   UNL     1       1.586   2.430  21.981  0.00  0.00    +0.000 C 
ATOM     27  C   UNL     1       0.643   3.344  19.855  0.00  0.00    +0.000 C 
ENDBRANCH  24  25
ENDBRANCH  16  24
TORSDOF 5
ENDMDL
MODEL 3
REMARK VINA RESULT:      -7.8      3.901      5.720
REMARK  Name = 
REMARK  10 active torsions:
REMARK  status: ('A' for Active; 'I' for Inactive)
REMARK    1  A    between atoms: C_1  and  O_2
REMARK    2  A    between atoms: O_2  and  C_3
REMARK    3  A    between atoms: C_15  and  C_17
REMARK    4  A    between atoms: C_17  and  C_18
REMARK    5  A    between atoms: C_18  and  C_19
REMARK    6  A    between atoms: C_18  and  C_20
REMARK    7  A    between atoms: N_22  and  C_23
REMARK    8  A    between atoms: C_23  and  C_24
REMARK    9  A    between atoms: C_24  and  C_25
REMARK   10  A    between atoms: C_24  and  C_26
REMARK                            x       y       z     vdW  Elec       q    Type
REMARK                         _______ _______ _______ _____ _____    ______ ____
ROOT
ATOM      1  C   UNL     1       2.444   2.752  19.297  0.00  0.00    +0.000 A 
ATOM      2  C   UNL     1       2.884   3.485  20.392  0.00  0.00    +0.000 A 
ATOM      3  C   UNL     1       3.884   4.464  20.229  0.00  0.00    +0.000 A 
ATOM      4  C   UNL     1       4.485   4.720  19.000  0.00  0.00    +0.000 A 
ATOM      5  N   UNL     1       5.501   5.608  18.924  0.00  0.00    +0.000 NA
ATOM      6  C   UNL     1       6.077   5.695  17.704  0.00  0.00    +0.000 A 
ATOM      7  C   UNL     1       5.685   5.020  16.558  0.00  0.00    +0.000 A 
ATOM      8  C   UNL     1       4.581   4.166  16.641  0.00  0.00    +0.000 A 
ATOM      9  C   UNL     1       4.003   3.977  17.897  0.00  0.00    +0.000 A 
ATOM     10  C   UNL     1       2.994   3.018  18.049  0.00  0.00    +0.000 A 
ATOM     11  C   UNL     1       6.636   5.373  15.566  0.00  0.00    +0.000 A 
ATOM     12  N   UNL     1       6.625   4.839  14.294  0.00  0.00    +0.000 N 
ATOM     13  C   UNL     1       7.560   5.082  13.309  0.00  0.00    +0.000 C 
ATOM     14  O   UNL     1       8.585   5.748  13.407  0.00  0.00    +0.000 OA
ATOM     15  N   UNL     1       7.532   6.236  16.039  0.00  0.00    +0.000 NA
ATOM     16  N   UNL     1       7.188   6.413  17.331  0.00  0.00    +0.000 N 
ATOM     17  H   UNL     1       5.881   4.183  14.100  0.00  0.00    +0.000 HD
ENDROOT
BRANCH   1  19
ATOM     18  C   UNL     1       0.222   2.038  18.884  0.00  0.00    +0.000 C 
ATOM     19  O   UNL     1       1.541   1.729  19.308  0.00  0.00    +0.000 OA
ENDBRANCH   1  19
BRANCH  13  20
ATOM     20  C   UNL     1       7.219   4.388  12.005  0.00  0.00    +0.000 C 
BRANCH  20  21
ATOM     21  C   UNL     1       6.290   3.177  12.193  0.00  0.00    +0.000 C 
ATOM     22  C   UNL     1       4.855   3.499  11.769  0.00  0.00    +0.000 C 
ATOM     23  C   UNL     1       6.814   1.980  11.401  0.00  0.00    +0.000 C 
ENDBRANCH  20  21
ENDBRANCH  13  20
BRANCH  16  24
ATOM     24  C   UNL     1       8.081   7.174  18.185  0.00  0.00    +0.000 C 
BRANCH  24  25
ATOM     25  C   UNL     1       8.264   8.651  17.775  0.00  0.00    +0.000 C 
ATOM     26  C   UNL     1       6.933   9.323  17.433  0.00  0.00    +0.000 C 
ATOM     27  C   UNL     1       8.956   9.431  18.896  0.00  0.00    +0.000 C 
ENDBRANCH  24  25
ENDBRANCH  16  24
TORSDOF 5
ENDMDL
MODEL 4
REMARK VINA RESULT:      -7.8      1.240      1.808
REMARK  Name = 
REMARK  10 active torsions:
REMARK  status: ('A' for Active; 'I' for Inactive)
REMARK    1  A    between atoms: C_1  and  O_2
REMARK    2  A    between atoms: O_2  and  C_3
REMARK    3  A    between atoms: C_15  and  C_17
REMARK    4  A    between atoms: C_17  and  C_18
REMARK    5  A    between atoms: C_18  and  C_19
REMARK    6  A    between atoms: C_18  and  C_20
REMARK    7  A    between atoms: N_22  and  C_23
REMARK    8  A    between atoms: C_23  and  C_24
REMARK    9  A    between atoms: C_24  and  C_25
REMARK   10  A    between atoms: C_24  and  C_26
REMARK                            x       y       z     vdW  Elec       q    Type
REMARK                         _______ _______ _______ _____ _____    ______ ____
ROOT
ATOM      1  C   UNL     1       0.470  11.057  18.948  0.00  0.00    +0.000 A 
ATOM      2  C   UNL     1       0.028  10.696  20.215  0.00  0.00    +0.000 A 
ATOM      3  C   UNL     1       0.459   9.486  20.793  0.00  0.00    +0.000 A 
ATOM      4  C   UNL     1       1.304   8.601  20.130  0.00  0.00    +0.000 A 
ATOM      5  N   UNL     1       1.611   7.414  20.700  0.00  0.00    +0.000 NA
ATOM      6  C   UNL     1       2.350   6.594  19.920  0.00  0.00    +0.000 A 
ATOM      7  C   UNL     1       2.850   6.885  18.660  0.00  0.00    +0.000 A 
ATOM      8  C   UNL     1       2.587   8.150  18.122  0.00  0.00    +0.000 A 
ATOM      9  C   UNL     1       1.759   9.003  18.852  0.00  0.00    +0.000 A 
ATOM     10  C   UNL     1       1.352  10.215  18.281  0.00  0.00    +0.000 A 
ATOM     11  C   UNL     1       3.483   5.695  18.218  0.00  0.00    +0.000 A 
ATOM     12  N   UNL     1       4.043   5.565  16.964  0.00  0.00    +0.000 N 
ATOM     13  C   UNL     1       4.605   4.417  16.446  0.00  0.00    +0.000 C 
ATOM     14  O   UNL     1       4.644   3.309  16.970  0.00  0.00    +0.000 OA
ATOM     15  N   UNL     1       3.422   4.741  19.145  0.00  0.00    +0.000 NA
ATOM     16  N   UNL     1       2.729   5.295  20.160  0.00  0.00    +0.000 N 
ATOM     17  H   UNL     1       3.992   6.384  16.373  0.00  0.00    +0.000 HD
ENDROOT
BRANCH   1  19
ATOM     18  C   UNL     1       0.812  13.353  18.468  0.00  0.00    +0.000 C 
ATOM     19  O   UNL     1       0.089  12.154  18.232  0.00  0.00    +0.000 OA
ENDBRANCH   1  19
BRANCH  13  20
ATOM     20  C   UNL     1       5.189   4.631  15.064  0.00  0.00    +0.000 C 
BRANCH  20  21
ATOM     21  C   UNL     1       6.702   4.367  15.003  0.00  0.00    +0.000 C 
ATOM     22  C   UNL     1       7.322   4.942  13.727  0.00  0.00    +0.000 C 
ATOM     23  C   UNL     1       7.392   4.957  16.232  0.00  0.00    +0.000 C 
ENDBRANCH  20  21
ENDBRANCH  13  20
BRANCH  16  24
ATOM     24  C   UNL     1       2.335   4.447  21.270  0.00  0.00    +0.000 C 
BRANCH  24  25
ATOM     25  C   UNL     1       1.802   3.056  20.863  0.00  0.00    +0.000 C 
ATOM     26  C   UNL     1       1.395   2.218  22.077  0.00  0.00    +0.000 C 
ATOM     27  C   UNL     1       0.606   3.202  19.919  0.00  0.00    +0.000 C 
ENDBRANCH  24  25
ENDBRANCH  16  24
TORSDOF 5
ENDMDL
MODEL 5
REMARK VINA RESULT:      -7.7      1.109      1.439
REMARK  Name = 
REMARK  10 active torsions:
REMARK  status: ('A' for Active; 'I' for Inactive)
REMARK    1  A    between atoms: C_1  and  O_2
REMARK    2  A    between atoms: O_2  and  C_3
REMARK    3  A    between atoms: C_15  and  C_17
REMARK    4  A    between atoms: C_17  and  C_18
REMARK    5  A    between atoms: C_18  and  C_19
REMARK    6  A    between atoms: C_18  and  C_20
REMARK    7  A    between atoms: N_22  and  C_23
REMARK    8  A    between atoms: C_23  and  C_24
REMARK    9  A    between atoms: C_24  and  C_25
REMARK   10  A    between atoms: C_24  and  C_26
REMARK                            x       y       z     vdW  Elec       q    Type
REMARK                         _______ _______ _______ _____ _____    ______ ____
ROOT
ATOM      1  C   UNL     1      -0.075  10.930  19.163  0.00  0.00    +0.000 A 
ATOM      2  C   UNL     1      -0.473  10.425  20.395  0.00  0.00    +0.000 A 
ATOM      3  C   UNL     1       0.119   9.250  20.899  0.00  0.00    +0.000 A 
ATOM      4  C   UNL     1       1.086   8.539  20.193  0.00  0.00    +0.000 A 
ATOM      5  N   UNL     1       1.552   7.371  20.688  0.00  0.00    +0.000 NA
ATOM      6  C   UNL     1       2.406   6.718  19.868  0.00  0.00    +0.000 A 
ATOM      7  C   UNL     1       2.870   7.162  18.639  0.00  0.00    +0.000 A 
ATOM      8  C   UNL     1       2.436   8.412  18.183  0.00  0.00    +0.000 A 
ATOM      9  C   UNL     1       1.490   9.088  18.953  0.00  0.00    +0.000 A 
ATOM     10  C   UNL     1       0.921  10.267  18.457  0.00  0.00    +0.000 A 
ATOM     11  C   UNL     1       3.668   6.105  18.130  0.00  0.00    +0.000 A 
ATOM     12  N   UNL     1       4.251   6.141  16.880  0.00  0.00    +0.000 N 
ATOM     13  C   UNL     1       4.973   5.121  16.297  0.00  0.00    +0.000 C 
ATOM     14  O   UNL     1       5.163   3.996  16.746  0.00  0.00    +0.000 OA
ATOM     15  N   UNL     1       3.734   5.091  18.990  0.00  0.00    +0.000 NA
ATOM     16  N   UNL     1       2.961   5.472  20.027  0.00  0.00    +0.000 N 
ATOM     17  H   UNL     1       4.090   6.984  16.345  0.00  0.00    +0.000 HD
ENDROOT
BRANCH   1  19
ATOM     18  C   UNL     1      -0.057  13.279  18.845  0.00  0.00    +0.000 C 
ATOM     19  O   UNL     1      -0.602  12.009  18.516  0.00  0.00    +0.000 OA
ENDBRANCH   1  19
BRANCH  13  20
ATOM     20  C   UNL     1       5.532   5.509  14.943  0.00  0.00    +0.000 C 
BRANCH  20  21
ATOM     21  C   UNL     1       6.367   4.393  14.294  0.00  0.00    +0.000 C 
ATOM     22  C   UNL     1       5.553   3.608  13.263  0.00  0.00    +0.000 C 
ATOM     23  C   UNL     1       7.617   4.979  13.639  0.00  0.00    +0.000 C 
ENDBRANCH  20  21
ENDBRANCH  13  20
BRANCH  16  24
ATOM     24  C   UNL     1       2.682   4.502  21.071  0.00  0.00    +0.000 C 
BRANCH  24  25
ATOM     25  C   UNL     1       1.892   3.260  20.605  0.00  0.00    +0.000 C 
ATOM     26  C   UNL     1       0.676   3.637  19.756  0.00  0.00    +0.000 C 
ATOM     27  C   UNL     1       2.800   2.322  19.806  0.00  0.00    +0.000 C 
ENDBRANCH  24  25
ENDBRANCH  16  24
TORSDOF 5
ENDMDL
MODEL 6
REMARK VINA RESULT:      -7.6      1.669      7.088
REMARK  Name = 
REMARK  10 active torsions:
REMARK  status: ('A' for Active; 'I' for Inactive)
REMARK    1  A    between atoms: C_1  and  O_2
REMARK    2  A    between atoms: O_2  and  C_3
REMARK    3  A    between atoms: C_15  and  C_17
REMARK    4  A    between atoms: C_17  and  C_18
REMARK    5  A    between atoms: C_18  and  C_19
REMARK    6  A    between atoms: C_18  and  C_20
REMARK    7  A    between atoms: N_22  and  C_23
REMARK    8  A    between atoms: C_23  and  C_24
REMARK    9  A    between atoms: C_24  and  C_25
REMARK   10  A    between atoms: C_24  and  C_26
REMARK                            x       y       z     vdW  Elec       q    Type
REMARK                         _______ _______ _______ _____ _____    ______ ____
ROOT
ATOM      1  C   UNL     1       6.695   5.221  15.267  0.00  0.00    +0.000 A 
ATOM      2  C   UNL     1       6.740   4.043  16.003  0.00  0.00    +0.000 A 
ATOM      3  C   UNL     1       5.829   3.835  17.057  0.00  0.00    +0.000 A 
ATOM      4  C   UNL     1       4.881   4.786  17.424  0.00  0.00    +0.000 A 
ATOM      5  N   UNL     1       4.094   4.567  18.500  0.00  0.00    +0.000 NA
ATOM      6  C   UNL     1       3.289   5.604  18.824  0.00  0.00    +0.000 A 
ATOM      7  C   UNL     1       3.166   6.799  18.132  0.00  0.00    +0.000 A 
ATOM      8  C   UNL     1       3.932   6.973  16.974  0.00  0.00    +0.000 A 
ATOM      9  C   UNL     1       4.840   5.967  16.644  0.00  0.00    +0.000 A 
ATOM     10  C   UNL     1       5.729   6.169  15.581  0.00  0.00    +0.000 A 
ATOM     11  C   UNL     1       2.271   7.591  18.896  0.00  0.00    +0.000 A 
ATOM     12  N   UNL     1       1.951   8.891  18.567  0.00  0.00    +0.000 N 
ATOM     13  C   UNL     1       1.149   9.737  19.304  0.00  0.00    +0.000 C 
ATOM     14  O   UNL     1       0.644   9.513  20.399  0.00  0.00    +0.000 OA
ATOM     15  N   UNL     1       1.832   6.929  19.966  0.00  0.00    +0.000 NA
ATOM     16  N   UNL     1       2.461   5.738  19.913  0.00  0.00    +0.000 N 
ATOM     17  H   UNL     1       2.383   9.250  17.726  0.00  0.00    +0.000 HD
ENDROOT
BRANCH   1  19
ATOM     18  C   UNL     1       7.447   4.887  13.044  0.00  0.00    +0.000 C 
ATOM     19  O   UNL     1       7.549   5.594  14.271  0.00  0.00    +0.000 OA
ENDBRANCH   1  19
BRANCH  13  20
ATOM     20  C   UNL     1       0.947  11.078  18.628  0.00  0.00    +0.000 C 
BRANCH  20  21
ATOM     21  C   UNL     1       1.657  12.232  19.355  0.00  0.00    +0.000 C 
ATOM     22  C   UNL     1       2.569  13.016  18.410  0.00  0.00    +0.000 C 
ATOM     23  C   UNL     1       0.630  13.169  19.990  0.00  0.00    +0.000 C 
ENDBRANCH  20  21
ENDBRANCH  13  20
BRANCH  16  24
ATOM     24  C   UNL     1       2.330   4.837  21.044  0.00  0.00    +0.000 C 
BRANCH  24  25
ATOM     25  C   UNL     1       1.927   3.393  20.676  0.00  0.00    +0.000 C 
ATOM     26  C   UNL     1       1.637   2.543  21.914  0.00  0.00    +0.000 C 
ATOM     27  C   UNL     1       0.698   3.401  19.763  0.00  0.00    +0.000 C 
ENDBRANCH  24  25
ENDBRANCH  16  24
TORSDOF 5
ENDMDL
MODEL 7
REMARK VINA RESULT:      -7.6      3.304      8.113
REMARK  Name = 
REMARK  10 active torsions:
REMARK  status: ('A' for Active; 'I' for Inactive)
REMARK    1  A    between atoms: C_1  and  O_2
REMARK    2  A    between atoms: O_2  and  C_3
REMARK    3  A    between atoms: C_15  and  C_17
REMARK    4  A    between atoms: C_17  and  C_18
REMARK    5  A    between atoms: C_18  and  C_19
REMARK    6  A    between atoms: C_18  and  C_20
REMARK    7  A    between atoms: N_22  and  C_23
REMARK    8  A    between atoms: C_23  and  C_24
REMARK    9  A    between atoms: C_24  and  C_25
REMARK   10  A    between atoms: C_24  and  C_26
REMARK                            x       y       z     vdW  Elec       q    Type
REMARK                         _______ _______ _______ _____ _____    ______ ____
ROOT
ATOM      1  C   UNL     1       6.664   3.217  11.904  0.00  0.00    +0.000 A 
ATOM      2  C   UNL     1       7.611   4.233  11.912  0.00  0.00    +0.000 A 
ATOM      3  C   UNL     1       7.715   5.091  13.025  0.00  0.00    +0.000 A 
ATOM      4  C   UNL     1       6.876   4.985  14.130  0.00  0.00    +0.000 A 
ATOM      5  N   UNL     1       6.964   5.893  15.128  0.00  0.00    +0.000 NA
ATOM      6  C   UNL     1       6.029   5.753  16.095  0.00  0.00    +0.000 A 
ATOM      7  C   UNL     1       5.068   4.757  16.174  0.00  0.00    +0.000 A 
ATOM      8  C   UNL     1       5.046   3.781  15.172  0.00  0.00    +0.000 A 
ATOM      9  C   UNL     1       5.935   3.928  14.108  0.00  0.00    +0.000 A 
ATOM     10  C   UNL     1       5.843   3.058  13.014  0.00  0.00    +0.000 A 
ATOM     11  C   UNL     1       4.280   5.079  17.308  0.00  0.00    +0.000 A 
ATOM     12  N   UNL     1       3.165   4.355  17.677  0.00  0.00    +0.000 N 
ATOM     13  C   UNL     1       2.315   4.656  18.721  0.00  0.00    +0.000 C 
ATOM     14  O   UNL     1       2.357   5.641  19.450  0.00  0.00    +0.000 OA
ATOM     15  N   UNL     1       4.735   6.171  17.920  0.00  0.00    +0.000 NA
ATOM     16  N   UNL     1       5.783   6.570  17.172  0.00  0.00    +0.000 N 
ATOM     17  H   UNL     1       2.947   3.558  17.094  0.00  0.00    +0.000 HD
ENDROOT
BRANCH   1  19
ATOM     18  C   UNL     1       6.088   1.018  11.232  0.00  0.00    +0.000 C 
ATOM     19  O   UNL     1       6.398   2.358  10.878  0.00  0.00    +0.000 OA
ENDBRANCH   1  19
BRANCH  13  20
ATOM     20  C   UNL     1       1.224   3.620  18.896  0.00  0.00    +0.000 C 
BRANCH  20  21
ATOM     21  C   UNL     1       1.608   2.502  19.880  0.00  0.00    +0.000 C 
ATOM     22  C   UNL     1       3.084   2.121  19.749  0.00  0.00    +0.000 C 
ATOM     23  C   UNL     1       1.304   2.932  21.314  0.00  0.00    +0.000 C 
ENDBRANCH  20  21
ENDBRANCH  13  20
BRANCH  16  24
ATOM     24  C   UNL     1       6.402   7.847  17.477  0.00  0.00    +0.000 C 
BRANCH  24  25
ATOM     25  C   UNL     1       7.911   7.774  17.797  0.00  0.00    +0.000 C 
ATOM     26  C   UNL     1       8.460   9.114  18.291  0.00  0.00    +0.000 C 
ATOM     27  C   UNL     1       8.179   6.694  18.848  0.00  0.00    +0.000 C 
ENDBRANCH  24  25
ENDBRANCH  16  24
TORSDOF 5
ENDMDL
MODEL 8
REMARK VINA RESULT:      -7.3      1.071      1.376
REMARK  Name = 
REMARK  10 active torsions:
REMARK  status: ('A' for Active; 'I' for Inactive)
REMARK    1  A    between atoms: C_1  and  O_2
REMARK    2  A    between atoms: O_2  and  C_3
REMARK    3  A    between atoms: C_15  and  C_17
REMARK    4  A    between atoms: C_17  and  C_18
REMARK    5  A    between atoms: C_18  and  C_19
REMARK    6  A    between atoms: C_18  and  C_20
REMARK    7  A    between atoms: N_22  and  C_23
REMARK    8  A    between atoms: C_23  and  C_24
REMARK    9  A    between atoms: C_24  and  C_25
REMARK   10  A    between atoms: C_24  and  C_26
REMARK                            x       y       z     vdW  Elec       q    Type
REMARK                         _______ _______ _______ _____ _____    ______ ____
ROOT
ATOM      1  C   UNL     1       0.654  10.557  19.067  0.00  0.00    +0.000 A 
ATOM      2  C   UNL     1       0.277  10.123  20.332  0.00  0.00    +0.000 A 
ATOM      3  C   UNL     1       0.767   8.900  20.832  0.00  0.00    +0.000 A 
ATOM      4  C   UNL     1       1.610   8.075  20.093  0.00  0.00    +0.000 A 
ATOM      5  N   UNL     1       1.975   6.873  20.591  0.00  0.00    +0.000 NA
ATOM      6  C   UNL     1       2.705   6.115  19.742  0.00  0.00    +0.000 A 
ATOM      7  C   UNL     1       3.143   6.481  18.478  0.00  0.00    +0.000 A 
ATOM      8  C   UNL     1       2.820   7.761  18.015  0.00  0.00    +0.000 A 
ATOM      9  C   UNL     1       1.998   8.551  18.819  0.00  0.00    +0.000 A 
ATOM     10  C   UNL     1       1.531   9.776  18.325  0.00  0.00    +0.000 A 
ATOM     11  C   UNL     1       3.791   5.334  17.953  0.00  0.00    +0.000 A 
ATOM     12  N   UNL     1       4.302   5.282  16.673  0.00  0.00    +0.000 N 
ATOM     13  C   UNL     1       4.876   4.178  16.077  0.00  0.00    +0.000 C 
ATOM     14  O   UNL     1       4.969   3.048  16.544  0.00  0.00    +0.000 OA
ATOM     15  N   UNL     1       3.797   4.336  18.834  0.00  0.00    +0.000 NA
ATOM     16  N   UNL     1       3.132   4.819  19.903  0.00  0.00    +0.000 N 
ATOM     17  H   UNL     1       4.202   6.126  16.126  0.00  0.00    +0.000 HD
ENDROOT
BRANCH   1  19
ATOM     18  C   UNL     1       0.971  12.860  18.604  0.00  0.00    +0.000 C 
ATOM     19  O   UNL     1       0.210  11.674  18.422  0.00  0.00    +0.000 OA
ENDBRANCH   1  19
BRANCH  13  20
ATOM     20  C   UNL     1       5.394   4.476  14.685  0.00  0.00    +0.000 C 
BRANCH  20  21
ATOM     21  C   UNL     1       6.666   5.341  14.689  0.00  0.00    +0.000 C 
ATOM     22  C   UNL     1       7.523   5.074  15.928  0.00  0.00    +0.000 C 
ATOM     23  C   UNL     1       7.482   5.087  13.422  0.00  0.00    +0.000 C 
ENDBRANCH  20  21
ENDBRANCH  13  20
BRANCH  16  24
ATOM     24  C   UNL     1       2.810   3.906  20.985  0.00  0.00    +0.000 C 
BRANCH  24  25
ATOM     25  C   UNL     1       1.329   3.476  21.049  0.00  0.00    +0.000 C 
ATOM     26  C   UNL     1       0.812   2.989  19.694  0.00  0.00    +0.000 C 
ATOM     27  C   UNL     1       1.141   2.372  22.093  0.00  0.00    +0.000 C 
ENDBRANCH  24  25
ENDBRANCH  16  24
TORSDOF 5
ENDMDL
MODEL 9
REMARK VINA RESULT:      -7.3      3.292      5.293
REMARK  Name = 
REMARK  10 active torsions:
REMARK  status: ('A' for Active; 'I' for Inactive)
REMARK    1  A    between atoms: C_1  and  O_2
REMARK    2  A    between atoms: O_2  and  C_3
REMARK    3  A    between atoms: C_15  and  C_17
REMARK    4  A    between atoms: C_17  and  C_18
REMARK    5  A    between atoms: C_18  and  C_19
REMARK    6  A    between atoms: C_18  and  C_20
REMARK    7  A    between atoms: N_22  and  C_23
REMARK    8  A    between atoms: C_23  and  C_24
REMARK    9  A    between atoms: C_24  and  C_25
REMARK   10  A    between atoms: C_24  and  C_26
REMARK                            x       y       z     vdW  Elec       q    Type
REMARK                         _______ _______ _______ _____ _____    ______ ____
ROOT
ATOM      1  C   UNL     1       1.197   3.431  19.014  0.00  0.00    +0.000 A 
ATOM      2  C   UNL     1       1.405   4.455  19.930  0.00  0.00    +0.000 A 
ATOM      3  C   UNL     1       2.351   5.463  19.656  0.00  0.00    +0.000 A 
ATOM      4  C   UNL     1       3.125   5.467  18.500  0.00  0.00    +0.000 A 
ATOM      5  N   UNL     1       4.078   6.411  18.336  0.00  0.00    +0.000 NA
ATOM      6  C   UNL     1       4.837   6.251  17.227  0.00  0.00    +0.000 A 
ATOM      7  C   UNL     1       4.681   5.275  16.255  0.00  0.00    +0.000 A 
ATOM      8  C   UNL     1       3.636   4.357  16.405  0.00  0.00    +0.000 A 
ATOM      9  C   UNL     1       2.877   4.427  17.573  0.00  0.00    +0.000 A 
ATOM     10  C   UNL     1       1.922   3.435  17.829  0.00  0.00    +0.000 A 
ATOM     11  C   UNL     1       5.753   5.469  15.347  0.00  0.00    +0.000 A 
ATOM     12  N   UNL     1       5.984   4.637  14.271  0.00  0.00    +0.000 N 
ATOM     13  C   UNL     1       7.047   4.724  13.396  0.00  0.00    +0.000 C 
ATOM     14  O   UNL     1       7.996   5.498  13.458  0.00  0.00    +0.000 OA
ATOM     15  N   UNL     1       6.503   6.512  15.698  0.00  0.00    +0.000 NA
ATOM     16  N   UNL     1       5.943   6.967  16.837  0.00  0.00    +0.000 N 
ATOM     17  H   UNL     1       5.325   3.879  14.154  0.00  0.00    +0.000 HD
ENDROOT
BRANCH   1  19
ATOM     18  C   UNL     1       0.977   1.072  19.075  0.00  0.00    +0.000 C 
ATOM     19  O   UNL     1       0.374   2.354  19.168  0.00  0.00    +0.000 OA
ENDBRANCH   1  19
BRANCH  13  20
ATOM     20  C   UNL     1       6.968   3.697  12.286  0.00  0.00    +0.000 C 
BRANCH  20  21
ATOM     21  C   UNL     1       5.634   2.931  12.268  0.00  0.00    +0.000 C 
ATOM     22  C   UNL     1       4.528   3.745  11.594  0.00  0.00    +0.000 C 
ATOM     23  C   UNL     1       5.804   1.589  11.559  0.00  0.00    +0.000 C 
ENDBRANCH  20  21
ENDBRANCH  13  20
BRANCH  16  24
ATOM     24  C   UNL     1       6.635   8.006  17.578  0.00  0.00    +0.000 C 
BRANCH  24  25
ATOM     25  C   UNL     1       8.076   7.648  18.001  0.00  0.00    +0.000 C 
ATOM     26  C   UNL     1       8.778   8.814  18.699  0.00  0.00    +0.000 C 
ATOM     27  C   UNL     1       8.071   6.428  18.926  0.00  0.00    +0.000 C 
ENDBRANCH  24  25
ENDBRANCH  16  24
TORSDOF 5
ENDMDL
