MODEL 1
REMARK VINA RESULT:      -7.1      0.000      0.000
REMARK  Name = 
REMARK  7 active torsions:
REMARK  status: ('A' for Active; 'I' for Inactive)
REMARK    1  A    between atoms: C_1  and  O_2
REMARK    2  A    between atoms: O_2  and  C_3
REMARK    3  A    between atoms: C_6  and  N_7
REMARK    4  A    between atoms: N_7  and  C_8
REMARK    5  A    between atoms: C_11  and  C_12
REMARK    6  A    between atoms: C_12  and  O_14
REMARK    7  A    between atoms: C_17  and  N_18
REMARK                            x       y       z     vdW  Elec       q    Type
REMARK                         _______ _______ _______ _____ _____    ______ ____
ROOT
ATOM      1  N   UNL     1       5.125   6.081  18.202  0.00  0.00    +0.000 N 
ATOM      2  H   UNL     1       4.799   7.056  18.187  0.00  0.00    +0.000 HD
ENDROOT
BRANCH   1   6
ATOM      3  C   UNL     1       6.740   4.904  14.439  0.00  0.00    +0.000 A 
ATOM      4  C   UNL     1       5.445   5.397  14.555  0.00  0.00    +0.000 A 
ATOM      5  C   UNL     1       4.938   5.778  15.800  0.00  0.00    +0.000 A 
ATOM      6  C   UNL     1       5.713   5.696  16.971  0.00  0.00    +0.000 A 
ATOM      7  C   UNL     1       7.012   5.157  16.842  0.00  0.00    +0.000 A 
ATOM      8  C   UNL     1       7.526   4.779  15.583  0.00  0.00    +0.000 A 
BRANCH   7   9
ATOM      9  N   UNL     1       7.891   4.975  18.009  0.00  0.00    +0.000 N 
ATOM     10  O   UNL     1       8.643   3.989  18.031  0.00  0.00    +0.000 OA
ATOM     11  O   UNL     1       7.838   5.824  18.912  0.00  0.00    +0.000 OA
ENDBRANCH   7   9
BRANCH   3  13
ATOM     12  C   UNL     1       6.337   3.586  12.499  0.00  0.00    +0.000 C 
ATOM     13  O   UNL     1       7.116   4.573  13.168  0.00  0.00    +0.000 OA
ENDBRANCH   3  13
ENDBRANCH   1   6
BRANCH   1  14
ATOM     14  C   UNL     1       4.253   5.313  19.012  0.00  0.00    +0.000 A 
ATOM     15  C   UNL     1       3.090   5.919  19.508  0.00  0.00    +0.000 A 
ATOM     16  C   UNL     1       2.154   5.186  20.246  0.00  0.00    +0.000 A 
ATOM     17  C   UNL     1       2.372   3.826  20.492  0.00  0.00    +0.000 A 
ATOM     18  C   UNL     1       3.523   3.209  19.991  0.00  0.00    +0.000 A 
ATOM     19  C   UNL     1       4.453   3.949  19.255  0.00  0.00    +0.000 A 
BRANCH  17  20
ATOM     20  C   UNL     1       1.380   2.976  21.204  0.00  0.00    +0.000 C 
ATOM     21  O   UNL     1       1.562   2.559  22.334  0.00  0.00    +0.000 OA
BRANCH  20  22
ATOM     22  O   UNL     1       0.257   2.741  20.497  0.00  0.00    +0.000 OA
ATOM     23  H   UNL     1      -0.152   1.870  20.641  0.00  0.00    +0.000 HD
ENDBRANCH  20  22
ENDBRANCH  17  20
ENDBRANCH   1  14
TORSDOF 6
ENDMDL
MODEL 2
REMARK VINA RESULT:      -7.1      2.444      3.900
REMARK  Name = 
REMARK  7 active torsions:
REMARK  status: ('A' for Active; 'I' for Inactive)
REMARK    1  A    between atoms: C_1  and  O_2
REMARK    2  A    between atoms: O_2  and  C_3
REMARK    3  A    between atoms: C_6  and  N_7
REMARK    4  A    between atoms: N_7  and  C_8
REMARK    5  A    between atoms: C_11  and  C_12
REMARK    6  A    between atoms: C_12  and  O_14
REMARK    7  A    between atoms: C_17  and  N_18
REMARK                            x       y       z     vdW  Elec       q    Type
REMARK                         _______ _______ _______ _____ _____    ______ ____
ROOT
ATOM      1  N   UNL     1       6.110   3.849  17.586  0.00  0.00    +0.000 N 
ATOM      2  H   UNL     1       6.742   3.054  17.745  0.00  0.00    +0.000 HD
ENDROOT
BRANCH   1   6
ATOM      3  C   UNL     1       8.081   7.562  18.282  0.00  0.00    +0.000 A 
ATOM      4  C   UNL     1       8.169   6.508  19.185  0.00  0.00    +0.000 A 
ATOM      5  C   UNL     1       7.514   5.300  18.934  0.00  0.00    +0.000 A 
ATOM      6  C   UNL     1       6.764   5.095  17.763  0.00  0.00    +0.000 A 
ATOM      7  C   UNL     1       6.652   6.187  16.874  0.00  0.00    +0.000 A 
ATOM      8  C   UNL     1       7.320   7.405  17.126  0.00  0.00    +0.000 A 
BRANCH   7   9
ATOM      9  N   UNL     1       5.847   6.102  15.644  0.00  0.00    +0.000 N 
ATOM     10  O   UNL     1       6.016   5.125  14.898  0.00  0.00    +0.000 OA
ATOM     11  O   UNL     1       5.035   7.012  15.419  0.00  0.00    +0.000 OA
ENDBRANCH   7   9
BRANCH   3  13
ATOM     12  C   UNL     1       8.362   9.912  18.044  0.00  0.00    +0.000 C 
ATOM     13  O   UNL     1       8.770   8.686  18.641  0.00  0.00    +0.000 OA
ENDBRANCH   3  13
ENDBRANCH   1   6
BRANCH   1  14
ATOM     14  C   UNL     1       4.806   3.497  18.014  0.00  0.00    +0.000 A 
ATOM     15  C   UNL     1       4.610   3.165  19.362  0.00  0.00    +0.000 A 
ATOM     16  C   UNL     1       3.330   2.886  19.856  0.00  0.00    +0.000 A 
ATOM     17  C   UNL     1       2.225   2.945  18.999  0.00  0.00    +0.000 A 
ATOM     18  C   UNL     1       2.410   3.288  17.656  0.00  0.00    +0.000 A 
ATOM     19  C   UNL     1       3.691   3.564  17.170  0.00  0.00    +0.000 A 
BRANCH  17  20
ATOM     20  C   UNL     1       0.833   2.734  19.479  0.00  0.00    +0.000 C 
ATOM     21  O   UNL     1      -0.027   2.209  18.795  0.00  0.00    +0.000 OA
BRANCH  20  22
ATOM     22  O   UNL     1       0.625   3.147  20.746  0.00  0.00    +0.000 OA
ATOM     23  H   UNL     1       1.252   2.803  21.405  0.00  0.00    +0.000 HD
ENDBRANCH  20  22
ENDBRANCH  17  20
ENDBRANCH   1  14
TORSDOF 6
ENDMDL
MODEL 3
REMARK VINA RESULT:      -7.1      2.493      3.986
REMARK  Name = 
REMARK  7 active torsions:
REMARK  status: ('A' for Active; 'I' for Inactive)
REMARK    1  A    between atoms: C_1  and  O_2
REMARK    2  A    between atoms: O_2  and  C_3
REMARK    3  A    between atoms: C_6  and  N_7
REMARK    4  A    between atoms: N_7  and  C_8
REMARK    5  A    between atoms: C_11  and  C_12
REMARK    6  A    between atoms: C_12  and  O_14
REMARK    7  A    between atoms: C_17  and  N_18
REMARK                            x       y       z     vdW  Elec       q    Type
REMARK                         _______ _______ _______ _____ _____    ______ ____
ROOT
ATOM      1  N   UNL     1       6.104   4.030  17.657  0.00  0.00    +0.000 N 
ATOM      2  H   UNL     1       6.691   3.208  17.852  0.00  0.00    +0.000 HD
ENDROOT
BRANCH   1   6
ATOM      3  C   UNL     1       8.241   7.655  18.326  0.00  0.00    +0.000 A 
ATOM      4  C   UNL     1       8.243   6.624  19.259  0.00  0.00    +0.000 A 
ATOM      5  C   UNL     1       7.535   5.444  19.016  0.00  0.00    +0.000 A 
ATOM      6  C   UNL     1       6.815   5.245  17.825  0.00  0.00    +0.000 A 
ATOM      7  C   UNL     1       6.791   6.317  16.905  0.00  0.00    +0.000 A 
ATOM      8  C   UNL     1       7.512   7.505  17.148  0.00  0.00    +0.000 A 
BRANCH   7   9
ATOM      9  N   UNL     1       6.025   6.238  15.650  0.00  0.00    +0.000 N 
ATOM     10  O   UNL     1       5.010   6.942  15.536  0.00  0.00    +0.000 OA
ATOM     11  O   UNL     1       6.439   5.473  14.766  0.00  0.00    +0.000 OA
ENDBRANCH   7   9
BRANCH   3  13
ATOM     12  C   UNL     1       8.513  10.016  18.214  0.00  0.00    +0.000 C 
ATOM     13  O   UNL     1       8.975   8.752  18.680  0.00  0.00    +0.000 OA
ENDBRANCH   3  13
ENDBRANCH   1   6
BRANCH   1  14
ATOM     14  C   UNL     1       4.774   3.754  18.057  0.00  0.00    +0.000 A 
ATOM     15  C   UNL     1       3.762   3.786  17.087  0.00  0.00    +0.000 A 
ATOM     16  C   UNL     1       2.444   3.444  17.409  0.00  0.00    +0.000 A 
ATOM     17  C   UNL     1       2.125   3.056  18.716  0.00  0.00    +0.000 A 
ATOM     18  C   UNL     1       3.129   3.009  19.687  0.00  0.00    +0.000 A 
ATOM     19  C   UNL     1       4.444   3.353  19.357  0.00  0.00    +0.000 A 
BRANCH  17  20
ATOM     20  C   UNL     1       0.760   2.609  19.103  0.00  0.00    +0.000 C 
ATOM     21  O   UNL     1       0.105   1.835  18.428  0.00  0.00    +0.000 OA
BRANCH  20  22
ATOM     22  O   UNL     1       0.334   3.111  20.280  0.00  0.00    +0.000 OA
ATOM     23  H   UNL     1      -0.078   3.991  20.233  0.00  0.00    +0.000 HD
ENDBRANCH  20  22
ENDBRANCH  17  20
ENDBRANCH   1  14
TORSDOF 6
ENDMDL
MODEL 4
REMARK VINA RESULT:      -7.0      1.201      1.512
REMARK  Name = 
REMARK  7 active torsions:
REMARK  status: ('A' for Active; 'I' for Inactive)
REMARK    1  A    between atoms: C_1  and  O_2
REMARK    2  A    between atoms: O_2  and  C_3
REMARK    3  A    between atoms: C_6  and  N_7
REMARK    4  A    between atoms: N_7  and  C_8
REMARK    5  A    between atoms: C_11  and  C_12
REMARK    6  A    between atoms: C_12  and  O_14
REMARK    7  A    between atoms: C_17  and  N_18
REMARK                            x       y       z     vdW  Elec       q    Type
REMARK                         _______ _______ _______ _____ _____    ______ ____
ROOT
ATOM      1  N   UNL     1       6.204   4.376  18.576  0.00  0.00    +0.000 N 
ATOM      2  H   UNL     1       6.716   5.084  19.117  0.00  0.00    +0.000 HD
ENDROOT
BRANCH   1   6
ATOM      3  C   UNL     1       6.644   4.766  14.357  0.00  0.00    +0.000 A 
ATOM      4  C   UNL     1       6.051   3.645  14.928  0.00  0.00    +0.000 A 
ATOM      5  C   UNL     1       5.917   3.541  16.315  0.00  0.00    +0.000 A 
ATOM      6  C   UNL     1       6.354   4.561  17.179  0.00  0.00    +0.000 A 
ATOM      7  C   UNL     1       6.990   5.674  16.585  0.00  0.00    +0.000 A 
ATOM      8  C   UNL     1       7.118   5.781  15.184  0.00  0.00    +0.000 A 
BRANCH   7   9
ATOM      9  N   UNL     1       7.534   6.775  17.398  0.00  0.00    +0.000 N 
ATOM     10  O   UNL     1       7.496   7.924  16.932  0.00  0.00    +0.000 OA
ATOM     11  O   UNL     1       8.001   6.496  18.512  0.00  0.00    +0.000 OA
ENDBRANCH   7   9
BRANCH   3  13
ATOM     12  C   UNL     1       6.440   3.506  12.348  0.00  0.00    +0.000 C 
ATOM     13  O   UNL     1       6.710   4.748  12.992  0.00  0.00    +0.000 OA
ENDBRANCH   3  13
ENDBRANCH   1   6
BRANCH   1  14
ATOM     14  C   UNL     1       5.020   4.029  19.273  0.00  0.00    +0.000 A 
ATOM     15  C   UNL     1       4.075   5.032  19.531  0.00  0.00    +0.000 A 
ATOM     16  C   UNL     1       2.854   4.731  20.144  0.00  0.00    +0.000 A 
ATOM     17  C   UNL     1       2.562   3.409  20.502  0.00  0.00    +0.000 A 
ATOM     18  C   UNL     1       3.492   2.400  20.237  0.00  0.00    +0.000 A 
ATOM     19  C   UNL     1       4.710   2.710  19.624  0.00  0.00    +0.000 A 
BRANCH  17  20
ATOM     20  C   UNL     1       1.252   3.014  21.087  0.00  0.00    +0.000 C 
ATOM     21  O   UNL     1       1.140   2.591  22.223  0.00  0.00    +0.000 OA
BRANCH  20  22
ATOM     22  O   UNL     1       0.206   3.197  20.256  0.00  0.00    +0.000 OA
ATOM     23  H   UNL     1       0.185   4.053  19.795  0.00  0.00    +0.000 HD
ENDBRANCH  20  22
ENDBRANCH  17  20
ENDBRANCH   1  14
TORSDOF 6
ENDMDL
MODEL 5
REMARK VINA RESULT:      -6.9      2.159      7.157
REMARK  Name = 
REMARK  7 active torsions:
REMARK  status: ('A' for Active; 'I' for Inactive)
REMARK    1  A    between atoms: C_1  and  O_2
REMARK    2  A    between atoms: O_2  and  C_3
REMARK    3  A    between atoms: C_6  and  N_7
REMARK    4  A    between atoms: N_7  and  C_8
REMARK    5  A    between atoms: C_11  and  C_12
REMARK    6  A    between atoms: C_12  and  O_14
REMARK    7  A    between atoms: C_17  and  N_18
REMARK                            x       y       z     vdW  Elec       q    Type
REMARK                         _______ _______ _______ _____ _____    ______ ____
ROOT
ATOM      1  N   UNL     1       4.674   4.000  18.611  0.00  0.00    +0.000 N 
ATOM      2  H   UNL     1       4.503   2.988  18.669  0.00  0.00    +0.000 HD
ENDROOT
BRANCH   1   6
ATOM      3  C   UNL     1       1.722   6.393  20.538  0.00  0.00    +0.000 A 
ATOM      4  C   UNL     1       2.602   6.930  19.605  0.00  0.00    +0.000 A 
ATOM      5  C   UNL     1       3.561   6.125  18.986  0.00  0.00    +0.000 A 
ATOM      6  C   UNL     1       3.663   4.750  19.263  0.00  0.00    +0.000 A 
ATOM      7  C   UNL     1       2.788   4.227  20.241  0.00  0.00    +0.000 A 
ATOM      8  C   UNL     1       1.815   5.041  20.861  0.00  0.00    +0.000 A 
BRANCH   7   9
ATOM      9  N   UNL     1       2.843   2.814  20.649  0.00  0.00    +0.000 N 
ATOM     10  O   UNL     1       2.871   1.947  19.763  0.00  0.00    +0.000 OA
ATOM     11  O   UNL     1       2.863   2.562  21.863  0.00  0.00    +0.000 OA
ENDBRANCH   7   9
BRANCH   3  13
ATOM     12  C   UNL     1       1.151   8.666  20.949  0.00  0.00    +0.000 C 
ATOM     13  O   UNL     1       0.830   7.283  21.066  0.00  0.00    +0.000 OA
ENDBRANCH   3  13
ENDBRANCH   1   6
BRANCH   1  14
ATOM     14  C   UNL     1       5.296   4.294  17.373  0.00  0.00    +0.000 A 
ATOM     15  C   UNL     1       6.658   4.626  17.368  0.00  0.00    +0.000 A 
ATOM     16  C   UNL     1       7.341   4.848  16.167  0.00  0.00    +0.000 A 
ATOM     17  C   UNL     1       6.663   4.732  14.949  0.00  0.00    +0.000 A 
ATOM     18  C   UNL     1       5.307   4.390  14.942  0.00  0.00    +0.000 A 
ATOM     19  C   UNL     1       4.632   4.170  16.146  0.00  0.00    +0.000 A 
BRANCH  17  20
ATOM     20  C   UNL     1       7.350   4.881  13.637  0.00  0.00    +0.000 C 
ATOM     21  O   UNL     1       6.986   4.295  12.634  0.00  0.00    +0.000 OA
BRANCH  20  22
ATOM     22  O   UNL     1       8.385   5.745  13.659  0.00  0.00    +0.000 OA
ATOM     23  H   UNL     1       9.170   5.443  14.147  0.00  0.00    +0.000 HD
ENDBRANCH  20  22
ENDBRANCH  17  20
ENDBRANCH   1  14
TORSDOF 6
ENDMDL
MODEL 6
REMARK VINA RESULT:      -6.9      2.159      7.064
REMARK  Name = 
REMARK  7 active torsions:
REMARK  status: ('A' for Active; 'I' for Inactive)
REMARK    1  A    between atoms: C_1  and  O_2
REMARK    2  A    between atoms: O_2  and  C_3
REMARK    3  A    between atoms: C_6  and  N_7
REMARK    4  A    between atoms: N_7  and  C_8
REMARK    5  A    between atoms: C_11  and  C_12
REMARK    6  A    between atoms: C_12  and  O_14
REMARK    7  A    between atoms: C_17  and  N_18
REMARK                            x       y       z     vdW  Elec       q    Type
REMARK                         _______ _______ _______ _____ _____    ______ ____
ROOT
ATOM      1  N   UNL     1       4.423   3.932  18.939  0.00  0.00    +0.000 N 
ATOM      2  H   UNL     1       4.137   2.949  19.029  0.00  0.00    +0.000 HD
ENDROOT
BRANCH   1   6
ATOM      3  C   UNL     1       1.631   6.729  20.530  0.00  0.00    +0.000 A 
ATOM      4  C   UNL     1       2.602   7.110  19.611  0.00  0.00    +0.000 A 
ATOM      5  C   UNL     1       3.506   6.174  19.102  0.00  0.00    +0.000 A 
ATOM      6  C   UNL     1       3.460   4.821  19.480  0.00  0.00    +0.000 A 
ATOM      7  C   UNL     1       2.493   4.457  20.444  0.00  0.00    +0.000 A 
ATOM      8  C   UNL     1       1.576   5.402  20.952  0.00  0.00    +0.000 A 
BRANCH   7   9
ATOM      9  N   UNL     1       2.391   3.079  20.952  0.00  0.00    +0.000 N 
ATOM     10  O   UNL     1       2.208   2.164  20.136  0.00  0.00    +0.000 OA
ATOM     11  O   UNL     1       2.497   2.904  22.175  0.00  0.00    +0.000 OA
ENDBRANCH   7   9
BRANCH   3  13
ATOM     12  C   UNL     1       1.076   9.041  20.443  0.00  0.00    +0.000 C 
ATOM     13  O   UNL     1       0.806   7.737  20.945  0.00  0.00    +0.000 OA
ENDBRANCH   3  13
ENDBRANCH   1   6
BRANCH   1  14
ATOM     14  C   UNL     1       5.156   4.092  17.737  0.00  0.00    +0.000 A 
ATOM     15  C   UNL     1       4.493   3.900  16.516  0.00  0.00    +0.000 A 
ATOM     16  C   UNL     1       5.147   4.122  15.299  0.00  0.00    +0.000 A 
ATOM     17  C   UNL     1       6.481   4.547  15.293  0.00  0.00    +0.000 A 
ATOM     18  C   UNL     1       7.147   4.753  16.505  0.00  0.00    +0.000 A 
ATOM     19  C   UNL     1       6.486   4.528  17.717  0.00  0.00    +0.000 A 
BRANCH  17  20
ATOM     20  C   UNL     1       7.207   4.872  14.035  0.00  0.00    +0.000 C 
ATOM     21  O   UNL     1       8.130   5.666  13.995  0.00  0.00    +0.000 OA
BRANCH  20  22
ATOM     22  O   UNL     1       6.771   4.185  12.961  0.00  0.00    +0.000 OA
ATOM     23  H   UNL     1       6.212   4.687  12.343  0.00  0.00    +0.000 HD
ENDBRANCH  20  22
ENDBRANCH  17  20
ENDBRANCH   1  14
TORSDOF 6
ENDMDL
MODEL 7
REMARK VINA RESULT:      -6.9      3.908      5.226
REMARK  Name = 
REMARK  7 active torsions:
REMARK  status: ('A' for Active; 'I' for Inactive)
REMARK    1  A    between atoms: C_1  and  O_2
REMARK    2  A    between atoms: O_2  and  C_3
REMARK    3  A    between atoms: C_6  and  N_7
REMARK    4  A    between atoms: N_7  and  C_8
REMARK    5  A    between atoms: C_11  and  C_12
REMARK    6  A    between atoms: C_12  and  O_14
REMARK    7  A    between atoms: C_17  and  N_18
REMARK                            x       y       z     vdW  Elec       q    Type
REMARK                         _______ _______ _______ _____ _____    ______ ____
ROOT
ATOM      1  N   UNL     1       2.939   5.874  19.274  0.00  0.00    +0.000 N 
ATOM      2  H   UNL     1       3.190   5.618  20.238  0.00  0.00    +0.000 HD
ENDROOT
BRANCH   1   6
ATOM      3  C   UNL     1       5.786   4.466  16.435  0.00  0.00    +0.000 A 
ATOM      4  C   UNL     1       6.076   5.516  17.300  0.00  0.00    +0.000 A 
ATOM      5  C   UNL     1       5.126   5.959  18.223  0.00  0.00    +0.000 A 
ATOM      6  C   UNL     1       3.859   5.358  18.328  0.00  0.00    +0.000 A 
ATOM      7  C   UNL     1       3.567   4.318  17.417  0.00  0.00    +0.000 A 
ATOM      8  C   UNL     1       4.530   3.867  16.489  0.00  0.00    +0.000 A 
BRANCH   7   9
ATOM      9  N   UNL     1       2.253   3.653  17.401  0.00  0.00    +0.000 N 
ATOM     10  O   UNL     1       1.236   4.362  17.372  0.00  0.00    +0.000 OA
ATOM     11  O   UNL     1       2.231   2.413  17.413  0.00  0.00    +0.000 OA
ENDBRANCH   7   9
BRANCH   3  13
ATOM     12  C   UNL     1       6.713   4.607  14.248  0.00  0.00    +0.000 C 
ATOM     13  O   UNL     1       6.801   4.125  15.586  0.00  0.00    +0.000 OA
ENDBRANCH   3  13
ENDBRANCH   1   6
BRANCH   1  14
ATOM     14  C   UNL     1       2.344   7.160  19.277  0.00  0.00    +0.000 A 
ATOM     15  C   UNL     1       2.262   7.864  18.067  0.00  0.00    +0.000 A 
ATOM     16  C   UNL     1       1.614   9.102  17.997  0.00  0.00    +0.000 A 
ATOM     17  C   UNL     1       1.030   9.649  19.146  0.00  0.00    +0.000 A 
ATOM     18  C   UNL     1       1.095   8.948  20.354  0.00  0.00    +0.000 A 
ATOM     19  C   UNL     1       1.745   7.712  20.416  0.00  0.00    +0.000 A 
BRANCH  17  20
ATOM     20  C   UNL     1       0.262  10.923  19.120  0.00  0.00    +0.000 C 
ATOM     21  O   UNL     1      -0.617  11.177  19.923  0.00  0.00    +0.000 OA
BRANCH  20  22
ATOM     22  O   UNL     1       0.652  11.775  18.150  0.00  0.00    +0.000 OA
ATOM     23  H   UNL     1       0.634  11.415  17.247  0.00  0.00    +0.000 HD
ENDBRANCH  20  22
ENDBRANCH  17  20
ENDBRANCH   1  14
TORSDOF 6
ENDMDL
MODEL 8
REMARK VINA RESULT:      -6.9      3.874      5.092
REMARK  Name = 
REMARK  7 active torsions:
REMARK  status: ('A' for Active; 'I' for Inactive)
REMARK    1  A    between atoms: C_1  and  O_2
REMARK    2  A    between atoms: O_2  and  C_3
REMARK    3  A    between atoms: C_6  and  N_7
REMARK    4  A    between atoms: N_7  and  C_8
REMARK    5  A    between atoms: C_11  and  C_12
REMARK    6  A    between atoms: C_12  and  O_14
REMARK    7  A    between atoms: C_17  and  N_18
REMARK                            x       y       z     vdW  Elec       q    Type
REMARK                         _______ _______ _______ _____ _____    ______ ____
ROOT
ATOM      1  N   UNL     1       3.088   5.897  19.261  0.00  0.00    +0.000 N 
ATOM      2  H   UNL     1       3.478   5.776  20.204  0.00  0.00    +0.000 HD
ENDROOT
BRANCH   1   6
ATOM      3  C   UNL     1       5.733   4.471  16.241  0.00  0.00    +0.000 A 
ATOM      4  C   UNL     1       6.059   5.559  17.042  0.00  0.00    +0.000 A 
ATOM      5  C   UNL     1       5.175   6.008  18.027  0.00  0.00    +0.000 A 
ATOM      6  C   UNL     1       3.942   5.374  18.258  0.00  0.00    +0.000 A 
ATOM      7  C   UNL     1       3.608   4.294  17.410  0.00  0.00    +0.000 A 
ATOM      8  C   UNL     1       4.505   3.837  16.421  0.00  0.00    +0.000 A 
BRANCH   7   9
ATOM      9  N   UNL     1       2.320   3.591  17.528  0.00  0.00    +0.000 N 
ATOM     10  O   UNL     1       2.334   2.370  17.744  0.00  0.00    +0.000 OA
ATOM     11  O   UNL     1       1.282   4.260  17.408  0.00  0.00    +0.000 OA
ENDBRANCH   7   9
BRANCH   3  13
ATOM     12  C   UNL     1       6.257   4.002  13.968  0.00  0.00    +0.000 C 
ATOM     13  O   UNL     1       6.683   4.129  15.321  0.00  0.00    +0.000 OA
ENDBRANCH   3  13
ENDBRANCH   1   6
BRANCH   1  14
ATOM     14  C   UNL     1       2.355   7.109  19.216  0.00  0.00    +0.000 A 
ATOM     15  C   UNL     1       1.804   7.604  20.406  0.00  0.00    +0.000 A 
ATOM     16  C   UNL     1       1.139   8.836  20.434  0.00  0.00    +0.000 A 
ATOM     17  C   UNL     1       1.025   9.592  19.262  0.00  0.00    +0.000 A 
ATOM     18  C   UNL     1       1.583   9.112  18.073  0.00  0.00    +0.000 A 
ATOM     19  C   UNL     1       2.244   7.881  18.053  0.00  0.00    +0.000 A 
BRANCH  17  20
ATOM     20  C   UNL     1       0.398  10.941  19.242  0.00  0.00    +0.000 C 
ATOM     21  O   UNL     1       0.198  11.588  20.255  0.00  0.00    +0.000 OA
BRANCH  20  22
ATOM     22  O   UNL     1       0.104  11.388  18.005  0.00  0.00    +0.000 OA
ATOM     23  H   UNL     1      -0.840  11.548  17.832  0.00  0.00    +0.000 HD
ENDBRANCH  20  22
ENDBRANCH  17  20
ENDBRANCH   1  14
TORSDOF 6
ENDMDL
MODEL 9
REMARK VINA RESULT:      -6.8      3.916      5.421
REMARK  Name = 
REMARK  7 active torsions:
REMARK  status: ('A' for Active; 'I' for Inactive)
REMARK    1  A    between atoms: C_1  and  O_2
REMARK    2  A    between atoms: O_2  and  C_3
REMARK    3  A    between atoms: C_6  and  N_7
REMARK    4  A    between atoms: N_7  and  C_8
REMARK    5  A    between atoms: C_11  and  C_12
REMARK    6  A    between atoms: C_12  and  O_14
REMARK    7  A    between atoms: C_17  and  N_18
REMARK                            x       y       z     vdW  Elec       q    Type
REMARK                         _______ _______ _______ _____ _____    ______ ____
ROOT
ATOM      1  N   UNL     1       3.070   6.183  19.758  0.00  0.00    +0.000 N 
ATOM      2  H   UNL     1       3.625   6.236  20.622  0.00  0.00    +0.000 HD
ENDROOT
BRANCH   1   6
ATOM      3  C   UNL     1       5.146   4.052  16.709  0.00  0.00    +0.000 A 
ATOM      4  C   UNL     1       5.769   5.043  17.460  0.00  0.00    +0.000 A 
ATOM      5  C   UNL     1       5.067   5.727  18.456  0.00  0.00    +0.000 A 
ATOM      6  C   UNL     1       3.723   5.434  18.748  0.00  0.00    +0.000 A 
ATOM      7  C   UNL     1       3.094   4.452  17.950  0.00  0.00    +0.000 A 
ATOM      8  C   UNL     1       3.806   3.757  16.950  0.00  0.00    +0.000 A 
BRANCH   7   9
ATOM      9  N   UNL     1       1.675   4.103  18.133  0.00  0.00    +0.000 N 
ATOM     10  O   UNL     1       1.293   3.772  19.266  0.00  0.00    +0.000 OA
ATOM     11  O   UNL     1       0.932   4.162  17.142  0.00  0.00    +0.000 OA
ENDBRANCH   7   9
BRANCH   3  13
ATOM     12  C   UNL     1       6.123   4.151  14.541  0.00  0.00    +0.000 C 
ATOM     13  O   UNL     1       5.942   3.456  15.771  0.00  0.00    +0.000 OA
ENDBRANCH   3  13
ENDBRANCH   1   6
BRANCH   1  14
ATOM     14  C   UNL     1       2.349   7.392  19.597  0.00  0.00    +0.000 A 
ATOM     15  C   UNL     1       2.302   7.981  18.326  0.00  0.00    +0.000 A 
ATOM     16  C   UNL     1       1.540   9.131  18.092  0.00  0.00    +0.000 A 
ATOM     17  C   UNL     1       0.806   9.704  19.138  0.00  0.00    +0.000 A 
ATOM     18  C   UNL     1       0.836   9.116  20.406  0.00  0.00    +0.000 A 
ATOM     19  C   UNL     1       1.600   7.968  20.631  0.00  0.00    +0.000 A 
BRANCH  17  20
ATOM     20  C   UNL     1      -0.083  10.880  18.935  0.00  0.00    +0.000 C 
ATOM     21  O   UNL     1       0.344  11.986  18.654  0.00  0.00    +0.000 OA
BRANCH  20  22
ATOM     22  O   UNL     1      -1.395  10.600  19.059  0.00  0.00    +0.000 OA
ATOM     23  H   UNL     1      -1.766  10.026  18.367  0.00  0.00    +0.000 HD
ENDBRANCH  20  22
ENDBRANCH  17  20
ENDBRANCH   1  14
TORSDOF 6
ENDMDL
