MODEL 1
REMARK VINA RESULT:      -8.6      0.000      0.000
REMARK  Name = 
REMARK  7 active torsions:
REMARK  status: ('A' for Active; 'I' for Inactive)
REMARK    1  A    between atoms: C_1  and  C_2
REMARK    2  A    between atoms: C_9  and  C_10
REMARK    3  A    between atoms: N_12  and  C_13
REMARK    4  A    between atoms: C_18  and  N_19
REMARK    5  A    between atoms: C_22  and  N_23
REMARK    6  A    between atoms: N_23  and  C_24
REMARK    7  A    between atoms: N_23  and  C_25
REMARK                            x       y       z     vdW  Elec       q    Type
REMARK                         _______ _______ _______ _____ _____    ______ ____
ROOT
ATOM      1  C   UNL     1       1.834   7.969  19.923  0.00  0.00    +0.000 C 
ATOM      2  O   UNL     1       1.749   8.193  21.126  0.00  0.00    +0.000 OA
ATOM      3  N   UNL     1       1.543   8.882  18.918  0.00  0.00    +0.000 N 
ATOM      4  H   UNL     1       1.512   8.527  17.972  0.00  0.00    +0.000 HD
ENDROOT
BRANCH   1  13
ATOM      5  C   UNL     1       1.388   2.652  21.380  0.00  0.00    +0.000 C 
ATOM      6  C   UNL     1       1.987   3.027  20.055  0.00  0.00    +0.000 A 
ATOM      7  C   UNL     1       2.371   2.027  19.142  0.00  0.00    +0.000 A 
ATOM      8  C   UNL     1       2.952   2.339  17.914  0.00  0.00    +0.000 A 
ATOM      9  C   UNL     1       3.169   3.669  17.561  0.00  0.00    +0.000 A 
ATOM     10  F   UNL     1       3.725   3.950  16.374  0.00  0.00    +0.000 F 
ATOM     11  C   UNL     1       2.778   4.705  18.426  0.00  0.00    +0.000 A 
ATOM     12  C   UNL     1       2.807   6.131  18.350  0.00  0.00    +0.000 A 
ATOM     13  C   UNL     1       2.195   6.634  19.483  0.00  0.00    +0.000 A 
ATOM     14  N   UNL     1       1.921   5.544  20.288  0.00  0.00    +0.000 N 
ATOM     15  C   UNL     1       2.203   4.360  19.650  0.00  0.00    +0.000 A 
ATOM     16  H   UNL     1       1.496   5.630  21.203  0.00  0.00    +0.000 HD
ENDBRANCH   1  13
BRANCH   3  17
ATOM     17  C   UNL     1       1.134  10.232  19.108  0.00  0.00    +0.000 A 
ATOM     18  C   UNL     1       1.822  11.305  18.541  0.00  0.00    +0.000 A 
ATOM     19  C   UNL     1       1.404  12.605  18.780  0.00  0.00    +0.000 A 
ATOM     20 CL   UNL     1       2.258  13.923  18.071  0.00  0.00    +0.000 Cl
ATOM     21  C   UNL     1       0.299  12.856  19.585  0.00  0.00    +0.000 A 
ATOM     22  C   UNL     1      -0.431  11.817  20.179  0.00  0.00    +0.000 A 
ATOM     23  C   UNL     1      -0.002  10.498  19.903  0.00  0.00    +0.000 A 
BRANCH  22  24
ATOM     24  N   UNL     1      -1.519  12.115  20.981  0.00  0.00    +0.000 N 
ATOM     25  C   UNL     1      -2.819  12.547  20.466  0.00  0.00    +0.000 C 
ATOM     26  C   UNL     1      -3.271  13.778  21.264  0.00  0.00    +0.000 C 
ATOM     27  C   UNL     1      -3.331  13.517  22.793  0.00  0.00    +0.000 C 
ATOM     28  C   UNL     1      -1.927  13.020  23.210  0.00  0.00    +0.000 C 
ATOM     29  C   UNL     1      -1.515  11.782  22.415  0.00  0.00    +0.000 C 
BRANCH  27  30
ATOM     30  N   UNL     1      -4.429  12.593  23.197  0.00  0.00    +0.000 NA
ATOM     31  C   UNL     1      -4.477  12.391  24.653  0.00  0.00    +0.000 C 
ATOM     32  C   UNL     1      -5.748  13.078  22.767  0.00  0.00    +0.000 C 
ENDBRANCH  27  30
ENDBRANCH  22  24
ENDBRANCH   3  17
TORSDOF 4
ENDMDL
MODEL 2
REMARK VINA RESULT:      -8.5      7.488     10.262
REMARK  Name = 
REMARK  7 active torsions:
REMARK  status: ('A' for Active; 'I' for Inactive)
REMARK    1  A    between atoms: C_1  and  C_2
REMARK    2  A    between atoms: C_9  and  C_10
REMARK    3  A    between atoms: N_12  and  C_13
REMARK    4  A    between atoms: C_18  and  N_19
REMARK    5  A    between atoms: C_22  and  N_23
REMARK    6  A    between atoms: N_23  and  C_24
REMARK    7  A    between atoms: N_23  and  C_25
REMARK                            x       y       z     vdW  Elec       q    Type
REMARK                         _______ _______ _______ _____ _____    ______ ____
ROOT
ATOM      1  C   UNL     1       8.215   8.212  18.247  0.00  0.00    +0.000 C 
ATOM      2  O   UNL     1       8.567   7.310  19.001  0.00  0.00    +0.000 OA
ATOM      3  N   UNL     1       7.374   8.055  17.152  0.00  0.00    +0.000 N 
ATOM      4  H   UNL     1       7.282   8.845  16.529  0.00  0.00    +0.000 HD
ENDROOT
BRANCH   1  13
ATOM      5  C   UNL     1       9.316  11.907  22.213  0.00  0.00    +0.000 C 
ATOM      6  C   UNL     1       9.738  12.167  20.796  0.00  0.00    +0.000 A 
ATOM      7  C   UNL     1      10.485  13.318  20.479  0.00  0.00    +0.000 A 
ATOM      8  C   UNL     1      10.873  13.603  19.171  0.00  0.00    +0.000 A 
ATOM      9  C   UNL     1      10.524  12.740  18.134  0.00  0.00    +0.000 A 
ATOM     10  F   UNL     1      10.909  13.029  16.882  0.00  0.00    +0.000 F 
ATOM     11  C   UNL     1       9.804  11.564  18.403  0.00  0.00    +0.000 A 
ATOM     12  C   UNL     1       9.345  10.472  17.604  0.00  0.00    +0.000 A 
ATOM     13  C   UNL     1       8.760   9.542  18.444  0.00  0.00    +0.000 A 
ATOM     14  N   UNL     1       8.745  10.115  19.701  0.00  0.00    +0.000 N 
ATOM     15  C   UNL     1       9.426  11.309  19.722  0.00  0.00    +0.000 A 
ATOM     16  H   UNL     1       8.341   9.658  20.509  0.00  0.00    +0.000 HD
ENDBRANCH   1  13
BRANCH   3  17
ATOM     17  C   UNL     1       6.753   6.842  16.742  0.00  0.00    +0.000 A 
ATOM     18  C   UNL     1       7.094   6.196  15.554  0.00  0.00    +0.000 A 
ATOM     19  C   UNL     1       6.438   5.032  15.181  0.00  0.00    +0.000 A 
ATOM     20 CL   UNL     1       6.869   4.238  13.714  0.00  0.00    +0.000 Cl
ATOM     21  C   UNL     1       5.438   4.496  15.984  0.00  0.00    +0.000 A 
ATOM     22  C   UNL     1       5.056   5.102  17.189  0.00  0.00    +0.000 A 
ATOM     23  C   UNL     1       5.753   6.274  17.562  0.00  0.00    +0.000 A 
BRANCH  22  24
ATOM     24  N   UNL     1       4.047   4.537  17.951  0.00  0.00    +0.000 N 
ATOM     25  C   UNL     1       2.927   3.780  17.390  0.00  0.00    +0.000 C 
ATOM     26  C   UNL     1       1.627   4.299  18.021  0.00  0.00    +0.000 C 
ATOM     27  C   UNL     1       1.637   4.222  19.571  0.00  0.00    +0.000 C 
ATOM     28  C   UNL     1       2.883   5.008  20.043  0.00  0.00    +0.000 C 
ATOM     29  C   UNL     1       4.161   4.454  19.416  0.00  0.00    +0.000 C 
BRANCH  27  30
ATOM     30  N   UNL     1       1.582   2.829  20.098  0.00  0.00    +0.000 NA
ATOM     31  C   UNL     1       1.274   2.791  21.536  0.00  0.00    +0.000 C 
ATOM     32  C   UNL     1       0.579   2.012  19.402  0.00  0.00    +0.000 C 
ENDBRANCH  27  30
ENDBRANCH  22  24
ENDBRANCH   3  17
TORSDOF 4
ENDMDL
MODEL 3
REMARK VINA RESULT:      -8.4      7.162     10.250
REMARK  Name = 
REMARK  7 active torsions:
REMARK  status: ('A' for Active; 'I' for Inactive)
REMARK    1  A    between atoms: C_1  and  C_2
REMARK    2  A    between atoms: C_9  and  C_10
REMARK    3  A    between atoms: N_12  and  C_13
REMARK    4  A    between atoms: C_18  and  N_19
REMARK    5  A    between atoms: C_22  and  N_23
REMARK    6  A    between atoms: N_23  and  C_24
REMARK    7  A    between atoms: N_23  and  C_25
REMARK                            x       y       z     vdW  Elec       q    Type
REMARK                         _______ _______ _______ _____ _____    ______ ____
ROOT
ATOM      1  C   UNL     1       8.105   7.915  18.258  0.00  0.00    +0.000 C 
ATOM      2  O   UNL     1       8.514   7.003  18.969  0.00  0.00    +0.000 OA
ATOM      3  N   UNL     1       7.177   7.776  17.234  0.00  0.00    +0.000 N 
ATOM      4  H   UNL     1       7.037   8.575  16.631  0.00  0.00    +0.000 HD
ENDROOT
BRANCH   1  13
ATOM      5  C   UNL     1       9.334  11.642  22.156  0.00  0.00    +0.000 C 
ATOM      6  C   UNL     1       9.729  11.881  20.727  0.00  0.00    +0.000 A 
ATOM      7  C   UNL     1      10.481  13.020  20.381  0.00  0.00    +0.000 A 
ATOM      8  C   UNL     1      10.844  13.285  19.061  0.00  0.00    +0.000 A 
ATOM      9  C   UNL     1      10.463  12.415  18.043  0.00  0.00    +0.000 A 
ATOM     10  F   UNL     1      10.825  12.684  16.780  0.00  0.00    +0.000 F 
ATOM     11  C   UNL     1       9.735  11.251  18.341  0.00  0.00    +0.000 A 
ATOM     12  C   UNL     1       9.246  10.155  17.565  0.00  0.00    +0.000 A 
ATOM     13  C   UNL     1       8.669   9.242  18.428  0.00  0.00    +0.000 A 
ATOM     14  N   UNL     1       8.688   9.829  19.679  0.00  0.00    +0.000 N 
ATOM     15  C   UNL     1       9.383  11.015  19.670  0.00  0.00    +0.000 A 
ATOM     16  H   UNL     1       8.297   9.386  20.500  0.00  0.00    +0.000 HD
ENDBRANCH   1  13
BRANCH   3  17
ATOM     17  C   UNL     1       6.520   6.570  16.860  0.00  0.00    +0.000 A 
ATOM     18  C   UNL     1       6.808   5.904  15.670  0.00  0.00    +0.000 A 
ATOM     19  C   UNL     1       6.119   4.748  15.333  0.00  0.00    +0.000 A 
ATOM     20 CL   UNL     1       6.486   3.929  13.862  0.00  0.00    +0.000 Cl
ATOM     21  C   UNL     1       5.136   4.242  16.175  0.00  0.00    +0.000 A 
ATOM     22  C   UNL     1       4.805   4.869  17.384  0.00  0.00    +0.000 A 
ATOM     23  C   UNL     1       5.536   6.032  17.719  0.00  0.00    +0.000 A 
BRANCH  22  24
ATOM     24  N   UNL     1       3.812   4.334  18.185  0.00  0.00    +0.000 N 
ATOM     25  C   UNL     1       4.046   3.304  19.199  0.00  0.00    +0.000 C 
ATOM     26  C   UNL     1       2.991   2.203  19.025  0.00  0.00    +0.000 C 
ATOM     27  C   UNL     1       1.538   2.743  19.099  0.00  0.00    +0.000 C 
ATOM     28  C   UNL     1       1.425   3.852  18.026  0.00  0.00    +0.000 C 
ATOM     29  C   UNL     1       2.473   4.943  18.240  0.00  0.00    +0.000 C 
BRANCH  27  30
ATOM     30  N   UNL     1       1.141   3.198  20.463  0.00  0.00    +0.000 NA
ATOM     31  C   UNL     1       2.028   2.663  21.507  0.00  0.00    +0.000 C 
ATOM     32  C   UNL     1       1.141   4.663  20.579  0.00  0.00    +0.000 C 
ENDBRANCH  27  30
ENDBRANCH  22  24
ENDBRANCH   3  17
TORSDOF 4
ENDMDL
MODEL 4
REMARK VINA RESULT:      -8.4      8.076     10.625
REMARK  Name = 
REMARK  7 active torsions:
REMARK  status: ('A' for Active; 'I' for Inactive)
REMARK    1  A    between atoms: C_1  and  C_2
REMARK    2  A    between atoms: C_9  and  C_10
REMARK    3  A    between atoms: N_12  and  C_13
REMARK    4  A    between atoms: C_18  and  N_19
REMARK    5  A    between atoms: C_22  and  N_23
REMARK    6  A    between atoms: N_23  and  C_24
REMARK    7  A    between atoms: N_23  and  C_25
REMARK                            x       y       z     vdW  Elec       q    Type
REMARK                         _______ _______ _______ _____ _____    ______ ____
ROOT
ATOM      1  C   UNL     1       8.265   8.124  18.289  0.00  0.00    +0.000 C 
ATOM      2  O   UNL     1       8.590   7.230  19.063  0.00  0.00    +0.000 OA
ATOM      3  N   UNL     1       7.475   7.953  17.159  0.00  0.00    +0.000 N 
ATOM      4  H   UNL     1       7.404   8.739  16.527  0.00  0.00    +0.000 HD
ENDROOT
BRANCH   1  13
ATOM      5  C   UNL     1       9.322  11.786  22.297  0.00  0.00    +0.000 C 
ATOM      6  C   UNL     1       9.737  12.070  20.882  0.00  0.00    +0.000 A 
ATOM      7  C   UNL     1      10.465  13.236  20.578  0.00  0.00    +0.000 A 
ATOM      8  C   UNL     1      10.846  13.542  19.272  0.00  0.00    +0.000 A 
ATOM      9  C   UNL     1      10.507  12.687  18.225  0.00  0.00    +0.000 A 
ATOM     10  F   UNL     1      10.885  12.996  16.977  0.00  0.00    +0.000 F 
ATOM     11  C   UNL     1       9.805  11.497  18.482  0.00  0.00    +0.000 A 
ATOM     12  C   UNL     1       9.360  10.408  17.671  0.00  0.00    +0.000 A 
ATOM     13  C   UNL     1       8.791   9.460  18.501  0.00  0.00    +0.000 A 
ATOM     14  N   UNL     1       8.771  10.017  19.765  0.00  0.00    +0.000 N 
ATOM     15  C   UNL     1       9.434  11.220  19.798  0.00  0.00    +0.000 A 
ATOM     16  H   UNL     1       8.376   9.544  20.568  0.00  0.00    +0.000 HD
ENDBRANCH   1  13
BRANCH   3  17
ATOM     17  C   UNL     1       6.882   6.733  16.730  0.00  0.00    +0.000 A 
ATOM     18  C   UNL     1       7.184   6.150  15.500  0.00  0.00    +0.000 A 
ATOM     19  C   UNL     1       6.556   4.976  15.112  0.00  0.00    +0.000 A 
ATOM     20 CL   UNL     1       6.940   4.262  13.592  0.00  0.00    +0.000 Cl
ATOM     21  C   UNL     1       5.622   4.367  15.941  0.00  0.00    +0.000 A 
ATOM     22  C   UNL     1       5.280   4.907  17.190  0.00  0.00    +0.000 A 
ATOM     23  C   UNL     1       5.949   6.091  17.575  0.00  0.00    +0.000 A 
BRANCH  22  24
ATOM     24  N   UNL     1       4.337   4.271  17.977  0.00  0.00    +0.000 N 
ATOM     25  C   UNL     1       4.346   4.293  19.441  0.00  0.00    +0.000 C 
ATOM     26  C   UNL     1       4.149   2.858  19.949  0.00  0.00    +0.000 C 
ATOM     27  C   UNL     1       2.854   2.198  19.405  0.00  0.00    +0.000 C 
ATOM     28  C   UNL     1       2.934   2.278  17.862  0.00  0.00    +0.000 C 
ATOM     29  C   UNL     1       3.106   3.719  17.387  0.00  0.00    +0.000 C 
BRANCH  27  30
ATOM     30  N   UNL     1       1.605   2.789  19.963  0.00  0.00    +0.000 NA
ATOM     31  C   UNL     1       0.399   2.261  19.305  0.00  0.00    +0.000 C 
ATOM     32  C   UNL     1       1.473   2.544  21.406  0.00  0.00    +0.000 C 
ENDBRANCH  27  30
ENDBRANCH  22  24
ENDBRANCH   3  17
TORSDOF 4
ENDMDL
MODEL 5
REMARK VINA RESULT:      -8.3      3.151      4.800
REMARK  Name = 
REMARK  7 active torsions:
REMARK  status: ('A' for Active; 'I' for Inactive)
REMARK    1  A    between atoms: C_1  and  C_2
REMARK    2  A    between atoms: C_9  and  C_10
REMARK    3  A    between atoms: N_12  and  C_13
REMARK    4  A    between atoms: C_18  and  N_19
REMARK    5  A    between atoms: C_22  and  N_23
REMARK    6  A    between atoms: N_23  and  C_24
REMARK    7  A    between atoms: N_23  and  C_25
REMARK                            x       y       z     vdW  Elec       q    Type
REMARK                         _______ _______ _______ _____ _____    ______ ____
ROOT
ATOM      1  C   UNL     1       1.786   8.179  19.639  0.00  0.00    +0.000 C 
ATOM      2  O   UNL     1       1.581   8.451  20.818  0.00  0.00    +0.000 OA
ATOM      3  N   UNL     1       1.444   8.986  18.562  0.00  0.00    +0.000 N 
ATOM      4  H   UNL     1       1.534   8.581  17.640  0.00  0.00    +0.000 HD
ENDROOT
BRANCH   1  13
ATOM      5  C   UNL     1       2.311   3.031  21.593  0.00  0.00    +0.000 C 
ATOM      6  C   UNL     1       2.802   3.373  20.216  0.00  0.00    +0.000 A 
ATOM      7  C   UNL     1       3.331   2.369  19.382  0.00  0.00    +0.000 A 
ATOM      8  C   UNL     1       3.818   2.656  18.108  0.00  0.00    +0.000 A 
ATOM      9  C   UNL     1       3.791   3.963  17.626  0.00  0.00    +0.000 A 
ATOM     10  F   UNL     1       4.260   4.218  16.396  0.00  0.00    +0.000 F 
ATOM     11  C   UNL     1       3.247   4.995  18.409  0.00  0.00    +0.000 A 
ATOM     12  C   UNL     1       3.025   6.391  18.202  0.00  0.00    +0.000 A 
ATOM     13  C   UNL     1       2.363   6.889  19.309  0.00  0.00    +0.000 A 
ATOM     14  N   UNL     1       2.304   5.852  20.220  0.00  0.00    +0.000 N 
ATOM     15  C   UNL     1       2.771   4.677  19.682  0.00  0.00    +0.000 A 
ATOM     16  H   UNL     1       1.893   5.952  21.140  0.00  0.00    +0.000 HD
ENDBRANCH   1  13
BRANCH   3  17
ATOM     17  C   UNL     1       0.837  10.271  18.639  0.00  0.00    +0.000 A 
ATOM     18  C   UNL     1      -0.541  10.451  18.518  0.00  0.00    +0.000 A 
ATOM     19  C   UNL     1      -1.084  11.726  18.569  0.00  0.00    +0.000 A 
ATOM     20 CL   UNL     1      -2.787  11.939  18.423  0.00  0.00    +0.000 Cl
ATOM     21  C   UNL     1      -0.265  12.836  18.741  0.00  0.00    +0.000 A 
ATOM     22  C   UNL     1       1.126  12.715  18.871  0.00  0.00    +0.000 A 
ATOM     23  C   UNL     1       1.655  11.404  18.839  0.00  0.00    +0.000 A 
BRANCH  22  24
ATOM     24  N   UNL     1       1.901  13.849  19.030  0.00  0.00    +0.000 N 
ATOM     25  C   UNL     1       1.580  14.935  19.959  0.00  0.00    +0.000 C 
ATOM     26  C   UNL     1       1.714  16.268  19.211  0.00  0.00    +0.000 C 
ATOM     27  C   UNL     1       3.118  16.467  18.580  0.00  0.00    +0.000 C 
ATOM     28  C   UNL     1       3.367  15.244  17.666  0.00  0.00    +0.000 C 
ATOM     29  C   UNL     1       3.248  13.934  18.444  0.00  0.00    +0.000 C 
BRANCH  27  30
ATOM     30  N   UNL     1       4.198  16.682  19.585  0.00  0.00    +0.000 NA
ATOM     31  C   UNL     1       5.490  16.991  18.954  0.00  0.00    +0.000 C 
ATOM     32  C   UNL     1       3.879  17.775  20.515  0.00  0.00    +0.000 C 
ENDBRANCH  27  30
ENDBRANCH  22  24
ENDBRANCH   3  17
TORSDOF 4
ENDMDL
MODEL 6
REMARK VINA RESULT:      -8.3      1.574      1.971
REMARK  Name = 
REMARK  7 active torsions:
REMARK  status: ('A' for Active; 'I' for Inactive)
REMARK    1  A    between atoms: C_1  and  C_2
REMARK    2  A    between atoms: C_9  and  C_10
REMARK    3  A    between atoms: N_12  and  C_13
REMARK    4  A    between atoms: C_18  and  N_19
REMARK    5  A    between atoms: C_22  and  N_23
REMARK    6  A    between atoms: N_23  and  C_24
REMARK    7  A    between atoms: N_23  and  C_25
REMARK                            x       y       z     vdW  Elec       q    Type
REMARK                         _______ _______ _______ _____ _____    ______ ____
ROOT
ATOM      1  C   UNL     1       1.692   8.468  19.775  0.00  0.00    +0.000 C 
ATOM      2  O   UNL     1       1.452   8.710  20.954  0.00  0.00    +0.000 OA
ATOM      3  N   UNL     1       1.360   9.292  18.707  0.00  0.00    +0.000 N 
ATOM      4  H   UNL     1       1.481   8.910  17.779  0.00  0.00    +0.000 HD
ENDROOT
BRANCH   1  13
ATOM      5  C   UNL     1       2.212   3.270  21.593  0.00  0.00    +0.000 C 
ATOM      6  C   UNL     1       2.757   3.661  20.249  0.00  0.00    +0.000 A 
ATOM      7  C   UNL     1       3.337   2.691  19.410  0.00  0.00    +0.000 A 
ATOM      8  C   UNL     1       3.873   3.024  18.167  0.00  0.00    +0.000 A 
ATOM      9  C   UNL     1       3.846   4.344  17.724  0.00  0.00    +0.000 A 
ATOM     10  F   UNL     1       4.363   4.644  16.524  0.00  0.00    +0.000 F 
ATOM     11  C   UNL     1       3.253   5.344  18.513  0.00  0.00    +0.000 A 
ATOM     12  C   UNL     1       3.019   6.742  18.339  0.00  0.00    +0.000 A 
ATOM     13  C   UNL     1       2.302   7.197  19.431  0.00  0.00    +0.000 A 
ATOM     14  N   UNL     1       2.220   6.131  20.307  0.00  0.00    +0.000 N 
ATOM     15  C   UNL     1       2.729   4.981  19.754  0.00  0.00    +0.000 A 
ATOM     16  H   UNL     1       1.769   6.197  21.211  0.00  0.00    +0.000 HD
ENDBRANCH   1  13
BRANCH   3  17
ATOM     17  C   UNL     1       0.726  10.563  18.797  0.00  0.00    +0.000 A 
ATOM     18  C   UNL     1       1.432  11.758  18.674  0.00  0.00    +0.000 A 
ATOM     19  C   UNL     1       0.775  12.973  18.801  0.00  0.00    +0.000 A 
ATOM     20 CL   UNL     1       1.657  14.445  18.643  0.00  0.00    +0.000 Cl
ATOM     21  C   UNL     1      -0.591  13.014  19.051  0.00  0.00    +0.000 A 
ATOM     22  C   UNL     1      -1.353  11.844  19.183  0.00  0.00    +0.000 A 
ATOM     23  C   UNL     1      -0.667  10.617  19.027  0.00  0.00    +0.000 A 
BRANCH  22  24
ATOM     24  N   UNL     1      -2.709  11.933  19.442  0.00  0.00    +0.000 N 
ATOM     25  C   UNL     1      -3.740  11.276  18.637  0.00  0.00    +0.000 C 
ATOM     26  C   UNL     1      -4.837  12.302  18.321  0.00  0.00    +0.000 C 
ATOM     27  C   UNL     1      -5.446  12.945  19.596  0.00  0.00    +0.000 C 
ATOM     28  C   UNL     1      -4.265  13.559  20.386  0.00  0.00    +0.000 C 
ATOM     29  C   UNL     1      -3.202  12.509  20.704  0.00  0.00    +0.000 C 
BRANCH  27  30
ATOM     30  N   UNL     1      -6.270  12.001  20.404  0.00  0.00    +0.000 NA
ATOM     31  C   UNL     1      -6.850  12.648  21.591  0.00  0.00    +0.000 C 
ATOM     32  C   UNL     1      -7.371  11.421  19.624  0.00  0.00    +0.000 C 
ENDBRANCH  27  30
ENDBRANCH  22  24
ENDBRANCH   3  17
TORSDOF 4
ENDMDL
MODEL 7
REMARK VINA RESULT:      -8.3      1.893      2.546
REMARK  Name = 
REMARK  7 active torsions:
REMARK  status: ('A' for Active; 'I' for Inactive)
REMARK    1  A    between atoms: C_1  and  C_2
REMARK    2  A    between atoms: C_9  and  C_10
REMARK    3  A    between atoms: N_12  and  C_13
REMARK    4  A    between atoms: C_18  and  N_19
REMARK    5  A    between atoms: C_22  and  N_23
REMARK    6  A    between atoms: N_23  and  C_24
REMARK    7  A    between atoms: N_23  and  C_25
REMARK                            x       y       z     vdW  Elec       q    Type
REMARK                         _______ _______ _______ _____ _____    ______ ____
ROOT
ATOM      1  C   UNL     1       1.834   8.039  19.482  0.00  0.00    +0.000 C 
ATOM      2  O   UNL     1       1.655   8.344  20.657  0.00  0.00    +0.000 OA
ATOM      3  N   UNL     1       1.581   8.865  18.394  0.00  0.00    +0.000 N 
ATOM      4  H   UNL     1       1.631   8.442  17.477  0.00  0.00    +0.000 HD
ENDROOT
BRANCH   1  13
ATOM      5  C   UNL     1       1.496   2.827  21.303  0.00  0.00    +0.000 C 
ATOM      6  C   UNL     1       2.168   3.131  19.995  0.00  0.00    +0.000 A 
ATOM      7  C   UNL     1       2.651   2.084  19.186  0.00  0.00    +0.000 A 
ATOM      8  C   UNL     1       3.301   2.332  17.978  0.00  0.00    +0.000 A 
ATOM      9  C   UNL     1       3.490   3.641  17.540  0.00  0.00    +0.000 A 
ATOM     10  F   UNL     1       4.113   3.859  16.373  0.00  0.00    +0.000 F 
ATOM     11  C   UNL     1       3.002   4.718  18.298  0.00  0.00    +0.000 A 
ATOM     12  C   UNL     1       2.981   6.135  18.117  0.00  0.00    +0.000 A 
ATOM     13  C   UNL     1       2.275   6.692  19.168  0.00  0.00    +0.000 A 
ATOM     14  N   UNL     1       1.990   5.653  20.033  0.00  0.00    +0.000 N 
ATOM     15  C   UNL     1       2.359   4.439  19.505  0.00  0.00    +0.000 A 
ATOM     16  H   UNL     1       1.501   5.786  20.909  0.00  0.00    +0.000 HD
ENDBRANCH   1  13
BRANCH   3  17
ATOM     17  C   UNL     1       1.110  10.206  18.455  0.00  0.00    +0.000 A 
ATOM     18  C   UNL     1       1.977  11.297  18.515  0.00  0.00    +0.000 A 
ATOM     19  C   UNL     1       1.471  12.585  18.605  0.00  0.00    +0.000 A 
ATOM     20 CL   UNL     1       2.549  13.927  18.674  0.00  0.00    +0.000 Cl
ATOM     21  C   UNL     1       0.099  12.804  18.637  0.00  0.00    +0.000 A 
ATOM     22  C   UNL     1      -0.820  11.746  18.578  0.00  0.00    +0.000 A 
ATOM     23  C   UNL     1      -0.282  10.443  18.463  0.00  0.00    +0.000 A 
BRANCH  22  24
ATOM     24  N   UNL     1      -2.177  12.012  18.623  0.00  0.00    +0.000 N 
ATOM     25  C   UNL     1      -2.805  12.890  19.611  0.00  0.00    +0.000 C 
ATOM     26  C   UNL     1      -4.030  12.171  20.190  0.00  0.00    +0.000 C 
ATOM     27  C   UNL     1      -5.046  11.736  19.100  0.00  0.00    +0.000 C 
ATOM     28  C   UNL     1      -4.262  10.862  18.092  0.00  0.00    +0.000 C 
ATOM     29  C   UNL     1      -3.063  11.613  17.517  0.00  0.00    +0.000 C 
BRANCH  27  30
ATOM     30  N   UNL     1      -5.759  12.879  18.461  0.00  0.00    +0.000 NA
ATOM     31  C   UNL     1      -6.803  12.430  17.527  0.00  0.00    +0.000 C 
ATOM     32  C   UNL     1      -6.390  13.761  19.451  0.00  0.00    +0.000 C 
ENDBRANCH  27  30
ENDBRANCH  22  24
ENDBRANCH   3  17
TORSDOF 4
ENDMDL
MODEL 8
REMARK VINA RESULT:      -8.3      7.423     10.301
REMARK  Name = 
REMARK  7 active torsions:
REMARK  status: ('A' for Active; 'I' for Inactive)
REMARK    1  A    between atoms: C_1  and  C_2
REMARK    2  A    between atoms: C_9  and  C_10
REMARK    3  A    between atoms: N_12  and  C_13
REMARK    4  A    between atoms: C_18  and  N_19
REMARK    5  A    between atoms: C_22  and  N_23
REMARK    6  A    between atoms: N_23  and  C_24
REMARK    7  A    between atoms: N_23  and  C_25
REMARK                            x       y       z     vdW  Elec       q    Type
REMARK                         _______ _______ _______ _____ _____    ______ ____
ROOT
ATOM      1  C   UNL     1       8.191   8.147  18.258  0.00  0.00    +0.000 C 
ATOM      2  O   UNL     1       8.526   7.226  18.995  0.00  0.00    +0.000 OA
ATOM      3  N   UNL     1       7.350   8.026  17.159  0.00  0.00    +0.000 N 
ATOM      4  H   UNL     1       7.272   8.831  16.551  0.00  0.00    +0.000 HD
ENDROOT
BRANCH   1  13
ATOM      5  C   UNL     1       7.299  13.497  17.168  0.00  0.00    +0.000 C 
ATOM      6  C   UNL     1       8.427  13.084  18.070  0.00  0.00    +0.000 A 
ATOM      7  C   UNL     1       9.220  14.060  18.704  0.00  0.00    +0.000 A 
ATOM      8  C   UNL     1      10.290  13.712  19.528  0.00  0.00    +0.000 A 
ATOM      9  C   UNL     1      10.601  12.371  19.742  0.00  0.00    +0.000 A 
ATOM     10  F   UNL     1      11.631  12.057  20.541  0.00  0.00    +0.000 F 
ATOM     11  C   UNL     1       9.823  11.361  19.154  0.00  0.00    +0.000 A 
ATOM     12  C   UNL     1       9.837   9.933  19.208  0.00  0.00    +0.000 A 
ATOM     13  C   UNL     1       8.757   9.465  18.483  0.00  0.00    +0.000 A 
ATOM     14  N   UNL     1       8.179  10.574  17.894  0.00  0.00    +0.000 N 
ATOM     15  C   UNL     1       8.761  11.740  18.331  0.00  0.00    +0.000 A 
ATOM     16  H   UNL     1       7.379  10.515  17.277  0.00  0.00    +0.000 HD
ENDBRANCH   1  13
BRANCH   3  17
ATOM     17  C   UNL     1       6.711   6.832  16.723  0.00  0.00    +0.000 A 
ATOM     18  C   UNL     1       7.028   6.216  15.514  0.00  0.00    +0.000 A 
ATOM     19  C   UNL     1       6.355   5.070  15.117  0.00  0.00    +0.000 A 
ATOM     20 CL   UNL     1       6.758   4.314  13.622  0.00  0.00    +0.000 Cl
ATOM     21  C   UNL     1       5.360   4.523  15.917  0.00  0.00    +0.000 A 
ATOM     22  C   UNL     1       5.000   5.098  17.145  0.00  0.00    +0.000 A 
ATOM     23  C   UNL     1       5.715   6.252  17.540  0.00  0.00    +0.000 A 
BRANCH  22  24
ATOM     24  N   UNL     1       3.996   4.523  17.904  0.00  0.00    +0.000 N 
ATOM     25  C   UNL     1       2.883   3.757  17.340  0.00  0.00    +0.000 C 
ATOM     26  C   UNL     1       1.578   4.263  17.970  0.00  0.00    +0.000 C 
ATOM     27  C   UNL     1       1.586   4.183  19.520  0.00  0.00    +0.000 C 
ATOM     28  C   UNL     1       2.825   4.979  19.995  0.00  0.00    +0.000 C 
ATOM     29  C   UNL     1       4.109   4.438  19.368  0.00  0.00    +0.000 C 
BRANCH  27  30
ATOM     30  N   UNL     1       1.544   2.788  20.045  0.00  0.00    +0.000 NA
ATOM     31  C   UNL     1       1.263   2.746  21.488  0.00  0.00    +0.000 C 
ATOM     32  C   UNL     1       0.528   1.972  19.365  0.00  0.00    +0.000 C 
ENDBRANCH  27  30
ENDBRANCH  22  24
ENDBRANCH   3  17
TORSDOF 4
ENDMDL
MODEL 9
REMARK VINA RESULT:      -8.3      4.475      6.636
REMARK  Name = 
REMARK  7 active torsions:
REMARK  status: ('A' for Active; 'I' for Inactive)
REMARK    1  A    between atoms: C_1  and  C_2
REMARK    2  A    between atoms: C_9  and  C_10
REMARK    3  A    between atoms: N_12  and  C_13
REMARK    4  A    between atoms: C_18  and  N_19
REMARK    5  A    between atoms: C_22  and  N_23
REMARK    6  A    between atoms: N_23  and  C_24
REMARK    7  A    between atoms: N_23  and  C_25
REMARK                            x       y       z     vdW  Elec       q    Type
REMARK                         _______ _______ _______ _____ _____    ______ ____
ROOT
ATOM      1  C   UNL     1       5.421   4.771  17.337  0.00  0.00    +0.000 C 
ATOM      2  O   UNL     1       5.975   4.218  18.282  0.00  0.00    +0.000 OA
ATOM      3  N   UNL     1       4.187   5.406  17.394  0.00  0.00    +0.000 N 
ATOM      4  H   UNL     1       3.778   5.691  16.515  0.00  0.00    +0.000 HD
ENDROOT
BRANCH   1  13
ATOM      5  C   UNL     1       4.551   2.917  12.199  0.00  0.00    +0.000 C 
ATOM      6  C   UNL     1       5.765   3.744  12.511  0.00  0.00    +0.000 A 
ATOM      7  C   UNL     1       6.652   4.117  11.483  0.00  0.00    +0.000 A 
ATOM      8  C   UNL     1       7.801   4.863  11.741  0.00  0.00    +0.000 A 
ATOM      9  C   UNL     1       8.099   5.260  13.042  0.00  0.00    +0.000 A 
ATOM     10  F   UNL     1       9.207   5.980  13.270  0.00  0.00    +0.000 F 
ATOM     11  C   UNL     1       7.231   4.936  14.098  0.00  0.00    +0.000 A 
ATOM     12  C   UNL     1       7.214   5.224  15.498  0.00  0.00    +0.000 A 
ATOM     13  C   UNL     1       6.044   4.710  16.027  0.00  0.00    +0.000 A 
ATOM     14  N   UNL     1       5.432   4.014  15.003  0.00  0.00    +0.000 N 
ATOM     15  C   UNL     1       6.091   4.185  13.809  0.00  0.00    +0.000 A 
ATOM     16  H   UNL     1       4.564   3.508  15.124  0.00  0.00    +0.000 HD
ENDBRANCH   1  13
BRANCH   3  17
ATOM     17  C   UNL     1       3.378   5.556  18.555  0.00  0.00    +0.000 A 
ATOM     18  C   UNL     1       3.078   4.485  19.396  0.00  0.00    +0.000 A 
ATOM     19  C   UNL     1       2.258   4.674  20.499  0.00  0.00    +0.000 A 
ATOM     20 CL   UNL     1       1.898   3.346  21.536  0.00  0.00    +0.000 Cl
ATOM     21  C   UNL     1       1.728   5.928  20.779  0.00  0.00    +0.000 A 
ATOM     22  C   UNL     1       1.997   7.040  19.969  0.00  0.00    +0.000 A 
ATOM     23  C   UNL     1       2.853   6.830  18.864  0.00  0.00    +0.000 A 
BRANCH  22  24
ATOM     24  N   UNL     1       1.438   8.267  20.281  0.00  0.00    +0.000 N 
ATOM     25  C   UNL     1       1.095   8.686  21.641  0.00  0.00    +0.000 C 
ATOM     26  C   UNL     1      -0.328   9.263  21.626  0.00  0.00    +0.000 C 
ATOM     27  C   UNL     1      -0.493  10.433  20.620  0.00  0.00    +0.000 C 
ATOM     28  C   UNL     1      -0.055   9.891  19.238  0.00  0.00    +0.000 C 
ATOM     29  C   UNL     1       1.371   9.344  19.281  0.00  0.00    +0.000 C 
BRANCH  27  30
ATOM     30  N   UNL     1       0.231  11.673  21.024  0.00  0.00    +0.000 NA
ATOM     31  C   UNL     1       0.357  12.629  19.913  0.00  0.00    +0.000 C 
ATOM     32  C   UNL     1      -0.433  12.363  22.138  0.00  0.00    +0.000 C 
ENDBRANCH  27  30
ENDBRANCH  22  24
ENDBRANCH   3  17
TORSDOF 4
ENDMDL
