MODEL 1
REMARK VINA RESULT:      -6.7      0.000      0.000
REMARK  Name = 
REMARK  8 active torsions:
REMARK  status: ('A' for Active; 'I' for Inactive)
REMARK    1  A    between atoms: C_1  and  C_2
REMARK    2  A    between atoms: C_2  and  N_3
REMARK    3  A    between atoms: C_9  and  C_10
REMARK    4  A    between atoms: C_10  and  C_11
REMARK    5  A    between atoms: C_10  and  C_12
REMARK    6  A    between atoms: C_10  and  O_13
REMARK    7  A    between atoms: C_14  and  O_15
REMARK    8  A    between atoms: C_16  and  O_17
REMARK                            x       y       z     vdW  Elec       q    Type
REMARK                         _______ _______ _______ _____ _____    ______ ____
ROOT
ATOM      1  N   UNL     1       6.183   5.513  15.129  0.00  0.00    +0.000 N 
ATOM      2  C   UNL     1       5.602   5.212  16.311  0.00  0.00    +0.000 C 
ATOM      3  N   UNL     1       5.601   4.063  16.894  0.00  0.00    +0.000 NA
ATOM      4  C   UNL     1       4.949   4.306  18.196  0.00  0.00    +0.000 C 
ATOM      5  C   UNL     1       4.308   5.688  18.058  0.00  0.00    +0.000 C 
ATOM      6  C   UNL     1       2.788   5.752  17.895  0.00  0.00    +0.000 C 
ATOM      7  C   UNL     1       2.018   4.656  18.659  0.00  0.00    +0.000 C 
ATOM      8  C   UNL     1       2.577   3.297  18.170  0.00  0.00    +0.000 C 
ATOM      9  C   UNL     1       4.058   3.098  18.521  0.00  0.00    +0.000 C 
ATOM     10  O   UNL     1       4.939   6.241  16.890  0.00  0.00    +0.000 OA
ATOM     11  H   UNL     1       5.863   6.369  14.694  0.00  0.00    +0.000 HD
ENDROOT
BRANCH   7  12
ATOM     12  C   UNL     1       1.985   4.835  20.219  0.00  0.00    +0.000 C 
ATOM     13  C   UNL     1       1.181   6.071  20.643  0.00  0.00    +0.000 C 
ATOM     14  C   UNL     1       1.357   3.624  20.934  0.00  0.00    +0.000 C 
BRANCH  12  15
ATOM     15  O   UNL     1       3.295   5.057  20.740  0.00  0.00    +0.000 OA
ATOM     16  H   UNL     1       3.576   5.967  20.501  0.00  0.00    +0.000 HD
ENDBRANCH  12  15
ENDBRANCH   7  12
BRANCH   1  18
ATOM     17  C   UNL     1       5.603   3.923  13.364  0.00  0.00    +0.000 C 
ATOM     18  C   UNL     1       6.693   4.463  14.267  0.00  0.00    +0.000 C 
ENDBRANCH   1  18
BRANCH   8  19
ATOM     19  O   UNL     1       2.368   3.180  16.755  0.00  0.00    +0.000 OA
ATOM     20  H   UNL     1       1.974   2.303  16.570  0.00  0.00    +0.000 HD
ENDBRANCH   8  19
BRANCH   9  21
ATOM     21  O   UNL     1       4.203   2.753  19.909  0.00  0.00    +0.000 OA
ATOM     22  H   UNL     1       3.480   2.131  20.111  0.00  0.00    +0.000 HD
ENDBRANCH   9  21
TORSDOF 5
ENDMDL
MODEL 2
REMARK VINA RESULT:      -6.6      2.153      3.057
REMARK  Name = 
REMARK  8 active torsions:
REMARK  status: ('A' for Active; 'I' for Inactive)
REMARK    1  A    between atoms: C_1  and  C_2
REMARK    2  A    between atoms: C_2  and  N_3
REMARK    3  A    between atoms: C_9  and  C_10
REMARK    4  A    between atoms: C_10  and  C_11
REMARK    5  A    between atoms: C_10  and  C_12
REMARK    6  A    between atoms: C_10  and  O_13
REMARK    7  A    between atoms: C_14  and  O_15
REMARK    8  A    between atoms: C_16  and  O_17
REMARK                            x       y       z     vdW  Elec       q    Type
REMARK                         _______ _______ _______ _____ _____    ______ ____
ROOT
ATOM      1  N   UNL     1       7.294   6.299  18.406  0.00  0.00    +0.000 N 
ATOM      2  C   UNL     1       6.248   5.443  18.408  0.00  0.00    +0.000 C 
ATOM      3  N   UNL     1       5.508   5.136  17.400  0.00  0.00    +0.000 NA
ATOM      4  C   UNL     1       4.609   4.080  17.905  0.00  0.00    +0.000 C 
ATOM      5  C   UNL     1       4.770   4.127  19.426  0.00  0.00    +0.000 C 
ATOM      6  C   UNL     1       3.629   4.739  20.241  0.00  0.00    +0.000 C 
ATOM      7  C   UNL     1       2.223   4.491  19.658  0.00  0.00    +0.000 C 
ATOM      8  C   UNL     1       2.239   5.046  18.212  0.00  0.00    +0.000 C 
ATOM      9  C   UNL     1       3.217   4.300  17.295  0.00  0.00    +0.000 C 
ATOM     10  O   UNL     1       5.965   4.904  19.617  0.00  0.00    +0.000 OA
ATOM     11  H   UNL     1       7.586   6.629  19.317  0.00  0.00    +0.000 HD
ENDROOT
BRANCH   7  12
ATOM     12  C   UNL     1       1.701   3.017  19.794  0.00  0.00    +0.000 C 
ATOM     13  C   UNL     1       1.348   2.659  21.245  0.00  0.00    +0.000 C 
ATOM     14  C   UNL     1       0.437   2.762  18.950  0.00  0.00    +0.000 C 
BRANCH  12  15
ATOM     15  O   UNL     1       2.707   2.076  19.423  0.00  0.00    +0.000 OA
ATOM     16  H   UNL     1       2.610   1.276  19.984  0.00  0.00    +0.000 HD
ENDBRANCH  12  15
ENDBRANCH   7  12
BRANCH   1  18
ATOM     17  C   UNL     1       7.912   8.558  17.700  0.00  0.00    +0.000 C 
ATOM     18  C   UNL     1       7.548   7.154  17.261  0.00  0.00    +0.000 C 
ENDBRANCH   1  18
BRANCH   8  19
ATOM     19  O   UNL     1       2.540   6.449  18.247  0.00  0.00    +0.000 OA
ATOM     20  H   UNL     1       3.476   6.573  17.983  0.00  0.00    +0.000 HD
ENDBRANCH   8  19
BRANCH   9  21
ATOM     21  O   UNL     1       2.663   3.036  16.892  0.00  0.00    +0.000 OA
ATOM     22  H   UNL     1       2.410   2.577  17.714  0.00  0.00    +0.000 HD
ENDBRANCH   9  21
TORSDOF 5
ENDMDL
MODEL 3
REMARK VINA RESULT:      -6.5      3.061      4.536
REMARK  Name = 
REMARK  8 active torsions:
REMARK  status: ('A' for Active; 'I' for Inactive)
REMARK    1  A    between atoms: C_1  and  C_2
REMARK    2  A    between atoms: C_2  and  N_3
REMARK    3  A    between atoms: C_9  and  C_10
REMARK    4  A    between atoms: C_10  and  C_11
REMARK    5  A    between atoms: C_10  and  C_12
REMARK    6  A    between atoms: C_10  and  O_13
REMARK    7  A    between atoms: C_14  and  O_15
REMARK    8  A    between atoms: C_16  and  O_17
REMARK                            x       y       z     vdW  Elec       q    Type
REMARK                         _______ _______ _______ _____ _____    ______ ____
ROOT
ATOM      1  N   UNL     1       8.568   8.294  18.692  0.00  0.00    +0.000 N 
ATOM      2  C   UNL     1       7.794   7.298  18.204  0.00  0.00    +0.000 C 
ATOM      3  N   UNL     1       7.179   7.290  17.073  0.00  0.00    +0.000 NA
ATOM      4  C   UNL     1       6.594   5.939  16.977  0.00  0.00    +0.000 C 
ATOM      5  C   UNL     1       6.716   5.360  18.387  0.00  0.00    +0.000 C 
ATOM      6  C   UNL     1       5.442   5.266  19.228  0.00  0.00    +0.000 C 
ATOM      7  C   UNL     1       4.164   4.966  18.418  0.00  0.00    +0.000 C 
ATOM      8  C   UNL     1       4.047   6.078  17.347  0.00  0.00    +0.000 C 
ATOM      9  C   UNL     1       5.203   6.061  16.337  0.00  0.00    +0.000 C 
ATOM     10  O   UNL     1       7.653   6.238  19.035  0.00  0.00    +0.000 OA
ATOM     11  H   UNL     1       8.747   8.256  19.687  0.00  0.00    +0.000 HD
ENDROOT
BRANCH   7  12
ATOM     12  C   UNL     1       4.060   3.500  17.864  0.00  0.00    +0.000 C 
ATOM     13  C   UNL     1       3.990   2.460  18.990  0.00  0.00    +0.000 C 
ATOM     14  C   UNL     1       2.812   3.294  16.984  0.00  0.00    +0.000 C 
BRANCH  12  15
ATOM     15  O   UNL     1       5.222   3.148  17.115  0.00  0.00    +0.000 OA
ATOM     16  H   UNL     1       4.980   2.444  16.476  0.00  0.00    +0.000 HD
ENDBRANCH  12  15
ENDBRANCH   7  12
BRANCH   1  18
ATOM     17  C   UNL     1       9.402  10.587  18.856  0.00  0.00    +0.000 C 
ATOM     18  C   UNL     1       8.596   9.592  18.045  0.00  0.00    +0.000 C 
ENDBRANCH   1  18
BRANCH   8  19
ATOM     19  O   UNL     1       3.956   7.354  17.996  0.00  0.00    +0.000 OA
ATOM     20  H   UNL     1       3.079   7.743  17.798  0.00  0.00    +0.000 HD
ENDBRANCH   8  19
BRANCH   9  21
ATOM     21  O   UNL     1       5.019   5.004  15.381  0.00  0.00    +0.000 OA
ATOM     22  H   UNL     1       5.869   4.529  15.333  0.00  0.00    +0.000 HD
ENDBRANCH   9  21
TORSDOF 5
ENDMDL
MODEL 4
REMARK VINA RESULT:      -6.4      2.408      5.495
REMARK  Name = 
REMARK  8 active torsions:
REMARK  status: ('A' for Active; 'I' for Inactive)
REMARK    1  A    between atoms: C_1  and  C_2
REMARK    2  A    between atoms: C_2  and  N_3
REMARK    3  A    between atoms: C_9  and  C_10
REMARK    4  A    between atoms: C_10  and  C_11
REMARK    5  A    between atoms: C_10  and  C_12
REMARK    6  A    between atoms: C_10  and  O_13
REMARK    7  A    between atoms: C_14  and  O_15
REMARK    8  A    between atoms: C_16  and  O_17
REMARK                            x       y       z     vdW  Elec       q    Type
REMARK                         _______ _______ _______ _____ _____    ______ ____
ROOT
ATOM      1  N   UNL     1       1.551   2.363  19.489  0.00  0.00    +0.000 N 
ATOM      2  C   UNL     1       2.761   2.889  19.192  0.00  0.00    +0.000 C 
ATOM      3  N   UNL     1       3.439   3.709  19.917  0.00  0.00    +0.000 NA
ATOM      4  C   UNL     1       4.721   3.865  19.203  0.00  0.00    +0.000 C 
ATOM      5  C   UNL     1       4.472   3.262  17.819  0.00  0.00    +0.000 C 
ATOM      6  C   UNL     1       4.318   4.227  16.642  0.00  0.00    +0.000 C 
ATOM      7  C   UNL     1       5.180   5.502  16.745  0.00  0.00    +0.000 C 
ATOM      8  C   UNL     1       4.803   6.185  18.083  0.00  0.00    +0.000 C 
ATOM      9  C   UNL     1       5.156   5.334  19.310  0.00  0.00    +0.000 C 
ATOM     10  O   UNL     1       3.255   2.514  17.988  0.00  0.00    +0.000 OA
ATOM     11  H   UNL     1       1.048   1.964  18.708  0.00  0.00    +0.000 HD
ENDROOT
BRANCH   7  12
ATOM     12  C   UNL     1       6.719   5.280  16.526  0.00  0.00    +0.000 C 
ATOM     13  C   UNL     1       7.054   4.955  15.064  0.00  0.00    +0.000 C 
ATOM     14  C   UNL     1       7.550   6.518  16.913  0.00  0.00    +0.000 C 
BRANCH  12  15
ATOM     15  O   UNL     1       7.188   4.153  17.265  0.00  0.00    +0.000 OA
ATOM     16  H   UNL     1       6.471   3.852  17.865  0.00  0.00    +0.000 HD
ENDBRANCH  12  15
ENDBRANCH   7  12
BRANCH   1  18
ATOM     17  C   UNL     1       1.400   2.472  21.928  0.00  0.00    +0.000 C 
ATOM     18  C   UNL     1       0.778   2.874  20.605  0.00  0.00    +0.000 C 
ENDBRANCH   1  18
BRANCH   8  19
ATOM     19  O   UNL     1       3.406   6.510  18.072  0.00  0.00    +0.000 OA
ATOM     20  H   UNL     1       2.947   5.898  17.460  0.00  0.00    +0.000 HD
ENDBRANCH   8  19
BRANCH   9  21
ATOM     21  O   UNL     1       6.567   5.399  19.577  0.00  0.00    +0.000 OA
ATOM     22  H   UNL     1       6.889   4.479  19.568  0.00  0.00    +0.000 HD
ENDBRANCH   9  21
TORSDOF 5
ENDMDL
MODEL 5
REMARK VINA RESULT:      -6.2      2.087      3.155
REMARK  Name = 
REMARK  8 active torsions:
REMARK  status: ('A' for Active; 'I' for Inactive)
REMARK    1  A    between atoms: C_1  and  C_2
REMARK    2  A    between atoms: C_2  and  N_3
REMARK    3  A    between atoms: C_9  and  C_10
REMARK    4  A    between atoms: C_10  and  C_11
REMARK    5  A    between atoms: C_10  and  C_12
REMARK    6  A    between atoms: C_10  and  O_13
REMARK    7  A    between atoms: C_14  and  O_15
REMARK    8  A    between atoms: C_16  and  O_17
REMARK                            x       y       z     vdW  Elec       q    Type
REMARK                         _______ _______ _______ _____ _____    ______ ____
ROOT
ATOM      1  N   UNL     1       7.084   5.477  17.663  0.00  0.00    +0.000 N 
ATOM      2  C   UNL     1       5.863   4.939  17.884  0.00  0.00    +0.000 C 
ATOM      3  N   UNL     1       4.767   5.254  17.287  0.00  0.00    +0.000 NA
ATOM      4  C   UNL     1       3.772   4.293  17.802  0.00  0.00    +0.000 C 
ATOM      5  C   UNL     1       4.446   3.648  19.014  0.00  0.00    +0.000 C 
ATOM      6  C   UNL     1       3.962   4.069  20.403  0.00  0.00    +0.000 C 
ATOM      7  C   UNL     1       2.456   4.391  20.483  0.00  0.00    +0.000 C 
ATOM      8  C   UNL     1       2.182   5.497  19.435  0.00  0.00    +0.000 C 
ATOM      9  C   UNL     1       2.441   5.035  17.995  0.00  0.00    +0.000 C 
ATOM     10  O   UNL     1       5.832   4.002  18.862  0.00  0.00    +0.000 OA
ATOM     11  H   UNL     1       7.767   5.316  18.391  0.00  0.00    +0.000 HD
ENDROOT
BRANCH   7  12
ATOM     12  C   UNL     1       1.506   3.144  20.391  0.00  0.00    +0.000 C 
ATOM     13  C   UNL     1       2.038   2.083  19.416  0.00  0.00    +0.000 C 
ATOM     14  C   UNL     1       1.318   2.448  21.752  0.00  0.00    +0.000 C 
BRANCH  12  15
ATOM     15  O   UNL     1       0.228   3.506  19.871  0.00  0.00    +0.000 OA
ATOM     16  H   UNL     1      -0.320   3.856  20.606  0.00  0.00    +0.000 HD
ENDBRANCH  12  15
ENDBRANCH   7  12
BRANCH   1  18
ATOM     17  C   UNL     1       7.723   7.838  17.675  0.00  0.00    +0.000 C 
ATOM     18  C   UNL     1       7.228   6.668  16.847  0.00  0.00    +0.000 C 
ENDBRANCH   1  18
BRANCH   8  19
ATOM     19  O   UNL     1       2.972   6.654  19.749  0.00  0.00    +0.000 OA
ATOM     20  H   UNL     1       2.790   7.347  19.081  0.00  0.00    +0.000 HD
ENDBRANCH   8  19
BRANCH   9  21
ATOM     21  O   UNL     1       1.359   4.211  17.530  0.00  0.00    +0.000 OA
ATOM     22  H   UNL     1       1.421   4.204  16.557  0.00  0.00    +0.000 HD
ENDBRANCH   9  21
TORSDOF 5
ENDMDL
MODEL 6
REMARK VINA RESULT:      -6.1      1.493      2.132
REMARK  Name = 
REMARK  8 active torsions:
REMARK  status: ('A' for Active; 'I' for Inactive)
REMARK    1  A    between atoms: C_1  and  C_2
REMARK    2  A    between atoms: C_2  and  N_3
REMARK    3  A    between atoms: C_9  and  C_10
REMARK    4  A    between atoms: C_10  and  C_11
REMARK    5  A    between atoms: C_10  and  C_12
REMARK    6  A    between atoms: C_10  and  O_13
REMARK    7  A    between atoms: C_14  and  O_15
REMARK    8  A    between atoms: C_16  and  O_17
REMARK                            x       y       z     vdW  Elec       q    Type
REMARK                         _______ _______ _______ _____ _____    ______ ____
ROOT
ATOM      1  N   UNL     1       7.152   4.970  16.359  0.00  0.00    +0.000 N 
ATOM      2  C   UNL     1       6.074   4.400  16.944  0.00  0.00    +0.000 C 
ATOM      3  N   UNL     1       4.970   4.077  16.365  0.00  0.00    +0.000 NA
ATOM      4  C   UNL     1       4.190   3.384  17.410  0.00  0.00    +0.000 C 
ATOM      5  C   UNL     1       4.923   3.698  18.715  0.00  0.00    +0.000 C 
ATOM      6  C   UNL     1       4.280   4.710  19.664  0.00  0.00    +0.000 C 
ATOM      7  C   UNL     1       2.738   4.684  19.675  0.00  0.00    +0.000 C 
ATOM      8  C   UNL     1       2.281   4.918  18.214  0.00  0.00    +0.000 C 
ATOM      9  C   UNL     1       2.717   3.795  17.263  0.00  0.00    +0.000 C 
ATOM     10  O   UNL     1       6.200   4.196  18.277  0.00  0.00    +0.000 OA
ATOM     11  H   UNL     1       7.812   5.399  16.994  0.00  0.00    +0.000 HD
ENDROOT
BRANCH   7  12
ATOM     12  C   UNL     1       2.101   3.432  20.375  0.00  0.00    +0.000 C 
ATOM     13  C   UNL     1       2.290   3.461  21.898  0.00  0.00    +0.000 C 
ATOM     14  C   UNL     1       0.588   3.320  20.112  0.00  0.00    +0.000 C 
BRANCH  12  15
ATOM     15  O   UNL     1       2.739   2.226  19.954  0.00  0.00    +0.000 OA
ATOM     16  H   UNL     1       2.070   1.508  19.941  0.00  0.00    +0.000 HD
ENDBRANCH  12  15
ENDBRANCH   7  12
BRANCH   1  18
ATOM     17  C   UNL     1       6.994   4.369  13.994  0.00  0.00    +0.000 C 
ATOM     18  C   UNL     1       7.069   5.492  15.008  0.00  0.00    +0.000 C 
ENDBRANCH   1  18
BRANCH   8  19
ATOM     19  O   UNL     1       2.770   6.189  17.762  0.00  0.00    +0.000 OA
ATOM     20  H   UNL     1       2.835   6.791  18.532  0.00  0.00    +0.000 HD
ENDBRANCH   8  19
BRANCH   9  21
ATOM     21  O   UNL     1       1.877   2.641  17.430  0.00  0.00    +0.000 OA
ATOM     22  H   UNL     1       2.428   1.964  17.863  0.00  0.00    +0.000 HD
ENDBRANCH   9  21
TORSDOF 5
ENDMDL
MODEL 7
REMARK VINA RESULT:      -6.1      2.124      2.950
REMARK  Name = 
REMARK  8 active torsions:
REMARK  status: ('A' for Active; 'I' for Inactive)
REMARK    1  A    between atoms: C_1  and  C_2
REMARK    2  A    between atoms: C_2  and  N_3
REMARK    3  A    between atoms: C_9  and  C_10
REMARK    4  A    between atoms: C_10  and  C_11
REMARK    5  A    between atoms: C_10  and  C_12
REMARK    6  A    between atoms: C_10  and  O_13
REMARK    7  A    between atoms: C_14  and  O_15
REMARK    8  A    between atoms: C_16  and  O_17
REMARK                            x       y       z     vdW  Elec       q    Type
REMARK                         _______ _______ _______ _____ _____    ______ ____
ROOT
ATOM      1  N   UNL     1       6.421   6.443  16.601  0.00  0.00    +0.000 N 
ATOM      2  C   UNL     1       5.372   6.021  17.343  0.00  0.00    +0.000 C 
ATOM      3  N   UNL     1       5.260   6.097  18.623  0.00  0.00    +0.000 NA
ATOM      4  C   UNL     1       3.892   5.620  18.906  0.00  0.00    +0.000 C 
ATOM      5  C   UNL     1       3.431   4.965  17.603  0.00  0.00    +0.000 C 
ATOM      6  C   UNL     1       3.375   3.437  17.559  0.00  0.00    +0.000 C 
ATOM      7  C   UNL     1       2.982   2.774  18.895  0.00  0.00    +0.000 C 
ATOM      8  C   UNL     1       4.002   3.266  19.951  0.00  0.00    +0.000 C 
ATOM      9  C   UNL     1       3.931   4.780  20.192  0.00  0.00    +0.000 C 
ATOM     10  O   UNL     1       4.379   5.438  16.631  0.00  0.00    +0.000 OA
ATOM     11  H   UNL     1       6.467   6.069  15.663  0.00  0.00    +0.000 HD
ENDROOT
BRANCH   7  12
ATOM     12  C   UNL     1       1.475   2.945  19.301  0.00  0.00    +0.000 C 
ATOM     13  C   UNL     1       0.546   2.051  18.468  0.00  0.00    +0.000 C 
ATOM     14  C   UNL     1       1.224   2.597  20.781  0.00  0.00    +0.000 C 
BRANCH  12  15
ATOM     15  O   UNL     1       1.021   4.274  19.050  0.00  0.00    +0.000 OA
ATOM     16  H   UNL     1       1.030   4.772  19.896  0.00  0.00    +0.000 HD
ENDBRANCH  12  15
ENDBRANCH   7  12
BRANCH   1  18
ATOM     17  C   UNL     1       7.678   8.325  17.529  0.00  0.00    +0.000 C 
ATOM     18  C   UNL     1       7.664   6.838  17.237  0.00  0.00    +0.000 C 
ENDBRANCH   1  18
BRANCH   8  19
ATOM     19  O   UNL     1       5.324   2.875  19.552  0.00  0.00    +0.000 OA
ATOM     20  H   UNL     1       5.318   2.690  18.590  0.00  0.00    +0.000 HD
ENDBRANCH   8  19
BRANCH   9  21
ATOM     21  O   UNL     1       2.797   5.105  21.013  0.00  0.00    +0.000 OA
ATOM     22  H   UNL     1       2.007   4.915  20.474  0.00  0.00    +0.000 HD
ENDBRANCH   9  21
TORSDOF 5
ENDMDL
MODEL 8
REMARK VINA RESULT:      -6.0      2.206      5.393
REMARK  Name = 
REMARK  8 active torsions:
REMARK  status: ('A' for Active; 'I' for Inactive)
REMARK    1  A    between atoms: C_1  and  C_2
REMARK    2  A    between atoms: C_2  and  N_3
REMARK    3  A    between atoms: C_9  and  C_10
REMARK    4  A    between atoms: C_10  and  C_11
REMARK    5  A    between atoms: C_10  and  C_12
REMARK    6  A    between atoms: C_10  and  O_13
REMARK    7  A    between atoms: C_14  and  O_15
REMARK    8  A    between atoms: C_16  and  O_17
REMARK                            x       y       z     vdW  Elec       q    Type
REMARK                         _______ _______ _______ _____ _____    ______ ____
ROOT
ATOM      1  N   UNL     1       1.219   4.602  20.335  0.00  0.00    +0.000 N 
ATOM      2  C   UNL     1       2.130   4.845  19.366  0.00  0.00    +0.000 C 
ATOM      3  N   UNL     1       2.466   4.047  18.413  0.00  0.00    +0.000 NA
ATOM      4  C   UNL     1       3.390   4.837  17.574  0.00  0.00    +0.000 C 
ATOM      5  C   UNL     1       3.746   6.055  18.428  0.00  0.00    +0.000 C 
ATOM      6  C   UNL     1       5.140   6.096  19.058  0.00  0.00    +0.000 C 
ATOM      7  C   UNL     1       6.247   5.450  18.200  0.00  0.00    +0.000 C 
ATOM      8  C   UNL     1       5.800   3.993  17.925  0.00  0.00    +0.000 C 
ATOM      9  C   UNL     1       4.514   3.908  17.092  0.00  0.00    +0.000 C 
ATOM     10  O   UNL     1       2.752   6.044  19.467  0.00  0.00    +0.000 OA
ATOM     11  H   UNL     1       1.275   5.207  21.144  0.00  0.00    +0.000 HD
ENDROOT
BRANCH   7  12
ATOM     12  C   UNL     1       6.659   6.267  16.925  0.00  0.00    +0.000 C 
ATOM     13  C   UNL     1       7.553   7.466  17.270  0.00  0.00    +0.000 C 
ATOM     14  C   UNL     1       7.431   5.410  15.904  0.00  0.00    +0.000 C 
BRANCH  12  15
ATOM     15  O   UNL     1       5.517   6.838  16.287  0.00  0.00    +0.000 OA
ATOM     16  H   UNL     1       5.700   7.786  16.110  0.00  0.00    +0.000 HD
ENDBRANCH  12  15
ENDBRANCH   7  12
BRANCH   1  18
ATOM     17  C   UNL     1       1.430   2.516  21.593  0.00  0.00    +0.000 C 
ATOM     18  C   UNL     1       0.673   3.271  20.518  0.00  0.00    +0.000 C 
ENDBRANCH   1  18
BRANCH   8  19
ATOM     19  O   UNL     1       5.646   3.300  19.172  0.00  0.00    +0.000 OA
ATOM     20  H   UNL     1       5.343   3.940  19.849  0.00  0.00    +0.000 HD
ENDBRANCH   8  19
BRANCH   9  21
ATOM     21  O   UNL     1       4.795   4.173  15.707  0.00  0.00    +0.000 OA
ATOM     22  H   UNL     1       5.049   5.112  15.656  0.00  0.00    +0.000 HD
ENDBRANCH   9  21
TORSDOF 5
ENDMDL
MODEL 9
REMARK VINA RESULT:      -5.9      2.264      5.556
REMARK  Name = 
REMARK  8 active torsions:
REMARK  status: ('A' for Active; 'I' for Inactive)
REMARK    1  A    between atoms: C_1  and  C_2
REMARK    2  A    between atoms: C_2  and  N_3
REMARK    3  A    between atoms: C_9  and  C_10
REMARK    4  A    between atoms: C_10  and  C_11
REMARK    5  A    between atoms: C_10  and  C_12
REMARK    6  A    between atoms: C_10  and  O_13
REMARK    7  A    between atoms: C_14  and  O_15
REMARK    8  A    between atoms: C_16  and  O_17
REMARK                            x       y       z     vdW  Elec       q    Type
REMARK                         _______ _______ _______ _____ _____    ______ ____
ROOT
ATOM      1  N   UNL     1       1.902   2.671  19.515  0.00  0.00    +0.000 N 
ATOM      2  C   UNL     1       3.071   3.198  19.088  0.00  0.00    +0.000 C 
ATOM      3  N   UNL     1       3.762   4.110  19.679  0.00  0.00    +0.000 NA
ATOM      4  C   UNL     1       4.992   4.228  18.871  0.00  0.00    +0.000 C 
ATOM      5  C   UNL     1       4.681   3.475  17.576  0.00  0.00    +0.000 C 
ATOM      6  C   UNL     1       4.421   4.306  16.318  0.00  0.00    +0.000 C 
ATOM      7  C   UNL     1       5.241   5.609  16.233  0.00  0.00    +0.000 C 
ATOM      8  C   UNL     1       4.922   6.418  17.514  0.00  0.00    +0.000 C 
ATOM      9  C   UNL     1       5.379   5.713  18.798  0.00  0.00    +0.000 C 
ATOM     10  O   UNL     1       3.505   2.714  17.900  0.00  0.00    +0.000 OA
ATOM     11  H   UNL     1       1.367   2.177  18.813  0.00  0.00    +0.000 HD
ENDROOT
BRANCH   7  12
ATOM     12  C   UNL     1       6.770   5.411  15.940  0.00  0.00    +0.000 C 
ATOM     13  C   UNL     1       7.357   4.218  16.707  0.00  0.00    +0.000 C 
ATOM     14  C   UNL     1       7.054   5.167  14.446  0.00  0.00    +0.000 C 
BRANCH  12  15
ATOM     15  O   UNL     1       7.530   6.536  16.382  0.00  0.00    +0.000 OA
ATOM     16  H   UNL     1       6.925   7.163  16.832  0.00  0.00    +0.000 HD
ENDBRANCH  12  15
ENDBRANCH   7  12
BRANCH   1  18
ATOM     17  C   UNL     1       1.433   2.521  21.911  0.00  0.00    +0.000 C 
ATOM     18  C   UNL     1       1.180   3.274  20.620  0.00  0.00    +0.000 C 
ENDBRANCH   1  18
BRANCH   8  19
ATOM     19  O   UNL     1       3.515   6.699  17.560  0.00  0.00    +0.000 OA
ATOM     20  H   UNL     1       3.194   6.837  16.645  0.00  0.00    +0.000 HD
ENDBRANCH   8  19
BRANCH   9  21
ATOM     21  O   UNL     1       6.801   5.848  18.965  0.00  0.00    +0.000 OA
ATOM     22  H   UNL     1       7.080   5.101  19.527  0.00  0.00    +0.000 HD
ENDBRANCH   9  21
TORSDOF 5
ENDMDL
