MODEL 1
REMARK VINA RESULT:      -8.7      0.000      0.000
REMARK  Name = 
REMARK  11 active torsions:
REMARK  status: ('A' for Active; 'I' for Inactive)
REMARK    1  A    between atoms: C_1  and  C_2
REMARK    2  A    between atoms: C_2  and  C_3
REMARK    3  A    between atoms: C_2  and  C_4
REMARK    4  A    between atoms: C_2  and  C_6
REMARK    5  A    between atoms: C_8  and  C_9
REMARK    6  A    between atoms: C_10  and  C_11
REMARK    7  A    between atoms: C_14  and  O_15
REMARK    8  A    between atoms: O_15  and  S_16
REMARK    9  A    between atoms: S_16  and  N_17
REMARK   10  A    between atoms: C_23  and  C_24
REMARK   11  A    between atoms: C_24  and  N_25
REMARK                            x       y       z     vdW  Elec       q    Type
REMARK                         _______ _______ _______ _____ _____    ______ ____
ROOT
ATOM      1  C   UNL     1       2.566   4.490  19.388  0.00  0.00    +0.000 A 
ATOM      2  C   UNL     1       2.004   5.491  20.206  0.00  0.00    +0.000 A 
ATOM      3  C   UNL     1       2.217   6.855  19.957  0.00  0.00    +0.000 A 
ATOM      4  C   UNL     1       3.012   7.225  18.870  0.00  0.00    +0.000 A 
ATOM      5  C   UNL     1       3.612   6.264  18.047  0.00  0.00    +0.000 A 
ATOM      6  C   UNL     1       3.415   4.904  18.337  0.00  0.00    +0.000 A 
ENDROOT
BRANCH   1   8
ATOM      7  C   UNL     1       0.998   2.539  18.724  0.00  0.00    +0.000 C 
ATOM      8  C   UNL     1       2.215   2.997  19.560  0.00  0.00    +0.000 C 
ATOM      9  C   UNL     1       3.415   2.135  19.097  0.00  0.00    +0.000 C 
BRANCH   8  10
ATOM     10  C   UNL     1       1.929   2.687  20.986  0.00  0.00    +0.000 C 
ATOM     11  N   UNL     1       1.712   2.468  22.100  0.00  0.00    +0.000 NA
ENDBRANCH   8  10
ENDBRANCH   1   8
BRANCH   3  12
ATOM     12  C   UNL     1       1.488   7.855  20.750  0.00  0.00    +0.000 C 
ATOM     13  C   UNL     1       1.000   9.000  20.247  0.00  0.00    +0.000 C 
BRANCH  13  14
ATOM     14  C   UNL     1       0.222   9.926  21.067  0.00  0.00    +0.000 A 
ATOM     15  C   UNL     1      -0.229   9.537  22.329  0.00  0.00    +0.000 A 
ATOM     16  C   UNL     1      -0.958  10.430  23.120  0.00  0.00    +0.000 A 
ATOM     17  C   UNL     1      -1.235  11.720  22.661  0.00  0.00    +0.000 A 
ATOM     18  C   UNL     1      -0.819  12.097  21.383  0.00  0.00    +0.000 A 
ATOM     19  C   UNL     1      -0.084  11.205  20.592  0.00  0.00    +0.000 A 
BRANCH  17  20
ATOM     20  O   UNL     1      -1.961  12.519  23.510  0.00  0.00    +0.000 OA
BRANCH  20  21
ATOM     21  S   UNL     1      -3.587  12.604  23.417  0.00  0.00    +0.000 S 
ATOM     22  O   UNL     1      -3.998  12.355  22.058  0.00  0.00    +0.000 OA
ATOM     23  O   UNL     1      -4.165  11.916  24.547  0.00  0.00    +0.000 OA
BRANCH  21  24
ATOM     24  N   UNL     1      -3.893  14.233  23.694  0.00  0.00    +0.000 NA
ATOM     25  H   UNL     1      -4.154  14.729  22.846  0.00  0.00    +0.000 HD
ATOM     26  H   UNL     1      -3.165  14.662  24.262  0.00  0.00    +0.000 HD
ENDBRANCH  21  24
ENDBRANCH  20  21
ENDBRANCH  17  20
ENDBRANCH  13  14
ENDBRANCH   3  12
BRANCH   5  27
ATOM     27  C   UNL     1       4.371   6.719  16.824  0.00  0.00    +0.000 C 
BRANCH  27  28
ATOM     28  N   UNL     1       5.522   5.871  16.557  0.00  0.00    +0.000 N 
ATOM     29  C   UNL     1       6.653   5.744  17.305  0.00  0.00    +0.000 A 
ATOM     30  N   UNL     1       7.512   4.972  16.679  0.00  0.00    +0.000 NA
ATOM     31  C   UNL     1       6.853   4.651  15.527  0.00  0.00    +0.000 A 
ATOM     32  N   UNL     1       5.635   5.184  15.400  0.00  0.00    +0.000 NA
ENDBRANCH  27  28
ENDBRANCH   5  27
TORSDOF 9
ENDMDL
MODEL 2
REMARK VINA RESULT:      -8.7      0.868      1.107
REMARK  Name = 
REMARK  11 active torsions:
REMARK  status: ('A' for Active; 'I' for Inactive)
REMARK    1  A    between atoms: C_1  and  C_2
REMARK    2  A    between atoms: C_2  and  C_3
REMARK    3  A    between atoms: C_2  and  C_4
REMARK    4  A    between atoms: C_2  and  C_6
REMARK    5  A    between atoms: C_8  and  C_9
REMARK    6  A    between atoms: C_10  and  C_11
REMARK    7  A    between atoms: C_14  and  O_15
REMARK    8  A    between atoms: O_15  and  S_16
REMARK    9  A    between atoms: S_16  and  N_17
REMARK   10  A    between atoms: C_23  and  C_24
REMARK   11  A    between atoms: C_24  and  N_25
REMARK                            x       y       z     vdW  Elec       q    Type
REMARK                         _______ _______ _______ _____ _____    ______ ____
ROOT
ATOM      1  C   UNL     1       2.551   4.702  19.879  0.00  0.00    +0.000 A 
ATOM      2  C   UNL     1       1.914   5.712  20.628  0.00  0.00    +0.000 A 
ATOM      3  C   UNL     1       1.953   7.058  20.236  0.00  0.00    +0.000 A 
ATOM      4  C   UNL     1       2.646   7.402  19.074  0.00  0.00    +0.000 A 
ATOM      5  C   UNL     1       3.316   6.434  18.315  0.00  0.00    +0.000 A 
ATOM      6  C   UNL     1       3.296   5.099  18.746  0.00  0.00    +0.000 A 
ENDROOT
BRANCH   1   8
ATOM      7  C   UNL     1       1.721   2.939  21.584  0.00  0.00    +0.000 C 
ATOM      8  C   UNL     1       2.388   3.204  20.216  0.00  0.00    +0.000 C 
ATOM      9  C   UNL     1       1.484   2.538  19.150  0.00  0.00    +0.000 C 
BRANCH   8  10
ATOM     10  C   UNL     1       3.708   2.520  20.214  0.00  0.00    +0.000 C 
ATOM     11  N   UNL     1       4.745   2.007  20.205  0.00  0.00    +0.000 NA
ENDBRANCH   8  10
ENDBRANCH   1   8
BRANCH   3  12
ATOM     12  C   UNL     1       1.148   8.046  20.969  0.00  0.00    +0.000 C 
ATOM     13  C   UNL     1       0.946   9.306  20.553  0.00  0.00    +0.000 C 
BRANCH  13  14
ATOM     14  C   UNL     1       0.079  10.224  21.288  0.00  0.00    +0.000 A 
ATOM     15  C   UNL     1      -0.429   9.864  22.537  0.00  0.00    +0.000 A 
ATOM     16  C   UNL     1      -1.243  10.750  23.246  0.00  0.00    +0.000 A 
ATOM     17  C   UNL     1      -1.551  12.007  22.719  0.00  0.00    +0.000 A 
ATOM     18  C   UNL     1      -1.077  12.354  21.452  0.00  0.00    +0.000 A 
ATOM     19  C   UNL     1      -0.257  11.468  20.744  0.00  0.00    +0.000 A 
BRANCH  17  20
ATOM     20  O   UNL     1      -2.362  12.802  23.491  0.00  0.00    +0.000 OA
BRANCH  20  21
ATOM     21  S   UNL     1      -3.986  12.669  23.437  0.00  0.00    +0.000 S 
ATOM     22  O   UNL     1      -4.393  12.382  22.085  0.00  0.00    +0.000 OA
ATOM     23  O   UNL     1      -4.438  11.897  24.570  0.00  0.00    +0.000 OA
BRANCH  21  24
ATOM     24  N   UNL     1      -4.501  14.239  23.745  0.00  0.00    +0.000 NA
ATOM     25  H   UNL     1      -3.740  14.912  23.711  0.00  0.00    +0.000 HD
ATOM     26  H   UNL     1      -5.106  14.283  24.562  0.00  0.00    +0.000 HD
ENDBRANCH  21  24
ENDBRANCH  20  21
ENDBRANCH  17  20
ENDBRANCH  13  14
ENDBRANCH   3  12
BRANCH   5  27
ATOM     27  C   UNL     1       3.959   6.844  17.010  0.00  0.00    +0.000 C 
BRANCH  27  28
ATOM     28  N   UNL     1       5.268   6.234  16.839  0.00  0.00    +0.000 N 
ATOM     29  C   UNL     1       6.446   6.622  17.402  0.00  0.00    +0.000 A 
ATOM     30  N   UNL     1       7.427   5.897  16.916  0.00  0.00    +0.000 NA
ATOM     31  C   UNL     1       6.790   5.068  16.037  0.00  0.00    +0.000 A 
ATOM     32  N   UNL     1       5.469   5.241  15.947  0.00  0.00    +0.000 NA
ENDBRANCH  27  28
ENDBRANCH   5  27
TORSDOF 9
ENDMDL
MODEL 3
REMARK VINA RESULT:      -8.6      0.705      1.286
REMARK  Name = 
REMARK  11 active torsions:
REMARK  status: ('A' for Active; 'I' for Inactive)
REMARK    1  A    between atoms: C_1  and  C_2
REMARK    2  A    between atoms: C_2  and  C_3
REMARK    3  A    between atoms: C_2  and  C_4
REMARK    4  A    between atoms: C_2  and  C_6
REMARK    5  A    between atoms: C_8  and  C_9
REMARK    6  A    between atoms: C_10  and  C_11
REMARK    7  A    between atoms: C_14  and  O_15
REMARK    8  A    between atoms: O_15  and  S_16
REMARK    9  A    between atoms: S_16  and  N_17
REMARK   10  A    between atoms: C_23  and  C_24
REMARK   11  A    between atoms: C_24  and  N_25
REMARK                            x       y       z     vdW  Elec       q    Type
REMARK                         _______ _______ _______ _____ _____    ______ ____
ROOT
ATOM      1  C   UNL     1       2.621   4.517  19.252  0.00  0.00    +0.000 A 
ATOM      2  C   UNL     1       2.033   5.664  19.822  0.00  0.00    +0.000 A 
ATOM      3  C   UNL     1       2.368   6.957  19.393  0.00  0.00    +0.000 A 
ATOM      4  C   UNL     1       3.312   7.106  18.375  0.00  0.00    +0.000 A 
ATOM      5  C   UNL     1       3.941   5.995  17.799  0.00  0.00    +0.000 A 
ATOM      6  C   UNL     1       3.619   4.712  18.270  0.00  0.00    +0.000 A 
ENDROOT
BRANCH   1   8
ATOM      7  C   UNL     1       0.689   2.794  19.205  0.00  0.00    +0.000 C 
ATOM      8  C   UNL     1       2.151   3.091  19.609  0.00  0.00    +0.000 C 
ATOM      9  C   UNL     1       3.031   2.062  18.859  0.00  0.00    +0.000 C 
BRANCH   8  10
ATOM     10  C   UNL     1       2.277   2.848  21.071  0.00  0.00    +0.000 C 
ATOM     11  N   UNL     1       2.354   2.669  22.210  0.00  0.00    +0.000 NA
ENDBRANCH   8  10
ENDBRANCH   1   8
BRANCH   3  12
ATOM     12  C   UNL     1       1.618   8.107  19.916  0.00  0.00    +0.000 C 
ATOM     13  C   UNL     1       0.754   8.037  20.941  0.00  0.00    +0.000 C 
BRANCH  13  14
ATOM     14  C   UNL     1       0.088   9.227  21.464  0.00  0.00    +0.000 A 
ATOM     15  C   UNL     1      -0.202  10.299  20.618  0.00  0.00    +0.000 A 
ATOM     16  C   UNL     1      -0.855  11.429  21.116  0.00  0.00    +0.000 A 
ATOM     17  C   UNL     1      -1.233  11.496  22.460  0.00  0.00    +0.000 A 
ATOM     18  C   UNL     1      -0.908  10.442  23.316  0.00  0.00    +0.000 A 
ATOM     19  C   UNL     1      -0.258   9.307  22.817  0.00  0.00    +0.000 A 
BRANCH  17  20
ATOM     20  O   UNL     1      -1.865  12.651  22.851  0.00  0.00    +0.000 OA
BRANCH  20  21
ATOM     21  S   UNL     1      -3.488  12.731  22.982  0.00  0.00    +0.000 S 
ATOM     22  O   UNL     1      -4.076  12.609  21.672  0.00  0.00    +0.000 OA
ATOM     23  O   UNL     1      -3.915  11.932  24.107  0.00  0.00    +0.000 OA
BRANCH  21  24
ATOM     24  N   UNL     1      -3.748  14.322  23.453  0.00  0.00    +0.000 NA
ATOM     25  H   UNL     1      -4.726  14.512  23.660  0.00  0.00    +0.000 HD
ATOM     26  H   UNL     1      -3.283  14.980  22.831  0.00  0.00    +0.000 HD
ENDBRANCH  21  24
ENDBRANCH  20  21
ENDBRANCH  17  20
ENDBRANCH  13  14
ENDBRANCH   3  12
BRANCH   5  27
ATOM     27  C   UNL     1       4.873   6.206  16.629  0.00  0.00    +0.000 C 
BRANCH  27  28
ATOM     28  N   UNL     1       6.156   5.554  16.837  0.00  0.00    +0.000 N 
ATOM     29  C   UNL     1       6.805   4.706  15.992  0.00  0.00    +0.000 A 
ATOM     30  N   UNL     1       7.880   4.234  16.580  0.00  0.00    +0.000 NA
ATOM     31  C   UNL     1       7.843   4.827  17.810  0.00  0.00    +0.000 A 
ATOM     32  N   UNL     1       6.803   5.637  18.020  0.00  0.00    +0.000 NA
ENDBRANCH  27  28
ENDBRANCH   5  27
TORSDOF 9
ENDMDL
MODEL 4
REMARK VINA RESULT:      -8.6      1.072      1.318
REMARK  Name = 
REMARK  11 active torsions:
REMARK  status: ('A' for Active; 'I' for Inactive)
REMARK    1  A    between atoms: C_1  and  C_2
REMARK    2  A    between atoms: C_2  and  C_3
REMARK    3  A    between atoms: C_2  and  C_4
REMARK    4  A    between atoms: C_2  and  C_6
REMARK    5  A    between atoms: C_8  and  C_9
REMARK    6  A    between atoms: C_10  and  C_11
REMARK    7  A    between atoms: C_14  and  O_15
REMARK    8  A    between atoms: O_15  and  S_16
REMARK    9  A    between atoms: S_16  and  N_17
REMARK   10  A    between atoms: C_23  and  C_24
REMARK   11  A    between atoms: C_24  and  N_25
REMARK                            x       y       z     vdW  Elec       q    Type
REMARK                         _______ _______ _______ _____ _____    ______ ____
ROOT
ATOM      1  C   UNL     1       2.740   4.432  19.187  0.00  0.00    +0.000 A 
ATOM      2  C   UNL     1       2.078   5.540  19.754  0.00  0.00    +0.000 A 
ATOM      3  C   UNL     1       2.395   6.857  19.389  0.00  0.00    +0.000 A 
ATOM      4  C   UNL     1       3.397   7.070  18.440  0.00  0.00    +0.000 A 
ATOM      5  C   UNL     1       4.099   5.999  17.871  0.00  0.00    +0.000 A 
ATOM      6  C   UNL     1       3.790   4.692  18.279  0.00  0.00    +0.000 A 
ENDROOT
BRANCH   1   8
ATOM      7  C   UNL     1       0.868   2.656  18.973  0.00  0.00    +0.000 C 
ATOM      8  C   UNL     1       2.296   2.981  19.467  0.00  0.00    +0.000 C 
ATOM      9  C   UNL     1       3.248   2.006  18.731  0.00  0.00    +0.000 C 
BRANCH   8  10
ATOM     10  C   UNL     1       2.350   2.688  20.924  0.00  0.00    +0.000 C 
ATOM     11  N   UNL     1       2.368   2.464  22.058  0.00  0.00    +0.000 NA
ENDBRANCH   8  10
ENDBRANCH   1   8
BRANCH   3  12
ATOM     12  C   UNL     1       1.574   7.964  19.899  0.00  0.00    +0.000 C 
ATOM     13  C   UNL     1       1.372   8.211  21.203  0.00  0.00    +0.000 C 
BRANCH  13  14
ATOM     14  C   UNL     1       0.603   9.368  21.653  0.00  0.00    +0.000 A 
ATOM     15  C   UNL     1      -0.194   9.281  22.795  0.00  0.00    +0.000 A 
ATOM     16  C   UNL     1      -0.916  10.394  23.234  0.00  0.00    +0.000 A 
ATOM     17  C   UNL     1      -0.841  11.606  22.543  0.00  0.00    +0.000 A 
ATOM     18  C   UNL     1      -0.076  11.684  21.377  0.00  0.00    +0.000 A 
ATOM     19  C   UNL     1       0.651  10.570  20.940  0.00  0.00    +0.000 A 
BRANCH  17  20
ATOM     20  O   UNL     1      -1.590  12.638  23.052  0.00  0.00    +0.000 OA
BRANCH  20  21
ATOM     21  S   UNL     1      -3.192  12.750  22.765  0.00  0.00    +0.000 S 
ATOM     22  O   UNL     1      -3.446  12.455  21.377  0.00  0.00    +0.000 OA
ATOM     23  O   UNL     1      -3.914  12.118  23.843  0.00  0.00    +0.000 OA
BRANCH  21  24
ATOM     24  N   UNL     1      -3.490  14.394  22.943  0.00  0.00    +0.000 NA
ATOM     25  H   UNL     1      -4.073  14.598  23.751  0.00  0.00    +0.000 HD
ATOM     26  H   UNL     1      -3.771  14.823  22.064  0.00  0.00    +0.000 HD
ENDBRANCH  21  24
ENDBRANCH  20  21
ENDBRANCH  17  20
ENDBRANCH  13  14
ENDBRANCH   3  12
BRANCH   5  27
ATOM     27  C   UNL     1       5.096   6.280  16.772  0.00  0.00    +0.000 C 
BRANCH  27  28
ATOM     28  N   UNL     1       6.365   6.752  17.302  0.00  0.00    +0.000 N 
ATOM     29  C   UNL     1       7.145   6.155  18.246  0.00  0.00    +0.000 A 
ATOM     30  N   UNL     1       8.153   6.941  18.546  0.00  0.00    +0.000 NA
ATOM     31  C   UNL     1       7.940   8.031  17.751  0.00  0.00    +0.000 A 
ATOM     32  N   UNL     1       6.854   7.968  16.978  0.00  0.00    +0.000 NA
ENDBRANCH  27  28
ENDBRANCH   5  27
TORSDOF 9
ENDMDL
MODEL 5
REMARK VINA RESULT:      -8.6      1.738      4.846
REMARK  Name = 
REMARK  11 active torsions:
REMARK  status: ('A' for Active; 'I' for Inactive)
REMARK    1  A    between atoms: C_1  and  C_2
REMARK    2  A    between atoms: C_2  and  C_3
REMARK    3  A    between atoms: C_2  and  C_4
REMARK    4  A    between atoms: C_2  and  C_6
REMARK    5  A    between atoms: C_8  and  C_9
REMARK    6  A    between atoms: C_10  and  C_11
REMARK    7  A    between atoms: C_14  and  O_15
REMARK    8  A    between atoms: O_15  and  S_16
REMARK    9  A    between atoms: S_16  and  N_17
REMARK   10  A    between atoms: C_23  and  C_24
REMARK   11  A    between atoms: C_24  and  N_25
REMARK                            x       y       z     vdW  Elec       q    Type
REMARK                         _______ _______ _______ _____ _____    ______ ____
ROOT
ATOM      1  C   UNL     1       5.314   5.557  17.243  0.00  0.00    +0.000 A 
ATOM      2  C   UNL     1       4.492   6.681  17.460  0.00  0.00    +0.000 A 
ATOM      3  C   UNL     1       3.153   6.552  17.856  0.00  0.00    +0.000 A 
ATOM      4  C   UNL     1       2.624   5.272  18.038  0.00  0.00    +0.000 A 
ATOM      5  C   UNL     1       3.398   4.127  17.807  0.00  0.00    +0.000 A 
ATOM      6  C   UNL     1       4.724   4.280  17.374  0.00  0.00    +0.000 A 
ENDROOT
BRANCH   1   8
ATOM      7  C   UNL     1       7.405   7.084  17.282  0.00  0.00    +0.000 C 
ATOM      8  C   UNL     1       6.825   5.689  16.955  0.00  0.00    +0.000 C 
ATOM      9  C   UNL     1       7.601   4.675  17.830  0.00  0.00    +0.000 C 
BRANCH   8  10
ATOM     10  C   UNL     1       7.113   5.402  15.525  0.00  0.00    +0.000 C 
ATOM     11  N   UNL     1       7.314   5.179  14.408  0.00  0.00    +0.000 NA
ENDBRANCH   8  10
ENDBRANCH   1   8
BRANCH   3  12
ATOM     12  C   UNL     1       2.386   7.754  18.212  0.00  0.00    +0.000 C 
ATOM     13  C   UNL     1       1.883   7.989  19.434  0.00  0.00    +0.000 C 
BRANCH  13  14
ATOM     14  C   UNL     1       1.189   9.236  19.749  0.00  0.00    +0.000 A 
ATOM     15  C   UNL     1       1.122  10.261  18.805  0.00  0.00    +0.000 A 
ATOM     16  C   UNL     1       0.443  11.445  19.101  0.00  0.00    +0.000 A 
ATOM     17  C   UNL     1      -0.185  11.612  20.339  0.00  0.00    +0.000 A 
ATOM     18  C   UNL     1      -0.085  10.604  21.299  0.00  0.00    +0.000 A 
ATOM     19  C   UNL     1       0.592   9.415  21.001  0.00  0.00    +0.000 A 
BRANCH  17  20
ATOM     20  O   UNL     1      -0.822  12.813  20.534  0.00  0.00    +0.000 OA
BRANCH  20  21
ATOM     21  S   UNL     1      -2.448  12.929  20.504  0.00  0.00    +0.000 S 
ATOM     22  O   UNL     1      -2.955  12.192  19.373  0.00  0.00    +0.000 OA
ATOM     23  O   UNL     1      -2.963  12.758  21.842  0.00  0.00    +0.000 OA
BRANCH  21  24
ATOM     24  N   UNL     1      -2.702  14.550  20.142  0.00  0.00    +0.000 NA
ATOM     25  H   UNL     1      -2.865  14.707  19.151  0.00  0.00    +0.000 HD
ATOM     26  H   UNL     1      -2.007  15.148  20.585  0.00  0.00    +0.000 HD
ENDBRANCH  21  24
ENDBRANCH  20  21
ENDBRANCH  17  20
ENDBRANCH  13  14
ENDBRANCH   3  12
BRANCH   5  27
ATOM     27  C   UNL     1       2.811   2.771  18.121  0.00  0.00    +0.000 C 
BRANCH  27  28
ATOM     28  N   UNL     1       2.398   2.672  19.512  0.00  0.00    +0.000 N 
ATOM     29  C   UNL     1       1.134   2.749  20.012  0.00  0.00    +0.000 A 
ATOM     30  N   UNL     1       1.176   2.731  21.325  0.00  0.00    +0.000 NA
ATOM     31  C   UNL     1       2.514   2.647  21.587  0.00  0.00    +0.000 A 
ATOM     32  N   UNL     1       3.304   2.616  20.512  0.00  0.00    +0.000 NA
ENDBRANCH  27  28
ENDBRANCH   5  27
TORSDOF 9
ENDMDL
MODEL 6
REMARK VINA RESULT:      -8.6      0.804      1.132
REMARK  Name = 
REMARK  11 active torsions:
REMARK  status: ('A' for Active; 'I' for Inactive)
REMARK    1  A    between atoms: C_1  and  C_2
REMARK    2  A    between atoms: C_2  and  C_3
REMARK    3  A    between atoms: C_2  and  C_4
REMARK    4  A    between atoms: C_2  and  C_6
REMARK    5  A    between atoms: C_8  and  C_9
REMARK    6  A    between atoms: C_10  and  C_11
REMARK    7  A    between atoms: C_14  and  O_15
REMARK    8  A    between atoms: O_15  and  S_16
REMARK    9  A    between atoms: S_16  and  N_17
REMARK   10  A    between atoms: C_23  and  C_24
REMARK   11  A    between atoms: C_24  and  N_25
REMARK                            x       y       z     vdW  Elec       q    Type
REMARK                         _______ _______ _______ _____ _____    ______ ____
ROOT
ATOM      1  C   UNL     1       2.540   4.643  19.740  0.00  0.00    +0.000 A 
ATOM      2  C   UNL     1       1.937   5.652  20.518  0.00  0.00    +0.000 A 
ATOM      3  C   UNL     1       2.034   7.008  20.173  0.00  0.00    +0.000 A 
ATOM      4  C   UNL     1       2.750   7.363  19.027  0.00  0.00    +0.000 A 
ATOM      5  C   UNL     1       3.387   6.395  18.240  0.00  0.00    +0.000 A 
ATOM      6  C   UNL     1       3.309   5.047  18.626  0.00  0.00    +0.000 A 
ENDROOT
BRANCH   1   8
ATOM      7  C   UNL     1       3.556   2.262  19.764  0.00  0.00    +0.000 C 
ATOM      8  C   UNL     1       2.313   3.143  20.025  0.00  0.00    +0.000 C 
ATOM      9  C   UNL     1       1.948   2.956  21.517  0.00  0.00    +0.000 C 
BRANCH   8  10
ATOM     10  C   UNL     1       1.199   2.615  19.193  0.00  0.00    +0.000 C 
ATOM     11  N   UNL     1       0.349   2.200  18.529  0.00  0.00    +0.000 NA
ENDBRANCH   8  10
ENDBRANCH   1   8
BRANCH   3  12
ATOM     12  C   UNL     1       1.264   8.003  20.933  0.00  0.00    +0.000 C 
ATOM     13  C   UNL     1       0.865   9.184  20.435  0.00  0.00    +0.000 C 
BRANCH  13  14
ATOM     14  C   UNL     1       0.041  10.105  21.215  0.00  0.00    +0.000 A 
ATOM     15  C   UNL     1      -0.411   9.740  22.484  0.00  0.00    +0.000 A 
ATOM     16  C   UNL     1      -1.184  10.628  23.236  0.00  0.00    +0.000 A 
ATOM     17  C   UNL     1      -1.504  11.892  22.732  0.00  0.00    +0.000 A 
ATOM     18  C   UNL     1      -1.087  12.243  21.447  0.00  0.00    +0.000 A 
ATOM     19  C   UNL     1      -0.308  11.355  20.695  0.00  0.00    +0.000 A 
BRANCH  17  20
ATOM     20  O   UNL     1      -2.272  12.688  23.546  0.00  0.00    +0.000 OA
BRANCH  20  21
ATOM     21  S   UNL     1      -3.901  12.664  23.471  0.00  0.00    +0.000 S 
ATOM     22  O   UNL     1      -4.309  12.388  22.117  0.00  0.00    +0.000 OA
ATOM     23  O   UNL     1      -4.419  11.939  24.607  0.00  0.00    +0.000 OA
BRANCH  21  24
ATOM     24  N   UNL     1      -4.312  14.269  23.752  0.00  0.00    +0.000 NA
ATOM     25  H   UNL     1      -3.575  14.782  24.229  0.00  0.00    +0.000 HD
ATOM     26  H   UNL     1      -5.247  14.355  24.145  0.00  0.00    +0.000 HD
ENDBRANCH  21  24
ENDBRANCH  20  21
ENDBRANCH  17  20
ENDBRANCH  13  14
ENDBRANCH   3  12
BRANCH   5  27
ATOM     27  C   UNL     1       4.056   6.821  16.955  0.00  0.00    +0.000 C 
BRANCH  27  28
ATOM     28  N   UNL     1       5.295   6.095  16.725  0.00  0.00    +0.000 N 
ATOM     29  C   UNL     1       6.510   6.323  17.295  0.00  0.00    +0.000 A 
ATOM     30  N   UNL     1       7.409   5.536  16.748  0.00  0.00    +0.000 NA
ATOM     31  C   UNL     1       6.683   4.837  15.826  0.00  0.00    +0.000 A 
ATOM     32  N   UNL     1       5.386   5.148  15.766  0.00  0.00    +0.000 NA
ENDBRANCH  27  28
ENDBRANCH   5  27
TORSDOF 9
ENDMDL
MODEL 7
REMARK VINA RESULT:      -8.5      2.300      4.896
REMARK  Name = 
REMARK  11 active torsions:
REMARK  status: ('A' for Active; 'I' for Inactive)
REMARK    1  A    between atoms: C_1  and  C_2
REMARK    2  A    between atoms: C_2  and  C_3
REMARK    3  A    between atoms: C_2  and  C_4
REMARK    4  A    between atoms: C_2  and  C_6
REMARK    5  A    between atoms: C_8  and  C_9
REMARK    6  A    between atoms: C_10  and  C_11
REMARK    7  A    between atoms: C_14  and  O_15
REMARK    8  A    between atoms: O_15  and  S_16
REMARK    9  A    between atoms: S_16  and  N_17
REMARK   10  A    between atoms: C_23  and  C_24
REMARK   11  A    between atoms: C_24  and  N_25
REMARK                            x       y       z     vdW  Elec       q    Type
REMARK                         _______ _______ _______ _____ _____    ______ ____
ROOT
ATOM      1  C   UNL     1       5.150   5.591  17.206  0.00  0.00    +0.000 A 
ATOM      2  C   UNL     1       4.420   6.777  17.419  0.00  0.00    +0.000 A 
ATOM      3  C   UNL     1       3.094   6.757  17.875  0.00  0.00    +0.000 A 
ATOM      4  C   UNL     1       2.485   5.525  18.123  0.00  0.00    +0.000 A 
ATOM      5  C   UNL     1       3.164   4.321  17.899  0.00  0.00    +0.000 A 
ATOM      6  C   UNL     1       4.478   4.364  17.406  0.00  0.00    +0.000 A 
ENDROOT
BRANCH   1   8
ATOM      7  C   UNL     1       7.494   4.585  17.652  0.00  0.00    +0.000 C 
ATOM      8  C   UNL     1       6.652   5.604  16.851  0.00  0.00    +0.000 C 
ATOM      9  C   UNL     1       6.826   5.239  15.357  0.00  0.00    +0.000 C 
BRANCH   8  10
ATOM     10  C   UNL     1       7.233   6.954  17.082  0.00  0.00    +0.000 C 
ATOM     11  N   UNL     1       7.686   8.006  17.237  0.00  0.00    +0.000 NA
ENDBRANCH   8  10
ENDBRANCH   1   8
BRANCH   3  12
ATOM     12  C   UNL     1       2.431   8.023  18.222  0.00  0.00    +0.000 C 
ATOM     13  C   UNL     1       1.703   8.209  19.334  0.00  0.00    +0.000 C 
BRANCH  13  14
ATOM     14  C   UNL     1       1.124   9.510  19.661  0.00  0.00    +0.000 A 
ATOM     15  C   UNL     1       0.354   9.666  20.814  0.00  0.00    +0.000 A 
ATOM     16  C   UNL     1      -0.185  10.915  21.135  0.00  0.00    +0.000 A 
ATOM     17  C   UNL     1       0.050  12.021  20.313  0.00  0.00    +0.000 A 
ATOM     18  C   UNL     1       0.786  11.857  19.138  0.00  0.00    +0.000 A 
ATOM     19  C   UNL     1       1.330  10.607  18.819  0.00  0.00    +0.000 A 
BRANCH  17  20
ATOM     20  O   UNL     1      -0.526  13.201  20.712  0.00  0.00    +0.000 OA
BRANCH  20  21
ATOM     21  S   UNL     1       0.186  14.165  21.819  0.00  0.00    +0.000 S 
ATOM     22  O   UNL     1       1.590  13.846  21.892  0.00  0.00    +0.000 OA
ATOM     23  O   UNL     1      -0.302  15.514  21.660  0.00  0.00    +0.000 OA
BRANCH  21  24
ATOM     24  N   UNL     1      -0.479  13.628  23.266  0.00  0.00    +0.000 NA
ATOM     25  H   UNL     1       0.205  13.166  23.860  0.00  0.00    +0.000 HD
ATOM     26  H   UNL     1      -1.355  13.132  23.117  0.00  0.00    +0.000 HD
ENDBRANCH  21  24
ENDBRANCH  20  21
ENDBRANCH  17  20
ENDBRANCH  13  14
ENDBRANCH   3  12
BRANCH   5  27
ATOM     27  C   UNL     1       2.497   3.022  18.285  0.00  0.00    +0.000 C 
BRANCH  27  28
ATOM     28  N   UNL     1       2.311   2.917  19.723  0.00  0.00    +0.000 N 
ATOM     29  C   UNL     1       3.264   2.699  20.671  0.00  0.00    +0.000 A 
ATOM     30  N   UNL     1       2.693   2.551  21.845  0.00  0.00    +0.000 NA
ATOM     31  C   UNL     1       1.364   2.681  21.558  0.00  0.00    +0.000 A 
ATOM     32  N   UNL     1       1.077   2.897  20.272  0.00  0.00    +0.000 NA
ENDBRANCH  27  28
ENDBRANCH   5  27
TORSDOF 9
ENDMDL
MODEL 8
REMARK VINA RESULT:      -8.5      2.385      5.011
REMARK  Name = 
REMARK  11 active torsions:
REMARK  status: ('A' for Active; 'I' for Inactive)
REMARK    1  A    between atoms: C_1  and  C_2
REMARK    2  A    between atoms: C_2  and  C_3
REMARK    3  A    between atoms: C_2  and  C_4
REMARK    4  A    between atoms: C_2  and  C_6
REMARK    5  A    between atoms: C_8  and  C_9
REMARK    6  A    between atoms: C_10  and  C_11
REMARK    7  A    between atoms: C_14  and  O_15
REMARK    8  A    between atoms: O_15  and  S_16
REMARK    9  A    between atoms: S_16  and  N_17
REMARK   10  A    between atoms: C_23  and  C_24
REMARK   11  A    between atoms: C_24  and  N_25
REMARK                            x       y       z     vdW  Elec       q    Type
REMARK                         _______ _______ _______ _____ _____    ______ ____
ROOT
ATOM      1  C   UNL     1       5.239   5.729  17.398  0.00  0.00    +0.000 A 
ATOM      2  C   UNL     1       4.488   6.903  17.610  0.00  0.00    +0.000 A 
ATOM      3  C   UNL     1       3.146   6.859  18.015  0.00  0.00    +0.000 A 
ATOM      4  C   UNL     1       2.542   5.615  18.211  0.00  0.00    +0.000 A 
ATOM      5  C   UNL     1       3.243   4.423  17.987  0.00  0.00    +0.000 A 
ATOM      6  C   UNL     1       4.573   4.491  17.544  0.00  0.00    +0.000 A 
ENDROOT
BRANCH   1   8
ATOM      7  C   UNL     1       7.415   7.132  17.391  0.00  0.00    +0.000 C 
ATOM      8  C   UNL     1       6.753   5.767  17.100  0.00  0.00    +0.000 C 
ATOM      9  C   UNL     1       7.474   4.729  17.995  0.00  0.00    +0.000 C 
BRANCH   8  10
ATOM     10  C   UNL     1       7.015   5.430  15.676  0.00  0.00    +0.000 C 
ATOM     11  N   UNL     1       7.238   5.154  14.575  0.00  0.00    +0.000 NA
ENDBRANCH   8  10
ENDBRANCH   1   8
BRANCH   3  12
ATOM     12  C   UNL     1       2.457   8.109  18.365  0.00  0.00    +0.000 C 
ATOM     13  C   UNL     1       1.463   8.646  17.639  0.00  0.00    +0.000 C 
BRANCH  13  14
ATOM     14  C   UNL     1       0.767   9.856  18.073  0.00  0.00    +0.000 A 
ATOM     15  C   UNL     1       1.481  10.912  18.641  0.00  0.00    +0.000 A 
ATOM     16  C   UNL     1       0.815  12.075  19.039  0.00  0.00    +0.000 A 
ATOM     17  C   UNL     1      -0.565  12.197  18.864  0.00  0.00    +0.000 A 
ATOM     18  C   UNL     1      -1.287  11.126  18.332  0.00  0.00    +0.000 A 
ATOM     19  C   UNL     1      -0.620   9.962  17.929  0.00  0.00    +0.000 A 
BRANCH  17  20
ATOM     20  O   UNL     1      -1.125  13.376  19.290  0.00  0.00    +0.000 OA
BRANCH  20  21
ATOM     21  S   UNL     1      -1.330  13.697  20.876  0.00  0.00    +0.000 S 
ATOM     22  O   UNL     1      -1.688  12.482  21.563  0.00  0.00    +0.000 OA
ATOM     23  O   UNL     1      -0.268  14.565  21.327  0.00  0.00    +0.000 OA
BRANCH  21  24
ATOM     24  N   UNL     1      -2.711  14.653  20.890  0.00  0.00    +0.000 NA
ATOM     25  H   UNL     1      -3.389  14.367  20.188  0.00  0.00    +0.000 HD
ATOM     26  H   UNL     1      -2.483  15.644  20.919  0.00  0.00    +0.000 HD
ENDBRANCH  21  24
ENDBRANCH  20  21
ENDBRANCH  17  20
ENDBRANCH  13  14
ENDBRANCH   3  12
BRANCH   5  27
ATOM     27  C   UNL     1       2.576   3.109  18.317  0.00  0.00    +0.000 C 
BRANCH  27  28
ATOM     28  N   UNL     1       2.345   2.965  19.745  0.00  0.00    +0.000 N 
ATOM     29  C   UNL     1       3.268   2.727  20.717  0.00  0.00    +0.000 A 
ATOM     30  N   UNL     1       2.661   2.545  21.868  0.00  0.00    +0.000 NA
ATOM     31  C   UNL     1       1.341   2.676  21.542  0.00  0.00    +0.000 A 
ATOM     32  N   UNL     1       1.095   2.925  20.254  0.00  0.00    +0.000 NA
ENDBRANCH  27  28
ENDBRANCH   5  27
TORSDOF 9
ENDMDL
MODEL 9
REMARK VINA RESULT:      -8.5      1.093      1.673
REMARK  Name = 
REMARK  11 active torsions:
REMARK  status: ('A' for Active; 'I' for Inactive)
REMARK    1  A    between atoms: C_1  and  C_2
REMARK    2  A    between atoms: C_2  and  C_3
REMARK    3  A    between atoms: C_2  and  C_4
REMARK    4  A    between atoms: C_2  and  C_6
REMARK    5  A    between atoms: C_8  and  C_9
REMARK    6  A    between atoms: C_10  and  C_11
REMARK    7  A    between atoms: C_14  and  O_15
REMARK    8  A    between atoms: O_15  and  S_16
REMARK    9  A    between atoms: S_16  and  N_17
REMARK   10  A    between atoms: C_23  and  C_24
REMARK   11  A    between atoms: C_24  and  N_25
REMARK                            x       y       z     vdW  Elec       q    Type
REMARK                         _______ _______ _______ _____ _____    ______ ____
ROOT
ATOM      1  C   UNL     1       2.458   4.708  19.818  0.00  0.00    +0.000 A 
ATOM      2  C   UNL     1       1.831   5.705  20.592  0.00  0.00    +0.000 A 
ATOM      3  C   UNL     1       1.907   7.063  20.251  0.00  0.00    +0.000 A 
ATOM      4  C   UNL     1       2.628   7.433  19.114  0.00  0.00    +0.000 A 
ATOM      5  C   UNL     1       3.290   6.478  18.331  0.00  0.00    +0.000 A 
ATOM      6  C   UNL     1       3.232   5.129  18.712  0.00  0.00    +0.000 A 
ENDROOT
BRANCH   1   8
ATOM      7  C   UNL     1       3.532   2.353  19.904  0.00  0.00    +0.000 C 
ATOM      8  C   UNL     1       2.255   3.204  20.096  0.00  0.00    +0.000 C 
ATOM      9  C   UNL     1       1.818   3.012  21.568  0.00  0.00    +0.000 C 
BRANCH   8  10
ATOM     10  C   UNL     1       1.200   2.645  19.210  0.00  0.00    +0.000 C 
ATOM     11  N   UNL     1       0.384   2.188  18.529  0.00  0.00    +0.000 NA
ENDBRANCH   8  10
ENDBRANCH   1   8
BRANCH   3  12
ATOM     12  C   UNL     1       1.112   8.042  21.006  0.00  0.00    +0.000 C 
ATOM     13  C   UNL     1       1.120   9.362  20.764  0.00  0.00    +0.000 C 
BRANCH  13  14
ATOM     14  C   UNL     1       0.256  10.281  21.502  0.00  0.00    +0.000 A 
ATOM     15  C   UNL     1       0.168  11.621  21.120  0.00  0.00    +0.000 A 
ATOM     16  C   UNL     1      -0.672  12.494  21.816  0.00  0.00    +0.000 A 
ATOM     17  C   UNL     1      -1.438  12.036  22.891  0.00  0.00    +0.000 A 
ATOM     18  C   UNL     1      -1.321  10.706  23.299  0.00  0.00    +0.000 A 
ATOM     19  C   UNL     1      -0.483   9.829  22.599  0.00  0.00    +0.000 A 
BRANCH  17  20
ATOM     20  O   UNL     1      -2.228  12.973  23.511  0.00  0.00    +0.000 OA
BRANCH  20  21
ATOM     21  S   UNL     1      -3.846  12.993  23.306  0.00  0.00    +0.000 S 
ATOM     22  O   UNL     1      -4.343  14.318  23.583  0.00  0.00    +0.000 OA
ATOM     23  O   UNL     1      -4.182  12.269  22.103  0.00  0.00    +0.000 OA
BRANCH  21  24
ATOM     24  N   UNL     1      -4.395  12.027  24.566  0.00  0.00    +0.000 NA
ATOM     25  H   UNL     1      -3.892  12.195  25.433  0.00  0.00    +0.000 HD
ATOM     26  H   UNL     1      -4.491  11.055  24.281  0.00  0.00    +0.000 HD
ENDBRANCH  21  24
ENDBRANCH  20  21
ENDBRANCH  17  20
ENDBRANCH  13  14
ENDBRANCH   3  12
BRANCH   5  27
ATOM     27  C   UNL     1       3.964   6.920  17.054  0.00  0.00    +0.000 C 
BRANCH  27  28
ATOM     28  N   UNL     1       5.243   6.254  16.860  0.00  0.00    +0.000 N 
ATOM     29  C   UNL     1       6.433   6.553  17.452  0.00  0.00    +0.000 A 
ATOM     30  N   UNL     1       7.382   5.805  16.936  0.00  0.00    +0.000 NA
ATOM     31  C   UNL     1       6.712   5.055  16.011  0.00  0.00    +0.000 A 
ATOM     32  N   UNL     1       5.403   5.299  15.920  0.00  0.00    +0.000 NA
ENDBRANCH  27  28
ENDBRANCH   5  27
TORSDOF 9
ENDMDL
