MODEL 1
REMARK VINA RESULT:      -7.7      0.000      0.000
REMARK  Name = 
REMARK  7 active torsions:
REMARK  status: ('A' for Active; 'I' for Inactive)
REMARK    1  A    between atoms: C_1  and  C_2
REMARK    2  A    between atoms: C_2  and  N_3
REMARK    3  A    between atoms: C_2  and  C_19
REMARK    4  A    between atoms: N_3  and  C_4
REMARK    5  A    between atoms: C_10  and  C_11
REMARK    6  A    between atoms: C_12  and  C_13
REMARK    7  A    between atoms: N_30  and  C_31
REMARK                            x       y       z     vdW  Elec       q    Type
REMARK                         _______ _______ _______ _____ _____    ______ ____
ROOT
ATOM      1  C   UNL     1       3.476   8.096  17.866  0.00  0.00    +0.000 C 
ATOM      2  C   UNL     1       2.285   7.508  18.648  0.00  0.00    +0.000 C 
ENDROOT
BRANCH   2   3
ATOM      3  C   UNL     1       1.148   8.569  18.580  0.00  0.00    +0.000 A 
ATOM      4  N   UNL     1       0.365   8.678  17.540  0.00  0.00    +0.000 NA
ATOM      5  C   UNL     1      -0.569   9.742  17.539  0.00  0.00    +0.000 A 
ATOM      6  C   UNL     1      -1.645   9.710  16.651  0.00  0.00    +0.000 A 
ATOM      7  C   UNL     1      -2.663  10.668  16.728  0.00  0.00    +0.000 A 
ATOM      8  C   UNL     1      -2.602  11.679  17.686  0.00  0.00    +0.000 A 
ATOM      9  C   UNL     1      -1.500  11.768  18.536  0.00  0.00    +0.000 A 
ATOM     10 CL   UNL     1      -1.537  13.003  19.743  0.00  0.00    +0.000 Cl
ATOM     11  C   UNL     1      -0.479  10.813  18.437  0.00  0.00    +0.000 A 
ATOM     12  C   UNL     1       0.697  10.790  19.317  0.00  0.00    +0.000 A 
ATOM     13  O   UNL     1       1.216  11.821  19.730  0.00  0.00    +0.000 OA
ATOM     14  N   UNL     1       1.165   9.509  19.600  0.00  0.00    +0.000 N 
BRANCH  14  15
ATOM     15  C   UNL     1       0.934   9.138  20.959  0.00  0.00    +0.000 A 
ATOM     16  C   UNL     1      -0.358   8.828  21.394  0.00  0.00    +0.000 A 
ATOM     17  C   UNL     1      -0.652   8.910  22.756  0.00  0.00    +0.000 A 
ATOM     18  C   UNL     1       0.367   9.237  23.638  0.00  0.00    +0.000 A 
ATOM     19  N   UNL     1       1.645   9.445  23.262  0.00  0.00    +0.000 NA
ATOM     20  C   UNL     1       1.896   9.408  21.933  0.00  0.00    +0.000 A 
ENDBRANCH  14  15
ENDBRANCH   2   3
BRANCH   2  21
ATOM     21  N   UNL     1       1.887   6.180  18.102  0.00  0.00    +0.000 N 
ATOM     22  H   UNL     1       2.349   6.013  17.211  0.00  0.00    +0.000 HD
BRANCH  21  23
ATOM     23  C   UNL     1       2.180   5.106  18.999  0.00  0.00    +0.000 A 
ATOM     24  N   UNL     1       1.316   4.866  20.005  0.00  0.00    +0.000 NA
ATOM     25  C   UNL     1       1.646   3.927  20.903  0.00  0.00    +0.000 A 
ATOM     26  N   UNL     1       2.767   3.204  20.915  0.00  0.00    +0.000 NA
ATOM     27  C   UNL     1       3.591   3.398  19.879  0.00  0.00    +0.000 A 
ATOM     28  N   UNL     1       4.799   2.697  19.960  0.00  0.00    +0.000 N 
ATOM     29  C   UNL     1       3.317   4.303  18.851  0.00  0.00    +0.000 A 
ATOM     30  H   UNL     1       4.752   2.086  20.772  0.00  0.00    +0.000 HD
ATOM     31  H   UNL     1       5.022   2.196  19.110  0.00  0.00    +0.000 HD
BRANCH  29  32
ATOM     32  C   UNL     1       4.188   4.377  17.712  0.00  0.00    +0.000 C 
ATOM     33  C   UNL     1       4.937   4.464  16.781  0.00  0.00    +0.000 C 
BRANCH  33  34
ATOM     34  C   UNL     1       5.819   4.434  15.662  0.00  0.00    +0.000 A 
ATOM     35  C   UNL     1       6.951   5.233  15.640  0.00  0.00    +0.000 A 
ATOM     36  N   UNL     1       7.666   5.440  14.510  0.00  0.00    +0.000 NA
ATOM     37  C   UNL     1       7.202   4.796  13.414  0.00  0.00    +0.000 A 
ATOM     38  C   UNL     1       6.108   3.944  13.456  0.00  0.00    +0.000 A 
ATOM     39  N   UNL     1       5.383   3.745  14.582  0.00  0.00    +0.000 NA
ENDBRANCH  33  34
ENDBRANCH  29  32
ENDBRANCH  21  23
ENDBRANCH   2  21
TORSDOF 6
ENDMDL
MODEL 2
REMARK VINA RESULT:      -7.7      6.123      9.839
REMARK  Name = 
REMARK  7 active torsions:
REMARK  status: ('A' for Active; 'I' for Inactive)
REMARK    1  A    between atoms: C_1  and  C_2
REMARK    2  A    between atoms: C_2  and  N_3
REMARK    3  A    between atoms: C_2  and  C_19
REMARK    4  A    between atoms: N_3  and  C_4
REMARK    5  A    between atoms: C_10  and  C_11
REMARK    6  A    between atoms: C_12  and  C_13
REMARK    7  A    between atoms: N_30  and  C_31
REMARK                            x       y       z     vdW  Elec       q    Type
REMARK                         _______ _______ _______ _____ _____    ______ ____
ROOT
ATOM      1  C   UNL     1      -1.972  10.610  17.887  0.00  0.00    +0.000 C 
ATOM      2  C   UNL     1      -2.486  11.597  18.953  0.00  0.00    +0.000 C 
ENDROOT
BRANCH   2   3
ATOM      3  C   UNL     1      -1.303  12.559  19.268  0.00  0.00    +0.000 A 
ATOM      4  N   UNL     1      -1.378  13.843  19.046  0.00  0.00    +0.000 NA
ATOM      5  C   UNL     1      -0.210  14.610  19.272  0.00  0.00    +0.000 A 
ATOM      6  C   UNL     1      -0.312  15.997  19.394  0.00  0.00    +0.000 A 
ATOM      7  C   UNL     1       0.798  16.765  19.765  0.00  0.00    +0.000 A 
ATOM      8  C   UNL     1       2.028  16.151  19.999  0.00  0.00    +0.000 A 
ATOM      9  C   UNL     1       2.165  14.775  19.815  0.00  0.00    +0.000 A 
ATOM     10 CL   UNL     1       3.700  14.083  20.199  0.00  0.00    +0.000 Cl
ATOM     11  C   UNL     1       1.051  14.021  19.427  0.00  0.00    +0.000 A 
ATOM     12  C   UNL     1       1.080  12.562  19.254  0.00  0.00    +0.000 A 
ATOM     13  O   UNL     1       2.069  11.982  18.820  0.00  0.00    +0.000 OA
ATOM     14  N   UNL     1      -0.112  11.929  19.598  0.00  0.00    +0.000 N 
BRANCH  14  15
ATOM     15  C   UNL     1       0.014  11.151  20.789  0.00  0.00    +0.000 A 
ATOM     16  C   UNL     1       0.156   9.761  20.711  0.00  0.00    +0.000 A 
ATOM     17  C   UNL     1      -0.170   8.985  21.823  0.00  0.00    +0.000 A 
ATOM     18  C   UNL     1      -0.563   9.624  22.989  0.00  0.00    +0.000 A 
ATOM     19  N   UNL     1      -0.614  10.964  23.128  0.00  0.00    +0.000 NA
ATOM     20  C   UNL     1      -0.342  11.695  22.023  0.00  0.00    +0.000 A 
ENDBRANCH  14  15
ENDBRANCH   2   3
BRANCH   2  21
ATOM     21  N   UNL     1      -3.712  12.302  18.485  0.00  0.00    +0.000 N 
ATOM     22  H   UNL     1      -3.770  12.270  17.470  0.00  0.00    +0.000 HD
BRANCH  21  23
ATOM     23  C   UNL     1      -4.909  11.761  19.049  0.00  0.00    +0.000 A 
ATOM     24  N   UNL     1      -5.642  10.920  18.293  0.00  0.00    +0.000 NA
ATOM     25  C   UNL     1      -6.815  10.497  18.787  0.00  0.00    +0.000 A 
ATOM     26  N   UNL     1      -7.348  10.840  19.961  0.00  0.00    +0.000 NA
ATOM     27  C   UNL     1      -6.588  11.621  20.735  0.00  0.00    +0.000 A 
ATOM     28  N   UNL     1      -7.205  12.039  21.920  0.00  0.00    +0.000 N 
ATOM     29  C   UNL     1      -5.321  12.068  20.351  0.00  0.00    +0.000 A 
ATOM     30  H   UNL     1      -8.099  11.561  21.992  0.00  0.00    +0.000 HD
ATOM     31  H   UNL     1      -6.624  11.902  22.737  0.00  0.00    +0.000 HD
BRANCH  29  32
ATOM     32  C   UNL     1      -4.511  12.807  21.278  0.00  0.00    +0.000 C 
ATOM     33  C   UNL     1      -3.864  13.421  22.078  0.00  0.00    +0.000 C 
BRANCH  33  34
ATOM     34  C   UNL     1      -2.992  14.074  22.996  0.00  0.00    +0.000 A 
ATOM     35  C   UNL     1      -3.281  14.084  24.351  0.00  0.00    +0.000 A 
ATOM     36  N   UNL     1      -2.641  14.901  25.219  0.00  0.00    +0.000 NA
ATOM     37  C   UNL     1      -1.690  15.690  24.667  0.00  0.00    +0.000 A 
ATOM     38  C   UNL     1      -1.358  15.628  23.321  0.00  0.00    +0.000 A 
ATOM     39  N   UNL     1      -2.006  14.820  22.449  0.00  0.00    +0.000 NA
ENDBRANCH  33  34
ENDBRANCH  29  32
ENDBRANCH  21  23
ENDBRANCH   2  21
TORSDOF 6
ENDMDL
MODEL 3
REMARK VINA RESULT:      -7.5      5.492      9.952
REMARK  Name = 
REMARK  7 active torsions:
REMARK  status: ('A' for Active; 'I' for Inactive)
REMARK    1  A    between atoms: C_1  and  C_2
REMARK    2  A    between atoms: C_2  and  N_3
REMARK    3  A    between atoms: C_2  and  C_19
REMARK    4  A    between atoms: N_3  and  C_4
REMARK    5  A    between atoms: C_10  and  C_11
REMARK    6  A    between atoms: C_12  and  C_13
REMARK    7  A    between atoms: N_30  and  C_31
REMARK                            x       y       z     vdW  Elec       q    Type
REMARK                         _______ _______ _______ _____ _____    ______ ____
ROOT
ATOM      1  C   UNL     1      -2.081  11.113  17.451  0.00  0.00    +0.000 C 
ATOM      2  C   UNL     1      -2.641  11.667  18.776  0.00  0.00    +0.000 C 
ENDROOT
BRANCH   2   3
ATOM      3  C   UNL     1      -1.506  12.524  19.410  0.00  0.00    +0.000 A 
ATOM      4  N   UNL     1      -1.585  13.825  19.492  0.00  0.00    +0.000 NA
ATOM      5  C   UNL     1      -0.455  14.513  19.993  0.00  0.00    +0.000 A 
ATOM      6  C   UNL     1      -0.591  15.832  20.431  0.00  0.00    +0.000 A 
ATOM      7  C   UNL     1       0.470  16.487  21.067  0.00  0.00    +0.000 A 
ATOM      8  C   UNL     1       1.686  15.831  21.254  0.00  0.00    +0.000 A 
ATOM      9  C   UNL     1       1.864  14.538  20.762  0.00  0.00    +0.000 A 
ATOM     10 CL   UNL     1       3.373  13.770  21.101  0.00  0.00    +0.000 Cl
ATOM     11  C   UNL     1       0.799  13.900  20.112  0.00  0.00    +0.000 A 
ATOM     12  C   UNL     1       0.869  12.524  19.602  0.00  0.00    +0.000 A 
ATOM     13  O   UNL     1       1.901  12.061  19.129  0.00  0.00    +0.000 OA
ATOM     14  N   UNL     1      -0.336  11.830  19.682  0.00  0.00    +0.000 N 
BRANCH  14  15
ATOM     15  C   UNL     1      -0.296  10.792  20.661  0.00  0.00    +0.000 A 
ATOM     16  C   UNL     1      -0.783  11.022  21.952  0.00  0.00    +0.000 A 
ATOM     17  C   UNL     1      -0.348  10.204  22.995  0.00  0.00    +0.000 A 
ATOM     18  C   UNL     1       0.506   9.151  22.703  0.00  0.00    +0.000 A 
ATOM     19  N   UNL     1       0.915   8.842  21.457  0.00  0.00    +0.000 NA
ATOM     20  C   UNL     1       0.520   9.677  20.469  0.00  0.00    +0.000 A 
ENDBRANCH  14  15
ENDBRANCH   2   3
BRANCH   2  21
ATOM     21  N   UNL     1      -3.900  12.431  18.548  0.00  0.00    +0.000 N 
ATOM     22  H   UNL     1      -4.063  12.552  17.551  0.00  0.00    +0.000 HD
BRANCH  21  23
ATOM     23  C   UNL     1      -5.039  11.807  19.145  0.00  0.00    +0.000 A 
ATOM     24  N   UNL     1      -5.736  10.921  18.407  0.00  0.00    +0.000 NA
ATOM     25  C   UNL     1      -6.862  10.417  18.934  0.00  0.00    +0.000 A 
ATOM     26  N   UNL     1      -7.381  10.718  20.125  0.00  0.00    +0.000 NA
ATOM     27  C   UNL     1      -6.652  11.546  20.881  0.00  0.00    +0.000 A 
ATOM     28  N   UNL     1      -7.260  11.917  22.085  0.00  0.00    +0.000 N 
ATOM     29  C   UNL     1      -5.432  12.080  20.461  0.00  0.00    +0.000 A 
ATOM     30  H   UNL     1      -8.117  11.379  22.182  0.00  0.00    +0.000 HD
ATOM     31  H   UNL     1      -6.646  11.817  22.884  0.00  0.00    +0.000 HD
BRANCH  29  32
ATOM     32  C   UNL     1      -4.646  12.870  21.367  0.00  0.00    +0.000 C 
ATOM     33  C   UNL     1      -4.010  13.561  22.112  0.00  0.00    +0.000 C 
BRANCH  33  34
ATOM     34  C   UNL     1      -3.270  14.286  23.089  0.00  0.00    +0.000 A 
ATOM     35  C   UNL     1      -1.912  14.063  23.248  0.00  0.00    +0.000 A 
ATOM     36  N   UNL     1      -1.226  14.521  24.321  0.00  0.00    +0.000 NA
ATOM     37  C   UNL     1      -1.962  15.224  25.213  0.00  0.00    +0.000 A 
ATOM     38  C   UNL     1      -3.307  15.502  25.016  0.00  0.00    +0.000 A 
ATOM     39  N   UNL     1      -3.998  15.034  23.949  0.00  0.00    +0.000 NA
ENDBRANCH  33  34
ENDBRANCH  29  32
ENDBRANCH  21  23
ENDBRANCH   2  21
TORSDOF 6
ENDMDL
MODEL 4
REMARK VINA RESULT:      -7.0      6.818     10.791
REMARK  Name = 
REMARK  7 active torsions:
REMARK  status: ('A' for Active; 'I' for Inactive)
REMARK    1  A    between atoms: C_1  and  C_2
REMARK    2  A    between atoms: C_2  and  N_3
REMARK    3  A    between atoms: C_2  and  C_19
REMARK    4  A    between atoms: N_3  and  C_4
REMARK    5  A    between atoms: C_10  and  C_11
REMARK    6  A    between atoms: C_12  and  C_13
REMARK    7  A    between atoms: N_30  and  C_31
REMARK                            x       y       z     vdW  Elec       q    Type
REMARK                         _______ _______ _______ _____ _____    ______ ____
ROOT
ATOM      1  C   UNL     1      -1.214  11.179  22.949  0.00  0.00    +0.000 C 
ATOM      2  C   UNL     1      -0.915  12.438  22.114  0.00  0.00    +0.000 C 
ENDROOT
BRANCH   2   3
ATOM      3  C   UNL     1      -1.711  12.285  20.785  0.00  0.00    +0.000 A 
ATOM      4  N   UNL     1      -3.016  12.318  20.753  0.00  0.00    +0.000 NA
ATOM      5  C   UNL     1      -3.642  12.067  19.509  0.00  0.00    +0.000 A 
ATOM      6  C   UNL     1      -4.979  12.426  19.327  0.00  0.00    +0.000 A 
ATOM      7  C   UNL     1      -5.579  12.327  18.066  0.00  0.00    +0.000 A 
ATOM      8  C   UNL     1      -4.850  11.848  16.979  0.00  0.00    +0.000 A 
ATOM      9  C   UNL     1      -3.534  11.419  17.156  0.00  0.00    +0.000 A 
ATOM     10 CL   UNL     1      -2.678  10.912  15.745  0.00  0.00    +0.000 Cl
ATOM     11  C   UNL     1      -2.950  11.508  18.427  0.00  0.00    +0.000 A 
ATOM     12  C   UNL     1      -1.559  11.129  18.707  0.00  0.00    +0.000 A 
ATOM     13  O   UNL     1      -1.015  10.192  18.132  0.00  0.00    +0.000 OA
ATOM     14  N   UNL     1      -0.949  11.905  19.689  0.00  0.00    +0.000 N 
BRANCH  14  15
ATOM     15  C   UNL     1       0.061  12.758  19.153  0.00  0.00    +0.000 A 
ATOM     16  C   UNL     1       1.413  12.433  19.307  0.00  0.00    +0.000 A 
ATOM     17  C   UNL     1       2.369  13.443  19.198  0.00  0.00    +0.000 A 
ATOM     18  C   UNL     1       1.949  14.726  18.878  0.00  0.00    +0.000 A 
ATOM     19  N   UNL     1       0.665  15.052  18.627  0.00  0.00    +0.000 NA
ATOM     20  C   UNL     1      -0.249  14.068  18.786  0.00  0.00    +0.000 A 
ENDBRANCH  14  15
ENDBRANCH   2   3
BRANCH   2  21
ATOM     21  N   UNL     1      -1.258  13.677  22.868  0.00  0.00    +0.000 N 
ATOM     22  H   UNL     1      -1.051  13.556  23.857  0.00  0.00    +0.000 HD
BRANCH  21  23
ATOM     23  C   UNL     1      -0.572  14.830  22.375  0.00  0.00    +0.000 A 
ATOM     24  N   UNL     1       0.767  14.882  22.520  0.00  0.00    +0.000 NA
ATOM     25  C   UNL     1       1.392  16.009  22.151  0.00  0.00    +0.000 A 
ATOM     26  N   UNL     1       0.817  17.109  21.661  0.00  0.00    +0.000 NA
ATOM     27  C   UNL     1      -0.503  17.029  21.457  0.00  0.00    +0.000 A 
ATOM     28  N   UNL     1      -1.096  18.222  21.030  0.00  0.00    +0.000 N 
ATOM     29  C   UNL     1      -1.247  15.882  21.744  0.00  0.00    +0.000 A 
ATOM     30  H   UNL     1      -0.355  18.897  20.862  0.00  0.00    +0.000 HD
ATOM     31  H   UNL     1      -1.697  18.097  20.225  0.00  0.00    +0.000 HD
BRANCH  29  32
ATOM     32  C   UNL     1      -2.637  15.824  21.392  0.00  0.00    +0.000 C 
ATOM     33  C   UNL     1      -3.796  15.736  21.098  0.00  0.00    +0.000 C 
BRANCH  33  34
ATOM     34  C   UNL     1      -5.197  15.726  20.842  0.00  0.00    +0.000 A 
ATOM     35  C   UNL     1      -6.068  15.116  21.731  0.00  0.00    +0.000 A 
ATOM     36  N   UNL     1      -7.355  14.848  21.410  0.00  0.00    +0.000 NA
ATOM     37  C   UNL     1      -7.728  15.234  20.168  0.00  0.00    +0.000 A 
ATOM     38  C   UNL     1      -6.871  15.905  19.307  0.00  0.00    +0.000 A 
ATOM     39  N   UNL     1      -5.580  16.164  19.620  0.00  0.00    +0.000 NA
ENDBRANCH  33  34
ENDBRANCH  29  32
ENDBRANCH  21  23
ENDBRANCH   2  21
TORSDOF 6
ENDMDL
MODEL 5
REMARK VINA RESULT:      -7.0      6.049      9.513
REMARK  Name = 
REMARK  7 active torsions:
REMARK  status: ('A' for Active; 'I' for Inactive)
REMARK    1  A    between atoms: C_1  and  C_2
REMARK    2  A    between atoms: C_2  and  N_3
REMARK    3  A    between atoms: C_2  and  C_19
REMARK    4  A    between atoms: N_3  and  C_4
REMARK    5  A    between atoms: C_10  and  C_11
REMARK    6  A    between atoms: C_12  and  C_13
REMARK    7  A    between atoms: N_30  and  C_31
REMARK                            x       y       z     vdW  Elec       q    Type
REMARK                         _______ _______ _______ _____ _____    ______ ____
ROOT
ATOM      1  C   UNL     1      -1.461  14.116  23.462  0.00  0.00    +0.000 C 
ATOM      2  C   UNL     1      -2.164  13.659  22.169  0.00  0.00    +0.000 C 
ENDROOT
BRANCH   2   3
ATOM      3  C   UNL     1      -1.035  13.328  21.149  0.00  0.00    +0.000 A 
ATOM      4  N   UNL     1      -0.706  12.098  20.857  0.00  0.00    +0.000 NA
ATOM      5  C   UNL     1       0.401  11.911  19.995  0.00  0.00    +0.000 A 
ATOM      6  C   UNL     1       0.586  10.674  19.373  0.00  0.00    +0.000 A 
ATOM      7  C   UNL     1       1.581  10.504  18.403  0.00  0.00    +0.000 A 
ATOM      8  C   UNL     1       2.415  11.567  18.061  0.00  0.00    +0.000 A 
ATOM      9  C   UNL     1       2.290  12.790  18.721  0.00  0.00    +0.000 A 
ATOM     10 CL   UNL     1       3.309  14.078  18.185  0.00  0.00    +0.000 Cl
ATOM     11  C   UNL     1       1.301  12.943  19.702  0.00  0.00    +0.000 A 
ATOM     12  C   UNL     1       1.058  14.202  20.418  0.00  0.00    +0.000 A 
ATOM     13  O   UNL     1       1.971  14.964  20.715  0.00  0.00    +0.000 OA
ATOM     14  N   UNL     1      -0.279  14.418  20.742  0.00  0.00    +0.000 N 
BRANCH  14  15
ATOM     15  C   UNL     1      -0.854  15.480  19.981  0.00  0.00    +0.000 A 
ATOM     16  C   UNL     1      -0.374  15.768  18.699  0.00  0.00    +0.000 A 
ATOM     17  C   UNL     1      -0.604  17.034  18.160  0.00  0.00    +0.000 A 
ATOM     18  C   UNL     1      -1.355  17.943  18.890  0.00  0.00    +0.000 A 
ATOM     19  N   UNL     1      -1.915  17.664  20.084  0.00  0.00    +0.000 NA
ATOM     20  C   UNL     1      -1.639  16.448  20.609  0.00  0.00    +0.000 A 
ENDBRANCH  14  15
ENDBRANCH   2   3
BRANCH   2  21
ATOM     21  N   UNL     1      -3.077  12.511  22.432  0.00  0.00    +0.000 N 
ATOM     22  H   UNL     1      -2.877  12.103  23.342  0.00  0.00    +0.000 HD
BRANCH  21  23
ATOM     23  C   UNL     1      -4.457  12.879  22.368  0.00  0.00    +0.000 A 
ATOM     24  N   UNL     1      -5.013  13.448  23.456  0.00  0.00    +0.000 NA
ATOM     25  C   UNL     1      -6.330  13.696  23.428  0.00  0.00    +0.000 A 
ATOM     26  N   UNL     1      -7.165  13.419  22.425  0.00  0.00    +0.000 NA
ATOM     27  C   UNL     1      -6.599  12.917  21.323  0.00  0.00    +0.000 A 
ATOM     28  N   UNL     1      -7.505  12.551  20.321  0.00  0.00    +0.000 N 
ATOM     29  C   UNL     1      -5.227  12.679  21.216  0.00  0.00    +0.000 A 
ATOM     30  H   UNL     1      -8.432  12.850  20.614  0.00  0.00    +0.000 HD
ATOM     31  H   UNL     1      -7.251  12.911  19.410  0.00  0.00    +0.000 HD
BRANCH  29  32
ATOM     32  C   UNL     1      -4.670  12.247  19.965  0.00  0.00    +0.000 C 
ATOM     33  C   UNL     1      -4.172  11.906  18.930  0.00  0.00    +0.000 C 
BRANCH  33  34
ATOM     34  C   UNL     1      -3.629  11.379  17.723  0.00  0.00    +0.000 A 
ATOM     35  C   UNL     1      -4.357  11.432  16.545  0.00  0.00    +0.000 A 
ATOM     36  N   UNL     1      -4.007  10.720  15.448  0.00  0.00    +0.000 NA
ATOM     37  C   UNL     1      -2.889   9.971  15.585  0.00  0.00    +0.000 A 
ATOM     38  C   UNL     1      -2.126   9.974  16.744  0.00  0.00    +0.000 A 
ATOM     39  N   UNL     1      -2.480  10.675  17.847  0.00  0.00    +0.000 NA
ENDBRANCH  33  34
ENDBRANCH  29  32
ENDBRANCH  21  23
ENDBRANCH   2  21
TORSDOF 6
ENDMDL
MODEL 6
REMARK VINA RESULT:      -6.9      6.502     10.650
REMARK  Name = 
REMARK  7 active torsions:
REMARK  status: ('A' for Active; 'I' for Inactive)
REMARK    1  A    between atoms: C_1  and  C_2
REMARK    2  A    between atoms: C_2  and  N_3
REMARK    3  A    between atoms: C_2  and  C_19
REMARK    4  A    between atoms: N_3  and  C_4
REMARK    5  A    between atoms: C_10  and  C_11
REMARK    6  A    between atoms: C_12  and  C_13
REMARK    7  A    between atoms: N_30  and  C_31
REMARK                            x       y       z     vdW  Elec       q    Type
REMARK                         _______ _______ _______ _____ _____    ______ ____
ROOT
ATOM      1  C   UNL     1      -1.719  13.725  23.182  0.00  0.00    +0.000 C 
ATOM      2  C   UNL     1      -1.269  14.444  21.895  0.00  0.00    +0.000 C 
ENDROOT
BRANCH   2   3
ATOM      3  C   UNL     1      -1.179  13.352  20.789  0.00  0.00    +0.000 A 
ATOM      4  N   UNL     1      -2.245  12.846  20.229  0.00  0.00    +0.000 NA
ATOM      5  C   UNL     1      -2.054  11.789  19.309  0.00  0.00    +0.000 A 
ATOM      6  C   UNL     1      -3.084  11.447  18.430  0.00  0.00    +0.000 A 
ATOM      7  C   UNL     1      -2.874  10.509  17.413  0.00  0.00    +0.000 A 
ATOM      8  C   UNL     1      -1.633   9.889  17.277  0.00  0.00    +0.000 A 
ATOM      9  C   UNL     1      -0.613  10.166  18.188  0.00  0.00    +0.000 A 
ATOM     10 CL   UNL     1       0.916   9.414  17.905  0.00  0.00    +0.000 Cl
ATOM     11  C   UNL     1      -0.842  11.094  19.212  0.00  0.00    +0.000 A 
ATOM     12  C   UNL     1       0.181  11.490  20.190  0.00  0.00    +0.000 A 
ATOM     13  O   UNL     1       1.015  10.696  20.611  0.00  0.00    +0.000 OA
ATOM     14  N   UNL     1       0.087  12.817  20.599  0.00  0.00    +0.000 N 
BRANCH  14  15
ATOM     15  C   UNL     1       1.164  13.612  20.104  0.00  0.00    +0.000 A 
ATOM     16  C   UNL     1       1.292  13.850  18.731  0.00  0.00    +0.000 A 
ATOM     17  C   UNL     1       2.537  14.219  18.221  0.00  0.00    +0.000 A 
ATOM     18  C   UNL     1       3.591  14.398  19.104  0.00  0.00    +0.000 A 
ATOM     19  N   UNL     1       3.478  14.274  20.441  0.00  0.00    +0.000 NA
ATOM     20  C   UNL     1       2.275  13.868  20.909  0.00  0.00    +0.000 A 
ENDBRANCH  14  15
ENDBRANCH   2   3
BRANCH   2  21
ATOM     21  N   UNL     1      -2.196  15.559  21.551  0.00  0.00    +0.000 N 
ATOM     22  H   UNL     1      -2.763  15.308  20.745  0.00  0.00    +0.000 HD
BRANCH  21  23
ATOM     23  C   UNL     1      -3.048  15.922  22.640  0.00  0.00    +0.000 A 
ATOM     24  N   UNL     1      -2.597  16.835  23.522  0.00  0.00    +0.000 NA
ATOM     25  C   UNL     1      -3.355  17.095  24.597  0.00  0.00    +0.000 A 
ATOM     26  N   UNL     1      -4.522  16.523  24.897  0.00  0.00    +0.000 NA
ATOM     27  C   UNL     1      -4.998  15.667  23.987  0.00  0.00    +0.000 A 
ATOM     28  N   UNL     1      -6.176  15.014  24.366  0.00  0.00    +0.000 N 
ATOM     29  C   UNL     1      -4.325  15.370  22.800  0.00  0.00    +0.000 A 
ATOM     30  H   UNL     1      -6.488  15.418  25.245  0.00  0.00    +0.000 HD
ATOM     31  H   UNL     1      -6.891  15.043  23.650  0.00  0.00    +0.000 HD
BRANCH  29  32
ATOM     32  C   UNL     1      -4.947  14.532  21.814  0.00  0.00    +0.000 C 
ATOM     33  C   UNL     1      -5.491  13.819  21.019  0.00  0.00    +0.000 C 
BRANCH  33  34
ATOM     34  C   UNL     1      -6.137  13.075  19.990  0.00  0.00    +0.000 A 
ATOM     35  C   UNL     1      -6.433  11.734  20.174  0.00  0.00    +0.000 A 
ATOM     36  N   UNL     1      -6.796  10.928  19.150  0.00  0.00    +0.000 NA
ATOM     37  C   UNL     1      -6.864  11.534  17.942  0.00  0.00    +0.000 A 
ATOM     38  C   UNL     1      -6.633  12.892  17.774  0.00  0.00    +0.000 A 
ATOM     39  N   UNL     1      -6.257  13.697  18.795  0.00  0.00    +0.000 NA
ENDBRANCH  33  34
ENDBRANCH  29  32
ENDBRANCH  21  23
ENDBRANCH   2  21
TORSDOF 6
ENDMDL
MODEL 7
REMARK VINA RESULT:      -6.8      6.467     10.870
REMARK  Name = 
REMARK  7 active torsions:
REMARK  status: ('A' for Active; 'I' for Inactive)
REMARK    1  A    between atoms: C_1  and  C_2
REMARK    2  A    between atoms: C_2  and  N_3
REMARK    3  A    between atoms: C_2  and  C_19
REMARK    4  A    between atoms: N_3  and  C_4
REMARK    5  A    between atoms: C_10  and  C_11
REMARK    6  A    between atoms: C_12  and  C_13
REMARK    7  A    between atoms: N_30  and  C_31
REMARK                            x       y       z     vdW  Elec       q    Type
REMARK                         _______ _______ _______ _____ _____    ______ ____
ROOT
ATOM      1  C   UNL     1      -0.642  10.747  22.541  0.00  0.00    +0.000 C 
ATOM      2  C   UNL     1      -0.504  12.106  21.827  0.00  0.00    +0.000 C 
ENDROOT
BRANCH   2   3
ATOM      3  C   UNL     1      -1.395  12.027  20.554  0.00  0.00    +0.000 A 
ATOM      4  N   UNL     1      -2.698  12.080  20.617  0.00  0.00    +0.000 NA
ATOM      5  C   UNL     1      -3.415  11.897  19.410  0.00  0.00    +0.000 A 
ATOM      6  C   UNL     1      -4.755  12.283  19.341  0.00  0.00    +0.000 A 
ATOM      7  C   UNL     1      -5.445  12.252  18.123  0.00  0.00    +0.000 A 
ATOM      8  C   UNL     1      -4.803  11.816  16.965  0.00  0.00    +0.000 A 
ATOM      9  C   UNL     1      -3.486  11.361  17.028  0.00  0.00    +0.000 A 
ATOM     10 CL   UNL     1      -2.740  10.910  15.537  0.00  0.00    +0.000 Cl
ATOM     11  C   UNL     1      -2.812  11.381  18.256  0.00  0.00    +0.000 A 
ATOM     12  C   UNL     1      -1.411  10.970  18.418  0.00  0.00    +0.000 A 
ATOM     13  O   UNL     1      -0.926  10.054  17.763  0.00  0.00    +0.000 OA
ATOM     14  N   UNL     1      -0.720  11.689  19.390  0.00  0.00    +0.000 N 
BRANCH  14  15
ATOM     15  C   UNL     1       0.265  12.553  18.823  0.00  0.00    +0.000 A 
ATOM     16  C   UNL     1       1.587  12.117  18.680  0.00  0.00    +0.000 A 
ATOM     17  C   UNL     1       2.603  13.066  18.562  0.00  0.00    +0.000 A 
ATOM     18  C   UNL     1       2.260  14.409  18.528  0.00  0.00    +0.000 A 
ATOM     19  N   UNL     1       0.989  14.858  18.564  0.00  0.00    +0.000 NA
ATOM     20  C   UNL     1       0.024  13.924  18.728  0.00  0.00    +0.000 A 
ENDBRANCH  14  15
ENDBRANCH   2   3
BRANCH   2  21
ATOM     21  N   UNL     1      -0.871  13.229  22.736  0.00  0.00    +0.000 N 
ATOM     22  H   UNL     1      -0.673  12.979  23.702  0.00  0.00    +0.000 HD
BRANCH  21  23
ATOM     23  C   UNL     1      -0.194  14.445  22.410  0.00  0.00    +0.000 A 
ATOM     24  N   UNL     1       1.137  14.395  22.206  0.00  0.00    +0.000 NA
ATOM     25  C   UNL     1       1.783  15.553  22.003  0.00  0.00    +0.000 A 
ATOM     26  N   UNL     1       1.239  16.771  21.999  0.00  0.00    +0.000 NA
ATOM     27  C   UNL     1      -0.090  16.811  22.136  0.00  0.00    +0.000 A 
ATOM     28  N   UNL     1      -0.626  18.101  22.219  0.00  0.00    +0.000 N 
ATOM     29  C   UNL     1      -0.873  15.664  22.288  0.00  0.00    +0.000 A 
ATOM     30  H   UNL     1       0.127  18.763  22.051  0.00  0.00    +0.000 HD
ATOM     31  H   UNL     1      -1.413  18.242  21.599  0.00  0.00    +0.000 HD
BRANCH  29  32
ATOM     32  C   UNL     1      -2.304  15.771  22.313  0.00  0.00    +0.000 C 
ATOM     33  C   UNL     1      -3.497  15.890  22.308  0.00  0.00    +0.000 C 
BRANCH  33  34
ATOM     34  C   UNL     1      -4.921  15.897  22.295  0.00  0.00    +0.000 A 
ATOM     35  C   UNL     1      -5.627  16.566  23.283  0.00  0.00    +0.000 A 
ATOM     36  N   UNL     1      -6.955  16.386  23.468  0.00  0.00    +0.000 NA
ATOM     37  C   UNL     1      -7.540  15.520  22.608  0.00  0.00    +0.000 A 
ATOM     38  C   UNL     1      -6.842  14.905  21.579  0.00  0.00    +0.000 A 
ATOM     39  N   UNL     1      -5.511  15.074  21.399  0.00  0.00    +0.000 NA
ENDBRANCH  33  34
ENDBRANCH  29  32
ENDBRANCH  21  23
ENDBRANCH   2  21
TORSDOF 6
ENDMDL
MODEL 8
REMARK VINA RESULT:      -6.7      3.640      8.223
REMARK  Name = 
REMARK  7 active torsions:
REMARK  status: ('A' for Active; 'I' for Inactive)
REMARK    1  A    between atoms: C_1  and  C_2
REMARK    2  A    between atoms: C_2  and  N_3
REMARK    3  A    between atoms: C_2  and  C_19
REMARK    4  A    between atoms: N_3  and  C_4
REMARK    5  A    between atoms: C_10  and  C_11
REMARK    6  A    between atoms: C_12  and  C_13
REMARK    7  A    between atoms: N_30  and  C_31
REMARK                            x       y       z     vdW  Elec       q    Type
REMARK                         _______ _______ _______ _____ _____    ______ ____
ROOT
ATOM      1  C   UNL     1       0.940   8.734  17.740  0.00  0.00    +0.000 C 
ATOM      2  C   UNL     1       1.508   8.053  19.000  0.00  0.00    +0.000 C 
ENDROOT
BRANCH   2   3
ATOM      3  C   UNL     1       2.573   7.032  18.505  0.00  0.00    +0.000 A 
ATOM      4  N   UNL     1       3.699   7.414  17.966  0.00  0.00    +0.000 NA
ATOM      5  C   UNL     1       4.551   6.404  17.458  0.00  0.00    +0.000 A 
ATOM      6  C   UNL     1       5.890   6.702  17.196  0.00  0.00    +0.000 A 
ATOM      7  C   UNL     1       6.790   5.691  16.836  0.00  0.00    +0.000 A 
ATOM      8  C   UNL     1       6.351   4.374  16.716  0.00  0.00    +0.000 A 
ATOM      9  C   UNL     1       5.003   4.068  16.906  0.00  0.00    +0.000 A 
ATOM     10 CL   UNL     1       4.556   2.402  16.813  0.00  0.00    +0.000 Cl
ATOM     11  C   UNL     1       4.110   5.092  17.249  0.00  0.00    +0.000 A 
ATOM     12  C   UNL     1       2.683   4.866  17.517  0.00  0.00    +0.000 A 
ATOM     13  O   UNL     1       2.036   4.021  16.907  0.00  0.00    +0.000 OA
ATOM     14  N   UNL     1       2.150   5.710  18.488  0.00  0.00    +0.000 N 
BRANCH  14  15
ATOM     15  C   UNL     1       1.833   5.014  19.693  0.00  0.00    +0.000 A 
ATOM     16  C   UNL     1       2.705   5.065  20.786  0.00  0.00    +0.000 A 
ATOM     17  C   UNL     1       2.634   4.064  21.755  0.00  0.00    +0.000 A 
ATOM     18  C   UNL     1       1.658   3.086  21.632  0.00  0.00    +0.000 A 
ATOM     19  N   UNL     1       0.741   3.064  20.645  0.00  0.00    +0.000 NA
ATOM     20  C   UNL     1       0.859   4.015  19.691  0.00  0.00    +0.000 A 
ENDBRANCH  14  15
ENDBRANCH   2   3
BRANCH   2  21
ATOM     21  N   UNL     1       2.053   9.059  19.954  0.00  0.00    +0.000 N 
ATOM     22  H   UNL     1       2.399   9.871  19.450  0.00  0.00    +0.000 HD
BRANCH  21  23
ATOM     23  C   UNL     1       1.089   9.475  20.925  0.00  0.00    +0.000 A 
ATOM     24  N   UNL     1       0.645   8.562  21.811  0.00  0.00    +0.000 NA
ATOM     25  C   UNL     1      -0.333   8.930  22.651  0.00  0.00    +0.000 A 
ATOM     26  N   UNL     1      -0.934  10.120  22.692  0.00  0.00    +0.000 NA
ATOM     27  C   UNL     1      -0.445  11.044  21.857  0.00  0.00    +0.000 A 
ATOM     28  N   UNL     1      -1.149  12.253  21.855  0.00  0.00    +0.000 N 
ATOM     29  C   UNL     1       0.615  10.792  20.984  0.00  0.00    +0.000 A 
ATOM     30  H   UNL     1      -1.850  12.208  22.590  0.00  0.00    +0.000 HD
ATOM     31  H   UNL     1      -0.545  13.061  21.942  0.00  0.00    +0.000 HD
BRANCH  29  32
ATOM     32  C   UNL     1       1.166  11.860  20.199  0.00  0.00    +0.000 C 
ATOM     33  C   UNL     1       1.593  12.751  19.520  0.00  0.00    +0.000 C 
BRANCH  33  34
ATOM     34  C   UNL     1       2.135  13.872  18.827  0.00  0.00    +0.000 A 
ATOM     35  C   UNL     1       3.416  13.819  18.303  0.00  0.00    +0.000 A 
ATOM     36  N   UNL     1       4.067  14.927  17.877  0.00  0.00    +0.000 NA
ATOM     37  C   UNL     1       3.367  16.079  17.987  0.00  0.00    +0.000 A 
ATOM     38  C   UNL     1       2.060  16.117  18.450  0.00  0.00    +0.000 A 
ATOM     39  N   UNL     1       1.411  15.013  18.888  0.00  0.00    +0.000 NA
ENDBRANCH  33  34
ENDBRANCH  29  32
ENDBRANCH  21  23
ENDBRANCH   2  21
TORSDOF 6
ENDMDL
MODEL 9
REMARK VINA RESULT:      -6.6      5.307      8.454
REMARK  Name = 
REMARK  7 active torsions:
REMARK  status: ('A' for Active; 'I' for Inactive)
REMARK    1  A    between atoms: C_1  and  C_2
REMARK    2  A    between atoms: C_2  and  N_3
REMARK    3  A    between atoms: C_2  and  C_19
REMARK    4  A    between atoms: N_3  and  C_4
REMARK    5  A    between atoms: C_10  and  C_11
REMARK    6  A    between atoms: C_12  and  C_13
REMARK    7  A    between atoms: N_30  and  C_31
REMARK                            x       y       z     vdW  Elec       q    Type
REMARK                         _______ _______ _______ _____ _____    ______ ____
ROOT
ATOM      1  C   UNL     1      -0.375  13.368  21.556  0.00  0.00    +0.000 C 
ATOM      2  C   UNL     1      -1.175  12.749  22.719  0.00  0.00    +0.000 C 
ENDROOT
BRANCH   2   3
ATOM      3  C   UNL     1      -2.330  13.744  23.036  0.00  0.00    +0.000 A 
ATOM      4  N   UNL     1      -3.585  13.394  22.958  0.00  0.00    +0.000 NA
ATOM      5  C   UNL     1      -4.554  14.404  23.168  0.00  0.00    +0.000 A 
ATOM      6  C   UNL     1      -5.875  14.042  23.444  0.00  0.00    +0.000 A 
ATOM      7  C   UNL     1      -6.821  15.010  23.802  0.00  0.00    +0.000 A 
ATOM      8  C   UNL     1      -6.456  16.354  23.869  0.00  0.00    +0.000 A 
ATOM      9  C   UNL     1      -5.160  16.742  23.531  0.00  0.00    +0.000 A 
ATOM     10 CL   UNL     1      -4.769  18.414  23.714  0.00  0.00    +0.000 Cl
ATOM     11  C   UNL     1      -4.227  15.765  23.157  0.00  0.00    +0.000 A 
ATOM     12  C   UNL     1      -2.827  16.066  22.830  0.00  0.00    +0.000 A 
ATOM     13  O   UNL     1      -2.504  17.100  22.257  0.00  0.00    +0.000 OA
ATOM     14  N   UNL     1      -1.933  15.064  23.200  0.00  0.00    +0.000 N 
BRANCH  14  15
ATOM     15  C   UNL     1      -1.098  15.461  24.288  0.00  0.00    +0.000 A 
ATOM     16  C   UNL     1      -1.599  15.469  25.594  0.00  0.00    +0.000 A 
ATOM     17  C   UNL     1      -0.966  16.257  26.556  0.00  0.00    +0.000 A 
ATOM     18  C   UNL     1       0.175  16.957  26.198  0.00  0.00    +0.000 A 
ATOM     19  N   UNL     1       0.740  16.894  24.975  0.00  0.00    +0.000 NA
ATOM     20  C   UNL     1       0.083  16.163  24.045  0.00  0.00    +0.000 A 
ENDBRANCH  14  15
ENDBRANCH   2   3
BRANCH   2  21
ATOM     21  N   UNL     1      -1.653  11.381  22.374  0.00  0.00    +0.000 N 
ATOM     22  H   UNL     1      -2.207  11.406  21.521  0.00  0.00    +0.000 HD
BRANCH  21  23
ATOM     23  C   UNL     1      -0.582  10.447  22.218  0.00  0.00    +0.000 A 
ATOM     24  N   UNL     1       0.086  10.058  23.322  0.00  0.00    +0.000 NA
ATOM     25  C   UNL     1       1.154   9.264  23.159  0.00  0.00    +0.000 A 
ATOM     26  N   UNL     1       1.642   8.823  21.998  0.00  0.00    +0.000 NA
ATOM     27  C   UNL     1       0.938   9.156  20.911  0.00  0.00    +0.000 A 
ATOM     28  N   UNL     1       1.518   8.760  19.701  0.00  0.00    +0.000 N 
ATOM     29  C   UNL     1      -0.227   9.925  20.968  0.00  0.00    +0.000 A 
ATOM     30  H   UNL     1       2.334   8.193  19.916  0.00  0.00    +0.000 HD
ATOM     31  H   UNL     1       0.866   8.287  19.088  0.00  0.00    +0.000 HD
BRANCH  29  32
ATOM     32  C   UNL     1      -0.997  10.148  19.777  0.00  0.00    +0.000 C 
ATOM     33  C   UNL     1      -1.669  10.349  18.805  0.00  0.00    +0.000 C 
BRANCH  33  34
ATOM     34  C   UNL     1      -2.358  10.636  17.592  0.00  0.00    +0.000 A 
ATOM     35  C   UNL     1      -3.470  11.463  17.596  0.00  0.00    +0.000 A 
ATOM     36  N   UNL     1      -4.305  11.553  16.535  0.00  0.00    +0.000 NA
ATOM     37  C   UNL     1      -3.962  10.792  15.470  0.00  0.00    +0.000 A 
ATOM     38  C   UNL     1      -2.811  10.018  15.446  0.00  0.00    +0.000 A 
ATOM     39  N   UNL     1      -1.980   9.917  16.511  0.00  0.00    +0.000 NA
ENDBRANCH  33  34
ENDBRANCH  29  32
ENDBRANCH  21  23
ENDBRANCH   2  21
TORSDOF 6
ENDMDL
