MODEL 1
REMARK VINA RESULT:      -8.2      0.000      0.000
REMARK  Name = 
REMARK  7 active torsions:
REMARK  status: ('A' for Active; 'I' for Inactive)
REMARK    1  A    between atoms: C_1  and  C_2
REMARK    2  A    between atoms: C_2  and  C_3
REMARK    3  A    between atoms: C_3  and  C_4
REMARK    4  A    between atoms: C_4  and  C_5
REMARK    5  A    between atoms: N_9  and  C_10
REMARK    6  A    between atoms: C_14  and  N_15
REMARK    7  A    between atoms: N_15  and  C_16
REMARK                            x       y       z     vdW  Elec       q    Type
REMARK                         _______ _______ _______ _____ _____    ______ ____
ROOT
ATOM      1  C   UNL     1       4.811   4.716  18.224  0.00  0.00    +0.000 C 
ATOM      2  O   UNL     1       5.359   3.766  19.163  0.00  0.00    +0.000 OA
ATOM      3  C   UNL     1       4.526   2.923  19.829  0.00  0.00    +0.000 C 
ATOM      4  O   UNL     1       4.902   1.790  20.112  0.00  0.00    +0.000 OA
ATOM      5  N   UNL     1       3.322   3.468  20.254  0.00  0.00    +0.000 N 
ATOM      6  C   UNL     1       2.586   2.746  21.280  0.00  0.00    +0.000 C 
ATOM      7  C   UNL     1       2.926   4.774  19.878  0.00  0.00    +0.000 A 
ATOM      8  C   UNL     1       1.917   5.457  20.565  0.00  0.00    +0.000 A 
ATOM      9  C   UNL     1       1.623   6.783  20.258  0.00  0.00    +0.000 A 
ATOM     10  C   UNL     1       2.262   7.431  19.201  0.00  0.00    +0.000 A 
ATOM     11  C   UNL     1       3.189   6.711  18.439  0.00  0.00    +0.000 A 
ATOM     12  C   UNL     1       3.591   5.407  18.821  0.00  0.00    +0.000 A 
ENDROOT
BRANCH   1  14
ATOM     13  C   UNL     1       5.289   4.357  15.701  0.00  0.00    +0.000 C 
ATOM     14  C   UNL     1       4.475   3.924  16.928  0.00  0.00    +0.000 C 
ENDBRANCH   1  14
BRANCH   1  15
ATOM     15  C   UNL     1       5.965   5.727  17.948  0.00  0.00    +0.000 C 
ATOM     16  C   UNL     1       7.229   5.521  18.788  0.00  0.00    +0.000 C 
ENDBRANCH   1  15
BRANCH  10  17
ATOM     17  N   UNL     1       2.095   8.820  19.035  0.00  0.00    +0.000 N 
ATOM     18  H   UNL     1       2.927   9.378  19.185  0.00  0.00    +0.000 HD
BRANCH  17  19
ATOM     19  C   UNL     1       0.885   9.541  19.078  0.00  0.00    +0.000 A 
ATOM     20  C   UNL     1       0.579  10.307  20.217  0.00  0.00    +0.000 A 
ATOM     21  C   UNL     1      -0.561  11.119  20.263  0.00  0.00    +0.000 A 
ATOM     22  C   UNL     1      -1.416  11.169  19.166  0.00  0.00    +0.000 A 
ATOM     23  F   UNL     1      -2.501  11.951  19.216  0.00  0.00    +0.000 F 
ATOM     24  C   UNL     1      -1.134  10.419  18.037  0.00  0.00    +0.000 A 
ATOM     25  F   UNL     1      -1.957  10.470  16.976  0.00  0.00    +0.000 F 
ATOM     26  C   UNL     1       0.000   9.618  17.982  0.00  0.00    +0.000 A 
ENDBRANCH  17  19
ENDBRANCH  10  17
TORSDOF 4
ENDMDL
MODEL 2
REMARK VINA RESULT:      -8.2      1.729      2.280
REMARK  Name = 
REMARK  7 active torsions:
REMARK  status: ('A' for Active; 'I' for Inactive)
REMARK    1  A    between atoms: C_1  and  C_2
REMARK    2  A    between atoms: C_2  and  C_3
REMARK    3  A    between atoms: C_3  and  C_4
REMARK    4  A    between atoms: C_4  and  C_5
REMARK    5  A    between atoms: N_9  and  C_10
REMARK    6  A    between atoms: C_14  and  N_15
REMARK    7  A    between atoms: N_15  and  C_16
REMARK                            x       y       z     vdW  Elec       q    Type
REMARK                         _______ _______ _______ _____ _____    ______ ____
ROOT
ATOM      1  C   UNL     1       4.757   4.636  18.475  0.00  0.00    +0.000 C 
ATOM      2  O   UNL     1       5.363   3.648  19.335  0.00  0.00    +0.000 OA
ATOM      3  C   UNL     1       4.585   2.703  19.925  0.00  0.00    +0.000 C 
ATOM      4  O   UNL     1       5.030   1.576  20.116  0.00  0.00    +0.000 OA
ATOM      5  N   UNL     1       3.349   3.135  20.388  0.00  0.00    +0.000 N 
ATOM      6  C   UNL     1       2.660   2.286  21.348  0.00  0.00    +0.000 C 
ATOM      7  C   UNL     1       2.872   4.440  20.120  0.00  0.00    +0.000 A 
ATOM      8  C   UNL     1       1.823   5.000  20.856  0.00  0.00    +0.000 A 
ATOM      9  C   UNL     1       1.447   6.326  20.657  0.00  0.00    +0.000 A 
ATOM     10  C   UNL     1       2.043   7.098  19.661  0.00  0.00    +0.000 A 
ATOM     11  C   UNL     1       3.014   6.503  18.847  0.00  0.00    +0.000 A 
ATOM     12  C   UNL     1       3.496   5.198  19.121  0.00  0.00    +0.000 A 
ENDROOT
BRANCH   1  14
ATOM     13  C   UNL     1       5.208   4.556  15.923  0.00  0.00    +0.000 C 
ATOM     14  C   UNL     1       4.470   3.935  17.116  0.00  0.00    +0.000 C 
ENDBRANCH   1  14
BRANCH   1  15
ATOM     15  C   UNL     1       5.846   5.736  18.288  0.00  0.00    +0.000 C 
ATOM     16  C   UNL     1       7.086   5.583  19.173  0.00  0.00    +0.000 C 
ENDBRANCH   1  15
BRANCH  10  17
ATOM     17  N   UNL     1       1.791   8.483  19.609  0.00  0.00    +0.000 N 
ATOM     18  H   UNL     1       2.435   9.021  19.042  0.00  0.00    +0.000 HD
BRANCH  17  19
ATOM     19  C   UNL     1       1.032   9.241  20.523  0.00  0.00    +0.000 A 
ATOM     20  C   UNL     1       0.187  10.257  20.042  0.00  0.00    +0.000 A 
ATOM     21  C   UNL     1      -0.661  10.966  20.901  0.00  0.00    +0.000 A 
ATOM     22  C   UNL     1      -0.668  10.670  22.261  0.00  0.00    +0.000 A 
ATOM     23  F   UNL     1      -1.485  11.349  23.076  0.00  0.00    +0.000 F 
ATOM     24  C   UNL     1       0.159   9.676  22.755  0.00  0.00    +0.000 A 
ATOM     25  F   UNL     1       0.151   9.386  24.068  0.00  0.00    +0.000 F 
ATOM     26  C   UNL     1       0.997   8.963  21.906  0.00  0.00    +0.000 A 
ENDBRANCH  17  19
ENDBRANCH  10  17
TORSDOF 4
ENDMDL
MODEL 3
REMARK VINA RESULT:      -8.2      0.561      1.348
REMARK  Name = 
REMARK  7 active torsions:
REMARK  status: ('A' for Active; 'I' for Inactive)
REMARK    1  A    between atoms: C_1  and  C_2
REMARK    2  A    between atoms: C_2  and  C_3
REMARK    3  A    between atoms: C_3  and  C_4
REMARK    4  A    between atoms: C_4  and  C_5
REMARK    5  A    between atoms: N_9  and  C_10
REMARK    6  A    between atoms: C_14  and  N_15
REMARK    7  A    between atoms: N_15  and  C_16
REMARK                            x       y       z     vdW  Elec       q    Type
REMARK                         _______ _______ _______ _____ _____    ______ ____
ROOT
ATOM      1  C   UNL     1       4.827   4.696  18.180  0.00  0.00    +0.000 C 
ATOM      2  O   UNL     1       5.357   3.766  19.148  0.00  0.00    +0.000 OA
ATOM      3  C   UNL     1       4.509   2.956  19.834  0.00  0.00    +0.000 C 
ATOM      4  O   UNL     1       4.866   1.826  20.153  0.00  0.00    +0.000 OA
ATOM      5  N   UNL     1       3.312   3.531  20.239  0.00  0.00    +0.000 N 
ATOM      6  C   UNL     1       2.561   2.851  21.283  0.00  0.00    +0.000 C 
ATOM      7  C   UNL     1       2.937   4.832  19.824  0.00  0.00    +0.000 A 
ATOM      8  C   UNL     1       1.936   5.550  20.486  0.00  0.00    +0.000 A 
ATOM      9  C   UNL     1       1.664   6.871  20.139  0.00  0.00    +0.000 A 
ATOM     10  C   UNL     1       2.316   7.478  19.067  0.00  0.00    +0.000 A 
ATOM     11  C   UNL     1       3.236   6.722  18.330  0.00  0.00    +0.000 A 
ATOM     12  C   UNL     1       3.615   5.423  18.751  0.00  0.00    +0.000 A 
ENDROOT
BRANCH   1  14
ATOM     13  C   UNL     1       5.255   4.307  15.652  0.00  0.00    +0.000 C 
ATOM     14  C   UNL     1       4.484   3.873  16.906  0.00  0.00    +0.000 C 
ENDBRANCH   1  14
BRANCH   1  15
ATOM     15  C   UNL     1       5.998   5.681  17.879  0.00  0.00    +0.000 C 
ATOM     16  C   UNL     1       7.243   5.501  18.751  0.00  0.00    +0.000 C 
ENDBRANCH   1  15
BRANCH  10  17
ATOM     17  N   UNL     1       2.172   8.864  18.860  0.00  0.00    +0.000 N 
ATOM     18  H   UNL     1       3.027   9.403  18.920  0.00  0.00    +0.000 HD
BRANCH  17  19
ATOM     19  C   UNL     1       0.988   9.619  18.971  0.00  0.00    +0.000 A 
ATOM     20  C   UNL     1       0.085   9.649  17.894  0.00  0.00    +0.000 A 
ATOM     21  C   UNL     1      -1.150  10.301  17.996  0.00  0.00    +0.000 A 
ATOM     22  C   UNL     1      -1.495  10.940  19.184  0.00  0.00    +0.000 A 
ATOM     23  F   UNL     1      -2.680  11.557  19.276  0.00  0.00    +0.000 F 
ATOM     24  C   UNL     1      -0.618  10.925  20.255  0.00  0.00    +0.000 A 
ATOM     25  F   UNL     1      -0.952  11.539  21.403  0.00  0.00    +0.000 F 
ATOM     26  C   UNL     1       0.605  10.273  20.162  0.00  0.00    +0.000 A 
ENDBRANCH  17  19
ENDBRANCH  10  17
TORSDOF 4
ENDMDL
MODEL 4
REMARK VINA RESULT:      -8.1      4.484      7.685
REMARK  Name = 
REMARK  7 active torsions:
REMARK  status: ('A' for Active; 'I' for Inactive)
REMARK    1  A    between atoms: C_1  and  C_2
REMARK    2  A    between atoms: C_2  and  C_3
REMARK    3  A    between atoms: C_3  and  C_4
REMARK    4  A    between atoms: C_4  and  C_5
REMARK    5  A    between atoms: N_9  and  C_10
REMARK    6  A    between atoms: C_14  and  N_15
REMARK    7  A    between atoms: N_15  and  C_16
REMARK                            x       y       z     vdW  Elec       q    Type
REMARK                         _______ _______ _______ _____ _____    ______ ____
ROOT
ATOM      1  C   UNL     1       2.371   4.319  19.852  0.00  0.00    +0.000 C 
ATOM      2  O   UNL     1       2.200   5.358  20.840  0.00  0.00    +0.000 OA
ATOM      3  C   UNL     1       1.752   6.582  20.455  0.00  0.00    +0.000 C 
ATOM      4  O   UNL     1       1.040   7.237  21.210  0.00  0.00    +0.000 OA
ATOM      5  N   UNL     1       2.249   7.060  19.250  0.00  0.00    +0.000 N 
ATOM      6  C   UNL     1       2.115   8.485  18.990  0.00  0.00    +0.000 C 
ATOM      7  C   UNL     1       3.047   6.253  18.405  0.00  0.00    +0.000 A 
ATOM      8  C   UNL     1       3.832   6.811  17.391  0.00  0.00    +0.000 A 
ATOM      9  C   UNL     1       4.701   6.015  16.649  0.00  0.00    +0.000 A 
ATOM     10  C   UNL     1       4.743   4.634  16.835  0.00  0.00    +0.000 A 
ATOM     11  C   UNL     1       3.874   4.061  17.770  0.00  0.00    +0.000 A 
ATOM     12  C   UNL     1       3.080   4.870  18.621  0.00  0.00    +0.000 A 
ENDROOT
BRANCH   1  14
ATOM     13  C   UNL     1       0.957   2.503  18.659  0.00  0.00    +0.000 C 
ATOM     14  C   UNL     1       0.953   3.767  19.528  0.00  0.00    +0.000 C 
ENDBRANCH   1  14
BRANCH   1  15
ATOM     15  C   UNL     1       3.222   3.221  20.561  0.00  0.00    +0.000 C 
ATOM     16  C   UNL     1       2.552   2.552  21.765  0.00  0.00    +0.000 C 
ENDBRANCH   1  15
BRANCH  10  17
ATOM     17  N   UNL     1       5.761   3.880  16.219  0.00  0.00    +0.000 N 
ATOM     18  H   UNL     1       6.377   3.385  16.853  0.00  0.00    +0.000 HD
BRANCH  17  19
ATOM     19  C   UNL     1       6.260   4.037  14.911  0.00  0.00    +0.000 A 
ATOM     20  C   UNL     1       5.576   3.443  13.836  0.00  0.00    +0.000 A 
ATOM     21  C   UNL     1       5.975   3.656  12.511  0.00  0.00    +0.000 A 
ATOM     22  C   UNL     1       7.075   4.467  12.246  0.00  0.00    +0.000 A 
ATOM     23  F   UNL     1       7.448   4.670  10.976  0.00  0.00    +0.000 F 
ATOM     24  C   UNL     1       7.764   5.058  13.290  0.00  0.00    +0.000 A 
ATOM     25  F   UNL     1       8.824   5.844  13.034  0.00  0.00    +0.000 F 
ATOM     26  C   UNL     1       7.367   4.857  14.607  0.00  0.00    +0.000 A 
ENDBRANCH  17  19
ENDBRANCH  10  17
TORSDOF 4
ENDMDL
MODEL 5
REMARK VINA RESULT:      -7.8      4.388      7.599
REMARK  Name = 
REMARK  7 active torsions:
REMARK  status: ('A' for Active; 'I' for Inactive)
REMARK    1  A    between atoms: C_1  and  C_2
REMARK    2  A    between atoms: C_2  and  C_3
REMARK    3  A    between atoms: C_3  and  C_4
REMARK    4  A    between atoms: C_4  and  C_5
REMARK    5  A    between atoms: N_9  and  C_10
REMARK    6  A    between atoms: C_14  and  N_15
REMARK    7  A    between atoms: N_15  and  C_16
REMARK                            x       y       z     vdW  Elec       q    Type
REMARK                         _______ _______ _______ _____ _____    ______ ____
ROOT
ATOM      1  C   UNL     1       2.265   4.397  19.832  0.00  0.00    +0.000 C 
ATOM      2  O   UNL     1       2.055   5.377  20.871  0.00  0.00    +0.000 OA
ATOM      3  C   UNL     1       1.599   6.615  20.543  0.00  0.00    +0.000 C 
ATOM      4  O   UNL     1       0.861   7.219  21.315  0.00  0.00    +0.000 OA
ATOM      5  N   UNL     1       2.118   7.166  19.379  0.00  0.00    +0.000 N 
ATOM      6  C   UNL     1       1.970   8.601  19.194  0.00  0.00    +0.000 C 
ATOM      7  C   UNL     1       2.948   6.417  18.510  0.00  0.00    +0.000 A 
ATOM      8  C   UNL     1       3.748   7.040  17.548  0.00  0.00    +0.000 A 
ATOM      9  C   UNL     1       4.646   6.298  16.784  0.00  0.00    +0.000 A 
ATOM     10  C   UNL     1       4.702   4.909  16.895  0.00  0.00    +0.000 A 
ATOM     11  C   UNL     1       3.820   4.274  17.776  0.00  0.00    +0.000 A 
ATOM     12  C   UNL     1       2.995   5.025  18.650  0.00  0.00    +0.000 A 
ENDROOT
BRANCH   1  14
ATOM     13  C   UNL     1       0.903   2.523  18.668  0.00  0.00    +0.000 C 
ATOM     14  C   UNL     1       0.863   3.846  19.444  0.00  0.00    +0.000 C 
ENDBRANCH   1  14
BRANCH   1  15
ATOM     15  C   UNL     1       3.113   3.272  20.500  0.00  0.00    +0.000 C 
ATOM     16  C   UNL     1       2.508   2.662  21.767  0.00  0.00    +0.000 C 
ENDBRANCH   1  15
BRANCH  10  17
ATOM     17  N   UNL     1       5.746   4.203  16.264  0.00  0.00    +0.000 N 
ATOM     18  H   UNL     1       6.461   3.842  16.883  0.00  0.00    +0.000 HD
BRANCH  17  19
ATOM     19  C   UNL     1       6.118   4.274  14.907  0.00  0.00    +0.000 A 
ATOM     20  C   UNL     1       7.251   5.022  14.541  0.00  0.00    +0.000 A 
ATOM     21  C   UNL     1       7.719   5.037  13.221  0.00  0.00    +0.000 A 
ATOM     22  C   UNL     1       7.049   4.304  12.246  0.00  0.00    +0.000 A 
ATOM     23  F   UNL     1       7.504   4.320  10.986  0.00  0.00    +0.000 F 
ATOM     24  C   UNL     1       5.929   3.565  12.585  0.00  0.00    +0.000 A 
ATOM     25  F   UNL     1       5.284   2.854  11.644  0.00  0.00    +0.000 F 
ATOM     26  C   UNL     1       5.466   3.539  13.895  0.00  0.00    +0.000 A 
ENDBRANCH  17  19
ENDBRANCH  10  17
TORSDOF 4
ENDMDL
MODEL 6
REMARK VINA RESULT:      -7.8      4.336      7.787
REMARK  Name = 
REMARK  7 active torsions:
REMARK  status: ('A' for Active; 'I' for Inactive)
REMARK    1  A    between atoms: C_1  and  C_2
REMARK    2  A    between atoms: C_2  and  C_3
REMARK    3  A    between atoms: C_3  and  C_4
REMARK    4  A    between atoms: C_4  and  C_5
REMARK    5  A    between atoms: N_9  and  C_10
REMARK    6  A    between atoms: C_14  and  N_15
REMARK    7  A    between atoms: N_15  and  C_16
REMARK                            x       y       z     vdW  Elec       q    Type
REMARK                         _______ _______ _______ _____ _____    ______ ____
ROOT
ATOM      1  C   UNL     1      -0.098  10.723  19.016  0.00  0.00    +0.000 C 
ATOM      2  O   UNL     1      -1.156  10.870  19.986  0.00  0.00    +0.000 OA
ATOM      3  C   UNL     1      -0.860  10.838  21.313  0.00  0.00    +0.000 C 
ATOM      4  O   UNL     1      -1.506  11.523  22.100  0.00  0.00    +0.000 OA
ATOM      5  N   UNL     1       0.100   9.913  21.699  0.00  0.00    +0.000 N 
ATOM      6  C   UNL     1       0.170   9.571  23.112  0.00  0.00    +0.000 C 
ATOM      7  C   UNL     1       0.834   9.165  20.748  0.00  0.00    +0.000 A 
ATOM      8  C   UNL     1       1.529   8.006  21.109  0.00  0.00    +0.000 A 
ATOM      9  C   UNL     1       2.146   7.219  20.140  0.00  0.00    +0.000 A 
ATOM     10  C   UNL     1       2.163   7.613  18.802  0.00  0.00    +0.000 A 
ATOM     11  C   UNL     1       1.566   8.831  18.457  0.00  0.00    +0.000 A 
ATOM     12  C   UNL     1       0.826   9.576  19.409  0.00  0.00    +0.000 A 
ENDROOT
BRANCH   1  14
ATOM     13  C   UNL     1      -0.227  13.251  18.451  0.00  0.00    +0.000 C 
ATOM     14  C   UNL     1       0.644  12.089  18.948  0.00  0.00    +0.000 C 
ENDBRANCH   1  14
BRANCH   1  15
ATOM     15  C   UNL     1      -0.821  10.441  17.664  0.00  0.00    +0.000 C 
ATOM     16  C   UNL     1      -2.294  10.039  17.784  0.00  0.00    +0.000 C 
ENDBRANCH   1  15
BRANCH  10  17
ATOM     17  N   UNL     1       2.615   6.712  17.818  0.00  0.00    +0.000 N 
ATOM     18  H   UNL     1       2.593   7.061  16.867  0.00  0.00    +0.000 HD
BRANCH  17  19
ATOM     19  C   UNL     1       2.714   5.311  17.932  0.00  0.00    +0.000 A 
ATOM     20  C   UNL     1       3.984   4.714  18.020  0.00  0.00    +0.000 A 
ATOM     21  C   UNL     1       4.129   3.339  18.237  0.00  0.00    +0.000 A 
ATOM     22  C   UNL     1       2.997   2.539  18.363  0.00  0.00    +0.000 A 
ATOM     23  F   UNL     1       3.144   1.225  18.575  0.00  0.00    +0.000 F 
ATOM     24  C   UNL     1       1.738   3.106  18.275  0.00  0.00    +0.000 A 
ATOM     25  F   UNL     1       0.644   2.335  18.401  0.00  0.00    +0.000 F 
ATOM     26  C   UNL     1       1.588   4.472  18.069  0.00  0.00    +0.000 A 
ENDBRANCH  17  19
ENDBRANCH  10  17
TORSDOF 4
ENDMDL
MODEL 7
REMARK VINA RESULT:      -7.7      1.368      1.848
REMARK  Name = 
REMARK  7 active torsions:
REMARK  status: ('A' for Active; 'I' for Inactive)
REMARK    1  A    between atoms: C_1  and  C_2
REMARK    2  A    between atoms: C_2  and  C_3
REMARK    3  A    between atoms: C_3  and  C_4
REMARK    4  A    between atoms: C_4  and  C_5
REMARK    5  A    between atoms: N_9  and  C_10
REMARK    6  A    between atoms: C_14  and  N_15
REMARK    7  A    between atoms: N_15  and  C_16
REMARK                            x       y       z     vdW  Elec       q    Type
REMARK                         _______ _______ _______ _____ _____    ______ ____
ROOT
ATOM      1  C   UNL     1       4.737   4.530  18.568  0.00  0.00    +0.000 C 
ATOM      2  O   UNL     1       5.345   3.536  19.419  0.00  0.00    +0.000 OA
ATOM      3  C   UNL     1       4.567   2.592  20.012  0.00  0.00    +0.000 C 
ATOM      4  O   UNL     1       5.009   1.463  20.195  0.00  0.00    +0.000 OA
ATOM      5  N   UNL     1       3.338   3.029  20.487  0.00  0.00    +0.000 N 
ATOM      6  C   UNL     1       2.652   2.180  21.449  0.00  0.00    +0.000 C 
ATOM      7  C   UNL     1       2.865   4.338  20.227  0.00  0.00    +0.000 A 
ATOM      8  C   UNL     1       1.824   4.900  20.973  0.00  0.00    +0.000 A 
ATOM      9  C   UNL     1       1.454   6.229  20.783  0.00  0.00    +0.000 A 
ATOM     10  C   UNL     1       2.046   7.001  19.784  0.00  0.00    +0.000 A 
ATOM     11  C   UNL     1       3.006   6.404  18.960  0.00  0.00    +0.000 A 
ATOM     12  C   UNL     1       3.484   5.096  19.226  0.00  0.00    +0.000 A 
ENDROOT
BRANCH   1  14
ATOM     13  C   UNL     1       2.953   3.508  16.988  0.00  0.00    +0.000 C 
ATOM     14  C   UNL     1       4.436   3.835  17.209  0.00  0.00    +0.000 C 
ENDBRANCH   1  14
BRANCH   1  15
ATOM     15  C   UNL     1       5.830   5.625  18.376  0.00  0.00    +0.000 C 
ATOM     16  C   UNL     1       7.244   5.098  18.118  0.00  0.00    +0.000 C 
ENDBRANCH   1  15
BRANCH  10  17
ATOM     17  N   UNL     1       1.799   8.387  19.740  0.00  0.00    +0.000 N 
ATOM     18  H   UNL     1       2.508   8.939  19.271  0.00  0.00    +0.000 HD
BRANCH  17  19
ATOM     19  C   UNL     1       0.932   9.122  20.573  0.00  0.00    +0.000 A 
ATOM     20  C   UNL     1       1.013   8.959  21.967  0.00  0.00    +0.000 A 
ATOM     21  C   UNL     1       0.245   9.741  22.838  0.00  0.00    +0.000 A 
ATOM     22  C   UNL     1      -0.623  10.697  22.319  0.00  0.00    +0.000 A 
ATOM     23  F   UNL     1      -1.351  11.445  23.158  0.00  0.00    +0.000 F 
ATOM     24  C   UNL     1      -0.720  10.871  20.950  0.00  0.00    +0.000 A 
ATOM     25  F   UNL     1      -1.556  11.797  20.448  0.00  0.00    +0.000 F 
ATOM     26  C   UNL     1       0.046  10.103  20.081  0.00  0.00    +0.000 A 
ENDBRANCH  17  19
ENDBRANCH  10  17
TORSDOF 4
ENDMDL
MODEL 8
REMARK VINA RESULT:      -7.6      0.992      1.029
REMARK  Name = 
REMARK  7 active torsions:
REMARK  status: ('A' for Active; 'I' for Inactive)
REMARK    1  A    between atoms: C_1  and  C_2
REMARK    2  A    between atoms: C_2  and  C_3
REMARK    3  A    between atoms: C_3  and  C_4
REMARK    4  A    between atoms: C_4  and  C_5
REMARK    5  A    between atoms: N_9  and  C_10
REMARK    6  A    between atoms: C_14  and  N_15
REMARK    7  A    between atoms: N_15  and  C_16
REMARK                            x       y       z     vdW  Elec       q    Type
REMARK                         _______ _______ _______ _____ _____    ______ ____
ROOT
ATOM      1  C   UNL     1       4.978   5.540  17.631  0.00  0.00    +0.000 C 
ATOM      2  O   UNL     1       5.600   4.672  18.603  0.00  0.00    +0.000 OA
ATOM      3  C   UNL     1       4.830   3.825  19.336  0.00  0.00    +0.000 C 
ATOM      4  O   UNL     1       5.272   2.730  19.668  0.00  0.00    +0.000 OA
ATOM      5  N   UNL     1       3.611   4.331  19.768  0.00  0.00    +0.000 N 
ATOM      6  C   UNL     1       2.942   3.630  20.852  0.00  0.00    +0.000 C 
ATOM      7  C   UNL     1       3.137   5.593  19.335  0.00  0.00    +0.000 A 
ATOM      8  C   UNL     1       2.113   6.260  20.015  0.00  0.00    +0.000 A 
ATOM      9  C   UNL     1       1.743   7.551  19.646  0.00  0.00    +0.000 A 
ATOM     10  C   UNL     1       2.317   8.173  18.538  0.00  0.00    +0.000 A 
ATOM     11  C   UNL     1       3.261   7.460  17.789  0.00  0.00    +0.000 A 
ATOM     12  C   UNL     1       3.739   6.200  18.227  0.00  0.00    +0.000 A 
ENDROOT
BRANCH   1  14
ATOM     13  C   UNL     1       5.873   3.992  15.754  0.00  0.00    +0.000 C 
ATOM     14  C   UNL     1       4.649   4.663  16.389  0.00  0.00    +0.000 C 
ENDBRANCH   1  14
BRANCH   1  15
ATOM     15  C   UNL     1       6.070   6.592  17.267  0.00  0.00    +0.000 C 
ATOM     16  C   UNL     1       7.357   6.508  18.092  0.00  0.00    +0.000 C 
ENDBRANCH   1  15
BRANCH  10  17
ATOM     17  N   UNL     1       2.074   9.540  18.304  0.00  0.00    +0.000 N 
ATOM     18  H   UNL     1       2.898  10.129  18.283  0.00  0.00    +0.000 HD
BRANCH  17  19
ATOM     19  C   UNL     1       0.859  10.229  18.486  0.00  0.00    +0.000 A 
ATOM     20  C   UNL     1       0.869  11.498  19.090  0.00  0.00    +0.000 A 
ATOM     21  C   UNL     1      -0.300  12.263  19.198  0.00  0.00    +0.000 A 
ATOM     22  C   UNL     1      -1.500  11.759  18.705  0.00  0.00    +0.000 A 
ATOM     23  F   UNL     1      -2.612  12.498  18.808  0.00  0.00    +0.000 F 
ATOM     24  C   UNL     1      -1.531  10.510  18.110  0.00  0.00    +0.000 A 
ATOM     25  F   UNL     1      -2.689  10.025  17.630  0.00  0.00    +0.000 F 
ATOM     26  C   UNL     1      -0.373   9.751  17.992  0.00  0.00    +0.000 A 
ENDBRANCH  17  19
ENDBRANCH  10  17
TORSDOF 4
ENDMDL
MODEL 9
REMARK VINA RESULT:      -7.6      4.711      8.021
REMARK  Name = 
REMARK  7 active torsions:
REMARK  status: ('A' for Active; 'I' for Inactive)
REMARK    1  A    between atoms: C_1  and  C_2
REMARK    2  A    between atoms: C_2  and  C_3
REMARK    3  A    between atoms: C_3  and  C_4
REMARK    4  A    between atoms: C_4  and  C_5
REMARK    5  A    between atoms: N_9  and  C_10
REMARK    6  A    between atoms: C_14  and  N_15
REMARK    7  A    between atoms: N_15  and  C_16
REMARK                            x       y       z     vdW  Elec       q    Type
REMARK                         _______ _______ _______ _____ _____    ______ ____
ROOT
ATOM      1  C   UNL     1      -0.276  11.111  19.246  0.00  0.00    +0.000 C 
ATOM      2  O   UNL     1      -1.370  11.220  20.181  0.00  0.00    +0.000 OA
ATOM      3  C   UNL     1      -1.124  11.131  21.514  0.00  0.00    +0.000 C 
ATOM      4  O   UNL     1      -1.798  11.784  22.305  0.00  0.00    +0.000 OA
ATOM      5  N   UNL     1      -0.181  10.187  21.897  0.00  0.00    +0.000 N 
ATOM      6  C   UNL     1      -0.166   9.785  23.295  0.00  0.00    +0.000 C 
ATOM      7  C   UNL     1       0.586   9.477  20.943  0.00  0.00    +0.000 A 
ATOM      8  C   UNL     1       1.265   8.301  21.280  0.00  0.00    +0.000 A 
ATOM      9  C   UNL     1       1.915   7.554  20.301  0.00  0.00    +0.000 A 
ATOM     10  C   UNL     1       1.984   8.004  18.983  0.00  0.00    +0.000 A 
ATOM     11  C   UNL     1       1.403   9.238  18.669  0.00  0.00    +0.000 A 
ATOM     12  C   UNL     1       0.629   9.944  19.624  0.00  0.00    +0.000 A 
ENDROOT
BRANCH   1  14
ATOM     13  C   UNL     1      -0.259  13.599  18.515  0.00  0.00    +0.000 C 
ATOM     14  C   UNL     1       0.470  12.476  19.264  0.00  0.00    +0.000 C 
ENDBRANCH   1  14
BRANCH   1  15
ATOM     15  C   UNL     1      -0.949  10.889  17.857  0.00  0.00    +0.000 C 
ATOM     16  C   UNL     1      -2.260  10.099  17.885  0.00  0.00    +0.000 C 
ENDBRANCH   1  15
BRANCH  10  17
ATOM     17  N   UNL     1       2.471   7.144  17.980  0.00  0.00    +0.000 N 
ATOM     18  H   UNL     1       2.315   7.456  17.029  0.00  0.00    +0.000 HD
BRANCH  17  19
ATOM     19  C   UNL     1       2.777   5.775  18.111  0.00  0.00    +0.000 A 
ATOM     20  C   UNL     1       1.800   4.816  17.791  0.00  0.00    +0.000 A 
ATOM     21  C   UNL     1       2.091   3.446  17.807  0.00  0.00    +0.000 A 
ATOM     22  C   UNL     1       3.370   3.018  18.152  0.00  0.00    +0.000 A 
ATOM     23  F   UNL     1       3.642   1.707  18.161  0.00  0.00    +0.000 F 
ATOM     24  C   UNL     1       4.345   3.947  18.474  0.00  0.00    +0.000 A 
ATOM     25  F   UNL     1       5.581   3.534  18.803  0.00  0.00    +0.000 F 
ATOM     26  C   UNL     1       4.064   5.308  18.451  0.00  0.00    +0.000 A 
ENDBRANCH  17  19
ENDBRANCH  10  17
TORSDOF 4
ENDMDL
