MODEL 1
REMARK VINA RESULT:      -8.2      0.000      0.000
REMARK  Name = 
REMARK  6 active torsions:
REMARK  status: ('A' for Active; 'I' for Inactive)
REMARK    1  A    between atoms: C_2  and  C_3
REMARK    2  A    between atoms: C_3  and  C_4
REMARK    3  A    between atoms: C_3  and  N_11
REMARK    4  A    between atoms: C_4  and  C_5
REMARK    5  A    between atoms: N_11  and  S_12
REMARK    6  A    between atoms: S_12  and  C_15
REMARK                            x       y       z     vdW  Elec       q    Type
REMARK                         _______ _______ _______ _____ _____    ______ ____
ROOT
ATOM      1  C   UNL     1       2.907   6.467  17.983  0.00  0.00    +0.000 C 
ENDROOT
BRANCH   1   3
ATOM      2  O   UNL     1       4.458   5.769  19.704  0.00  0.00    +0.000 OA
ATOM      3  C   UNL     1       4.254   5.842  18.481  0.00  0.00    +0.000 C 
ATOM      4  N   UNL     1       5.248   5.431  17.588  0.00  0.00    +0.000 N 
ATOM      5  C   UNL     1       6.351   4.620  18.135  0.00  0.00    +0.000 C 
ATOM      6  C   UNL     1       7.624   4.722  17.292  0.00  0.00    +0.000 C 
ATOM      7  O   UNL     1       7.355   4.366  15.931  0.00  0.00    +0.000 OA
ATOM      8  C   UNL     1       6.421   5.290  15.365  0.00  0.00    +0.000 C 
ATOM      9  C   UNL     1       5.093   5.310  16.135  0.00  0.00    +0.000 C 
ENDBRANCH   1   3
BRANCH   1  10
ATOM     10  N   UNL     1       2.531   7.570  18.934  0.00  0.00    +0.000 NA
ATOM     11  H   UNL     1       3.212   7.753  19.678  0.00  0.00    +0.000 HD
BRANCH  10  12
ATOM     12  S   UNL     1       1.701   8.939  18.411  0.00  0.00    +0.000 S 
ATOM     13  O   UNL     1       2.737   9.895  18.070  0.00  0.00    +0.000 OA
ATOM     14  O   UNL     1       0.760   8.488  17.409  0.00  0.00    +0.000 OA
BRANCH  12  15
ATOM     15  C   UNL     1       0.913   9.563  19.881  0.00  0.00    +0.000 A 
ATOM     16  C   UNL     1       1.105   8.822  21.063  0.00  0.00    +0.000 A 
ATOM     17  C   UNL     1       0.440   9.180  22.228  0.00  0.00    +0.000 A 
ATOM     18  C   UNL     1      -0.442  10.253  22.207  0.00  0.00    +0.000 A 
ATOM     19  C   UNL     1      -0.628  10.998  21.028  0.00  0.00    +0.000 A 
ATOM     20  C   UNL     1      -1.578  12.031  21.001  0.00  0.00    +0.000 A 
ATOM     21  C   UNL     1      -1.757  12.780  19.848  0.00  0.00    +0.000 A 
ATOM     22  C   UNL     1      -0.950  12.492  18.771  0.00  0.00    +0.000 A 
ATOM     23  N   UNL     1      -0.055  11.482  18.757  0.00  0.00    +0.000 NA
ATOM     24  C   UNL     1       0.101  10.702  19.851  0.00  0.00    +0.000 A 
ENDBRANCH  12  15
ENDBRANCH  10  12
ENDBRANCH   1  10
BRANCH   1  25
ATOM     25  C   UNL     1       1.750   5.474  17.837  0.00  0.00    +0.000 C 
BRANCH  25  26
ATOM     26  C   UNL     1       1.612   4.335  18.823  0.00  0.00    +0.000 A 
ATOM     27  C   UNL     1       1.279   4.493  20.174  0.00  0.00    +0.000 A 
ATOM     28  C   UNL     1       1.263   3.398  21.038  0.00  0.00    +0.000 A 
ATOM     29  C   UNL     1       1.558   2.127  20.559  0.00  0.00    +0.000 A 
ATOM     30  C   UNL     1       1.835   1.942  19.207  0.00  0.00    +0.000 A 
ATOM     31  C   UNL     1       1.856   3.038  18.346  0.00  0.00    +0.000 A 
ENDBRANCH  25  26
ENDBRANCH   1  25
TORSDOF 6
ENDMDL
MODEL 2
REMARK VINA RESULT:      -8.0      3.495      9.183
REMARK  Name = 
REMARK  6 active torsions:
REMARK  status: ('A' for Active; 'I' for Inactive)
REMARK    1  A    between atoms: C_2  and  C_3
REMARK    2  A    between atoms: C_3  and  C_4
REMARK    3  A    between atoms: C_3  and  N_11
REMARK    4  A    between atoms: C_4  and  C_5
REMARK    5  A    between atoms: N_11  and  S_12
REMARK    6  A    between atoms: S_12  and  C_15
REMARK                            x       y       z     vdW  Elec       q    Type
REMARK                         _______ _______ _______ _____ _____    ______ ____
ROOT
ATOM      1  C   UNL     1      -0.628  11.827  21.214  0.00  0.00    +0.000 C 
ENDROOT
BRANCH   1   3
ATOM      2  O   UNL     1       0.319  13.668  22.465  0.00  0.00    +0.000 OA
ATOM      3  C   UNL     1      -0.708  13.007  22.240  0.00  0.00    +0.000 C 
ATOM      4  N   UNL     1      -1.879  13.286  22.951  0.00  0.00    +0.000 N 
ATOM      5  C   UNL     1      -1.935  14.563  23.684  0.00  0.00    +0.000 C 
ATOM      6  C   UNL     1      -2.924  14.524  24.851  0.00  0.00    +0.000 C 
ATOM      7  O   UNL     1      -4.226  14.140  24.394  0.00  0.00    +0.000 OA
ATOM      8  C   UNL     1      -4.180  12.814  23.859  0.00  0.00    +0.000 C 
ATOM      9  C   UNL     1      -3.198  12.702  22.684  0.00  0.00    +0.000 C 
ENDBRANCH   1   3
BRANCH   1  10
ATOM     10  N   UNL     1       0.694  11.135  21.407  0.00  0.00    +0.000 NA
ATOM     11  H   UNL     1       1.386  11.664  21.948  0.00  0.00    +0.000 HD
BRANCH  10  12
ATOM     12  S   UNL     1       0.793   9.467  21.612  0.00  0.00    +0.000 S 
ATOM     13  O   UNL     1       1.793   9.277  22.646  0.00  0.00    +0.000 OA
ATOM     14  O   UNL     1      -0.561   8.998  21.804  0.00  0.00    +0.000 OA
BRANCH  12  15
ATOM     15  C   UNL     1       1.528   8.882  20.098  0.00  0.00    +0.000 A 
ATOM     16  C   UNL     1       1.728   9.838  19.084  0.00  0.00    +0.000 A 
ATOM     17  C   UNL     1       2.196   9.446  17.836  0.00  0.00    +0.000 A 
ATOM     18  C   UNL     1       2.432   8.099  17.590  0.00  0.00    +0.000 A 
ATOM     19  C   UNL     1       2.239   7.145  18.606  0.00  0.00    +0.000 A 
ATOM     20  C   UNL     1       2.407   5.782  18.321  0.00  0.00    +0.000 A 
ATOM     21  C   UNL     1       2.234   4.836  19.319  0.00  0.00    +0.000 A 
ATOM     22  C   UNL     1       1.934   5.293  20.582  0.00  0.00    +0.000 A 
ATOM     23  N   UNL     1       1.731   6.594  20.877  0.00  0.00    +0.000 NA
ATOM     24  C   UNL     1       1.841   7.532  19.908  0.00  0.00    +0.000 A 
ENDBRANCH  12  15
ENDBRANCH  10  12
ENDBRANCH   1  10
BRANCH   1  25
ATOM     25  C   UNL     1      -0.805  12.234  19.748  0.00  0.00    +0.000 C 
BRANCH  25  26
ATOM     26  C   UNL     1      -1.789  11.485  18.876  0.00  0.00    +0.000 A 
ATOM     27  C   UNL     1      -1.446  10.432  18.020  0.00  0.00    +0.000 A 
ATOM     28  C   UNL     1      -2.399   9.855  17.179  0.00  0.00    +0.000 A 
ATOM     29  C   UNL     1      -3.712  10.310  17.200  0.00  0.00    +0.000 A 
ATOM     30  C   UNL     1      -4.084  11.317  18.085  0.00  0.00    +0.000 A 
ATOM     31  C   UNL     1      -3.130  11.896  18.920  0.00  0.00    +0.000 A 
ENDBRANCH  25  26
ENDBRANCH   1  25
TORSDOF 6
ENDMDL
MODEL 3
REMARK VINA RESULT:      -7.8      3.507      9.182
REMARK  Name = 
REMARK  6 active torsions:
REMARK  status: ('A' for Active; 'I' for Inactive)
REMARK    1  A    between atoms: C_2  and  C_3
REMARK    2  A    between atoms: C_3  and  C_4
REMARK    3  A    between atoms: C_3  and  N_11
REMARK    4  A    between atoms: C_4  and  C_5
REMARK    5  A    between atoms: N_11  and  S_12
REMARK    6  A    between atoms: S_12  and  C_15
REMARK                            x       y       z     vdW  Elec       q    Type
REMARK                         _______ _______ _______ _____ _____    ______ ____
ROOT
ATOM      1  C   UNL     1      -1.182  11.368  21.091  0.00  0.00    +0.000 C 
ENDROOT
BRANCH   1   3
ATOM      2  O   UNL     1      -0.621  12.329  23.240  0.00  0.00    +0.000 OA
ATOM      3  C   UNL     1      -1.515  12.177  22.391  0.00  0.00    +0.000 C 
ATOM      4  N   UNL     1      -2.799  12.667  22.643  0.00  0.00    +0.000 N 
ATOM      5  C   UNL     1      -2.947  13.632  23.748  0.00  0.00    +0.000 C 
ATOM      6  C   UNL     1      -4.366  13.650  24.320  0.00  0.00    +0.000 C 
ATOM      7  O   UNL     1      -5.322  13.908  23.286  0.00  0.00    +0.000 OA
ATOM      8  C   UNL     1      -5.290  12.851  22.322  0.00  0.00    +0.000 C 
ATOM      9  C   UNL     1      -3.904  12.702  21.679  0.00  0.00    +0.000 C 
ENDBRANCH   1   3
BRANCH   1  10
ATOM     10  N   UNL     1       0.246  10.905  21.189  0.00  0.00    +0.000 NA
ATOM     11  H   UNL     1       0.894  11.580  21.605  0.00  0.00    +0.000 HD
BRANCH  10  12
ATOM     12  S   UNL     1       0.630   9.297  21.511  0.00  0.00    +0.000 S 
ATOM     13  O   UNL     1       1.639   9.356  22.552  0.00  0.00    +0.000 OA
ATOM     14  O   UNL     1      -0.625   8.616  21.742  0.00  0.00    +0.000 OA
BRANCH  12  15
ATOM     15  C   UNL     1       1.467   8.743  20.040  0.00  0.00    +0.000 A 
ATOM     16  C   UNL     1       1.664   9.701  19.027  0.00  0.00    +0.000 A 
ATOM     17  C   UNL     1       2.212   9.326  17.807  0.00  0.00    +0.000 A 
ATOM     18  C   UNL     1       2.532   7.992  17.585  0.00  0.00    +0.000 A 
ATOM     19  C   UNL     1       2.342   7.036  18.600  0.00  0.00    +0.000 A 
ATOM     20  C   UNL     1       2.597   5.682  18.336  0.00  0.00    +0.000 A 
ATOM     21  C   UNL     1       2.428   4.735  19.334  0.00  0.00    +0.000 A 
ATOM     22  C   UNL     1       2.043   5.184  20.577  0.00  0.00    +0.000 A 
ATOM     23  N   UNL     1       1.756   6.475  20.849  0.00  0.00    +0.000 NA
ATOM     24  C   UNL     1       1.862   7.410  19.878  0.00  0.00    +0.000 A 
ENDBRANCH  12  15
ENDBRANCH  10  12
ENDBRANCH   1  10
BRANCH   1  25
ATOM     25  C   UNL     1      -1.405  12.131  19.782  0.00  0.00    +0.000 C 
BRANCH  25  26
ATOM     26  C   UNL     1      -2.122  11.455  18.634  0.00  0.00    +0.000 A 
ATOM     27  C   UNL     1      -3.459  11.685  18.289  0.00  0.00    +0.000 A 
ATOM     28  C   UNL     1      -4.072  10.951  17.274  0.00  0.00    +0.000 A 
ATOM     29  C   UNL     1      -3.350   9.991  16.574  0.00  0.00    +0.000 A 
ATOM     30  C   UNL     1      -2.004   9.788  16.864  0.00  0.00    +0.000 A 
ATOM     31  C   UNL     1      -1.394  10.518  17.883  0.00  0.00    +0.000 A 
ENDBRANCH  25  26
ENDBRANCH   1  25
TORSDOF 6
ENDMDL
MODEL 4
REMARK VINA RESULT:      -7.8      3.490      6.363
REMARK  Name = 
REMARK  6 active torsions:
REMARK  status: ('A' for Active; 'I' for Inactive)
REMARK    1  A    between atoms: C_2  and  C_3
REMARK    2  A    between atoms: C_3  and  C_4
REMARK    3  A    between atoms: C_3  and  N_11
REMARK    4  A    between atoms: C_4  and  C_5
REMARK    5  A    between atoms: N_11  and  S_12
REMARK    6  A    between atoms: S_12  and  C_15
REMARK                            x       y       z     vdW  Elec       q    Type
REMARK                         _______ _______ _______ _____ _____    ______ ____
ROOT
ATOM      1  C   UNL     1       4.900   4.358  15.972  0.00  0.00    +0.000 C 
ENDROOT
BRANCH   1   3
ATOM      2  O   UNL     1       5.020   6.704  15.394  0.00  0.00    +0.000 OA
ATOM      3  C   UNL     1       5.430   5.819  16.163  0.00  0.00    +0.000 C 
ATOM      4  N   UNL     1       6.395   6.132  17.125  0.00  0.00    +0.000 N 
ATOM      5  C   UNL     1       6.629   7.560  17.405  0.00  0.00    +0.000 C 
ATOM      6  C   UNL     1       8.025   7.821  17.974  0.00  0.00    +0.000 C 
ATOM      7  O   UNL     1       8.246   7.028  19.146  0.00  0.00    +0.000 OA
ATOM      8  C   UNL     1       8.203   5.639  18.807  0.00  0.00    +0.000 C 
ATOM      9  C   UNL     1       6.853   5.239  18.195  0.00  0.00    +0.000 C 
ENDBRANCH   1   3
BRANCH   1  10
ATOM     10  N   UNL     1       4.624   3.785  17.334  0.00  0.00    +0.000 NA
ATOM     11  H   UNL     1       4.902   4.381  18.121  0.00  0.00    +0.000 HD
BRANCH  10  12
ATOM     12  S   UNL     1       3.260   2.845  17.635  0.00  0.00    +0.000 S 
ATOM     13  O   UNL     1       2.292   3.263  16.638  0.00  0.00    +0.000 OA
ATOM     14  O   UNL     1       3.713   1.473  17.688  0.00  0.00    +0.000 OA
BRANCH  12  15
ATOM     15  C   UNL     1       2.651   3.442  19.199  0.00  0.00    +0.000 A 
ATOM     16  C   UNL     1       2.255   2.468  20.135  0.00  0.00    +0.000 A 
ATOM     17  C   UNL     1       1.670   2.849  21.336  0.00  0.00    +0.000 A 
ATOM     18  C   UNL     1       1.449   4.197  21.588  0.00  0.00    +0.000 A 
ATOM     19  C   UNL     1       1.852   5.171  20.655  0.00  0.00    +0.000 A 
ATOM     20  C   UNL     1       1.553   6.522  20.888  0.00  0.00    +0.000 A 
ATOM     21  C   UNL     1       1.959   7.490  19.982  0.00  0.00    +0.000 A 
ATOM     22  C   UNL     1       2.685   7.073  18.890  0.00  0.00    +0.000 A 
ATOM     23  N   UNL     1       2.954   5.778  18.622  0.00  0.00    +0.000 NA
ATOM     24  C   UNL     1       2.523   4.810  19.463  0.00  0.00    +0.000 A 
ENDBRANCH  12  15
ENDBRANCH  10  12
ENDBRANCH   1  10
BRANCH   1  25
ATOM     25  C   UNL     1       5.832   3.431  15.184  0.00  0.00    +0.000 C 
BRANCH  25  26
ATOM     26  C   UNL     1       6.497   3.935  13.922  0.00  0.00    +0.000 A 
ATOM     27  C   UNL     1       7.476   4.935  13.888  0.00  0.00    +0.000 A 
ATOM     28  C   UNL     1       7.972   5.407  12.672  0.00  0.00    +0.000 A 
ATOM     29  C   UNL     1       7.512   4.871  11.476  0.00  0.00    +0.000 A 
ATOM     30  C   UNL     1       6.580   3.837  11.492  0.00  0.00    +0.000 A 
ATOM     31  C   UNL     1       6.081   3.370  12.707  0.00  0.00    +0.000 A 
ENDBRANCH  25  26
ENDBRANCH   1  25
TORSDOF 6
ENDMDL
MODEL 5
REMARK VINA RESULT:      -7.4      1.388      2.124
REMARK  Name = 
REMARK  6 active torsions:
REMARK  status: ('A' for Active; 'I' for Inactive)
REMARK    1  A    between atoms: C_2  and  C_3
REMARK    2  A    between atoms: C_3  and  C_4
REMARK    3  A    between atoms: C_3  and  N_11
REMARK    4  A    between atoms: C_4  and  C_5
REMARK    5  A    between atoms: N_11  and  S_12
REMARK    6  A    between atoms: S_12  and  C_15
REMARK                            x       y       z     vdW  Elec       q    Type
REMARK                         _______ _______ _______ _____ _____    ______ ____
ROOT
ATOM      1  C   UNL     1       2.641   6.759  18.117  0.00  0.00    +0.000 C 
ENDROOT
BRANCH   1   3
ATOM      2  O   UNL     1       3.668   5.989  20.168  0.00  0.00    +0.000 OA
ATOM      3  C   UNL     1       3.836   6.188  18.954  0.00  0.00    +0.000 C 
ATOM      4  N   UNL     1       5.094   5.967  18.385  0.00  0.00    +0.000 N 
ATOM      5  C   UNL     1       6.063   5.188  19.176  0.00  0.00    +0.000 C 
ATOM      6  C   UNL     1       7.511   5.490  18.785  0.00  0.00    +0.000 C 
ATOM      7  O   UNL     1       7.709   5.278  17.382  0.00  0.00    +0.000 OA
ATOM      8  C   UNL     1       6.892   6.184  16.636  0.00  0.00    +0.000 C 
ATOM      9  C   UNL     1       5.400   6.006  16.951  0.00  0.00    +0.000 C 
ENDBRANCH   1   3
BRANCH   1  10
ATOM     10  N   UNL     1       2.133   7.989  18.817  0.00  0.00    +0.000 NA
ATOM     11  H   UNL     1       2.648   8.252  19.663  0.00  0.00    +0.000 HD
BRANCH  10  12
ATOM     12  S   UNL     1       1.513   9.298  17.957  0.00  0.00    +0.000 S 
ATOM     13  O   UNL     1       2.658   9.872  17.276  0.00  0.00    +0.000 OA
ATOM     14  O   UNL     1       0.386   8.794  17.203  0.00  0.00    +0.000 OA
BRANCH  12  15
ATOM     15  C   UNL     1       1.046  10.468  19.216  0.00  0.00    +0.000 A 
ATOM     16  C   UNL     1       1.382  11.815  18.982  0.00  0.00    +0.000 A 
ATOM     17  C   UNL     1       1.150  12.774  19.960  0.00  0.00    +0.000 A 
ATOM     18  C   UNL     1       0.615  12.385  21.182  0.00  0.00    +0.000 A 
ATOM     19  C   UNL     1       0.273  11.040  21.412  0.00  0.00    +0.000 A 
ATOM     20  C   UNL     1      -0.195  10.649  22.677  0.00  0.00    +0.000 A 
ATOM     21  C   UNL     1      -0.550   9.329  22.910  0.00  0.00    +0.000 A 
ATOM     22  C   UNL     1      -0.459   8.452  21.853  0.00  0.00    +0.000 A 
ATOM     23  N   UNL     1       0.021   8.792  20.638  0.00  0.00    +0.000 NA
ATOM     24  C   UNL     1       0.424  10.061  20.402  0.00  0.00    +0.000 A 
ENDBRANCH  12  15
ENDBRANCH  10  12
ENDBRANCH   1  10
BRANCH   1  25
ATOM     25  C   UNL     1       1.494   5.772  17.876  0.00  0.00    +0.000 C 
BRANCH  25  26
ATOM     26  C   UNL     1       1.662   4.320  18.264  0.00  0.00    +0.000 A 
ATOM     27  C   UNL     1       1.136   3.744  19.427  0.00  0.00    +0.000 A 
ATOM     28  C   UNL     1       1.416   2.418  19.758  0.00  0.00    +0.000 A 
ATOM     29  C   UNL     1       2.207   1.642  18.918  0.00  0.00    +0.000 A 
ATOM     30  C   UNL     1       2.691   2.180  17.729  0.00  0.00    +0.000 A 
ATOM     31  C   UNL     1       2.416   3.507  17.403  0.00  0.00    +0.000 A 
ENDBRANCH  25  26
ENDBRANCH   1  25
TORSDOF 6
ENDMDL
MODEL 6
REMARK VINA RESULT:      -7.4      3.145      8.873
REMARK  Name = 
REMARK  6 active torsions:
REMARK  status: ('A' for Active; 'I' for Inactive)
REMARK    1  A    between atoms: C_2  and  C_3
REMARK    2  A    between atoms: C_3  and  C_4
REMARK    3  A    between atoms: C_3  and  N_11
REMARK    4  A    between atoms: C_4  and  C_5
REMARK    5  A    between atoms: N_11  and  S_12
REMARK    6  A    between atoms: S_12  and  C_15
REMARK                            x       y       z     vdW  Elec       q    Type
REMARK                         _______ _______ _______ _____ _____    ______ ____
ROOT
ATOM      1  C   UNL     1      -0.208  11.211  20.340  0.00  0.00    +0.000 C 
ENDROOT
BRANCH   1   3
ATOM      2  O   UNL     1       1.117  12.731  21.678  0.00  0.00    +0.000 OA
ATOM      3  C   UNL     1      -0.031  12.336  21.416  0.00  0.00    +0.000 C 
ATOM      4  N   UNL     1      -1.118  12.851  22.128  0.00  0.00    +0.000 N 
ATOM      5  C   UNL     1      -0.889  14.076  22.915  0.00  0.00    +0.000 C 
ATOM      6  C   UNL     1      -1.881  14.221  24.071  0.00  0.00    +0.000 C 
ATOM      7  O   UNL     1      -3.228  14.169  23.587  0.00  0.00    +0.000 OA
ATOM      8  C   UNL     1      -3.481  12.891  22.997  0.00  0.00    +0.000 C 
ATOM      9  C   UNL     1      -2.531  12.600  21.826  0.00  0.00    +0.000 C 
ENDBRANCH   1   3
BRANCH   1  10
ATOM     10  N   UNL     1       1.033  10.361  20.353  0.00  0.00    +0.000 NA
ATOM     11  H   UNL     1       1.907  10.870  20.520  0.00  0.00    +0.000 HD
BRANCH  10  12
ATOM     12  S   UNL     1       1.021   8.796  20.975  0.00  0.00    +0.000 S 
ATOM     13  O   UNL     1       1.872   8.855  22.149  0.00  0.00    +0.000 OA
ATOM     14  O   UNL     1      -0.369   8.414  21.094  0.00  0.00    +0.000 OA
BRANCH  12  15
ATOM     15  C   UNL     1       1.909   7.837  19.766  0.00  0.00    +0.000 A 
ATOM     16  C   UNL     1       2.396   8.532  18.643  0.00  0.00    +0.000 A 
ATOM     17  C   UNL     1       3.006   7.841  17.603  0.00  0.00    +0.000 A 
ATOM     18  C   UNL     1       3.100   6.457  17.668  0.00  0.00    +0.000 A 
ATOM     19  C   UNL     1       2.619   5.763  18.794  0.00  0.00    +0.000 A 
ATOM     20  C   UNL     1       2.650   4.360  18.811  0.00  0.00    +0.000 A 
ATOM     21  C   UNL     1       2.194   3.668  19.923  0.00  0.00    +0.000 A 
ATOM     22  C   UNL     1       1.755   4.409  20.996  0.00  0.00    +0.000 A 
ATOM     23  N   UNL     1       1.679   5.757  20.993  0.00  0.00    +0.000 NA
ATOM     24  C   UNL     1       2.069   6.452  19.900  0.00  0.00    +0.000 A 
ENDBRANCH  12  15
ENDBRANCH  10  12
ENDBRANCH   1  10
BRANCH   1  25
ATOM     25  C   UNL     1      -0.492  11.715  18.922  0.00  0.00    +0.000 C 
BRANCH  25  26
ATOM     26  C   UNL     1      -1.633  11.116  18.130  0.00  0.00    +0.000 A 
ATOM     27  C   UNL     1      -1.500  10.056  17.226  0.00  0.00    +0.000 A 
ATOM     28  C   UNL     1      -2.587   9.623  16.465  0.00  0.00    +0.000 A 
ATOM     29  C   UNL     1      -3.827  10.231  16.615  0.00  0.00    +0.000 A 
ATOM     30  C   UNL     1      -3.994  11.249  17.550  0.00  0.00    +0.000 A 
ATOM     31  C   UNL     1      -2.905  11.684  18.305  0.00  0.00    +0.000 A 
ENDBRANCH  25  26
ENDBRANCH   1  25
TORSDOF 6
ENDMDL
MODEL 7
REMARK VINA RESULT:      -7.4      1.270      1.533
REMARK  Name = 
REMARK  6 active torsions:
REMARK  status: ('A' for Active; 'I' for Inactive)
REMARK    1  A    between atoms: C_2  and  C_3
REMARK    2  A    between atoms: C_3  and  C_4
REMARK    3  A    between atoms: C_3  and  N_11
REMARK    4  A    between atoms: C_4  and  C_5
REMARK    5  A    between atoms: N_11  and  S_12
REMARK    6  A    between atoms: S_12  and  C_15
REMARK                            x       y       z     vdW  Elec       q    Type
REMARK                         _______ _______ _______ _____ _____    ______ ____
ROOT
ATOM      1  C   UNL     1       3.984   6.400  17.987  0.00  0.00    +0.000 C 
ENDROOT
BRANCH   1   3
ATOM      2  O   UNL     1       6.152   7.377  17.535  0.00  0.00    +0.000 OA
ATOM      3  C   UNL     1       5.357   6.471  17.235  0.00  0.00    +0.000 C 
ATOM      4  N   UNL     1       5.674   5.588  16.198  0.00  0.00    +0.000 N 
ATOM      5  C   UNL     1       7.074   5.562  15.740  0.00  0.00    +0.000 C 
ATOM      6  C   UNL     1       7.208   5.062  14.300  0.00  0.00    +0.000 C 
ATOM      7  O   UNL     1       6.600   3.773  14.157  0.00  0.00    +0.000 OA
ATOM      8  C   UNL     1       5.198   3.867  14.423  0.00  0.00    +0.000 C 
ATOM      9  C   UNL     1       4.915   4.385  15.841  0.00  0.00    +0.000 C 
ENDBRANCH   1   3
BRANCH   1  10
ATOM     10  N   UNL     1       3.579   7.805  18.340  0.00  0.00    +0.000 NA
ATOM     11  H   UNL     1       4.327   8.503  18.274  0.00  0.00    +0.000 HD
BRANCH  10  12
ATOM     12  S   UNL     1       2.049   8.400  17.966  0.00  0.00    +0.000 S 
ATOM     13  O   UNL     1       2.297   9.609  17.202  0.00  0.00    +0.000 OA
ATOM     14  O   UNL     1       1.314   7.300  17.382  0.00  0.00    +0.000 OA
BRANCH  12  15
ATOM     15  C   UNL     1       1.388   8.930  19.532  0.00  0.00    +0.000 A 
ATOM     16  C   UNL     1       1.648   8.101  20.640  0.00  0.00    +0.000 A 
ATOM     17  C   UNL     1       1.080   8.385  21.875  0.00  0.00    +0.000 A 
ATOM     18  C   UNL     1       0.227   9.474  21.998  0.00  0.00    +0.000 A 
ATOM     19  C   UNL     1      -0.026  10.308  20.893  0.00  0.00    +0.000 A 
ATOM     20  C   UNL     1      -0.949  11.358  21.012  0.00  0.00    +0.000 A 
ATOM     21  C   UNL     1      -1.194  12.194  19.933  0.00  0.00    +0.000 A 
ATOM     22  C   UNL     1      -0.477  11.970  18.781  0.00  0.00    +0.000 A 
ATOM     23  N   UNL     1       0.389  10.946  18.626  0.00  0.00    +0.000 NA
ATOM     24  C   UNL     1       0.605  10.085  19.647  0.00  0.00    +0.000 A 
ENDBRANCH  12  15
ENDBRANCH  10  12
ENDBRANCH   1  10
BRANCH   1  25
ATOM     25  C   UNL     1       3.979   5.515  19.237  0.00  0.00    +0.000 C 
BRANCH  25  26
ATOM     26  C   UNL     1       2.796   4.613  19.511  0.00  0.00    +0.000 A 
ATOM     27  C   UNL     1       2.278   4.350  20.784  0.00  0.00    +0.000 A 
ATOM     28  C   UNL     1       1.242   3.432  20.959  0.00  0.00    +0.000 A 
ATOM     29  C   UNL     1       0.695   2.781  19.860  0.00  0.00    +0.000 A 
ATOM     30  C   UNL     1       1.158   3.072  18.580  0.00  0.00    +0.000 A 
ATOM     31  C   UNL     1       2.197   3.985  18.407  0.00  0.00    +0.000 A 
ENDBRANCH  25  26
ENDBRANCH   1  25
TORSDOF 6
ENDMDL
MODEL 8
REMARK VINA RESULT:      -7.3      4.081      6.629
REMARK  Name = 
REMARK  6 active torsions:
REMARK  status: ('A' for Active; 'I' for Inactive)
REMARK    1  A    between atoms: C_2  and  C_3
REMARK    2  A    between atoms: C_3  and  C_4
REMARK    3  A    between atoms: C_3  and  N_11
REMARK    4  A    between atoms: C_4  and  C_5
REMARK    5  A    between atoms: N_11  and  S_12
REMARK    6  A    between atoms: S_12  and  C_15
REMARK                            x       y       z     vdW  Elec       q    Type
REMARK                         _______ _______ _______ _____ _____    ______ ____
ROOT
ATOM      1  C   UNL     1       0.420  10.757  19.857  0.00  0.00    +0.000 C 
ENDROOT
BRANCH   1   3
ATOM      2  O   UNL     1       0.434  12.175  21.817  0.00  0.00    +0.000 OA
ATOM      3  C   UNL     1       0.862  12.027  20.661  0.00  0.00    +0.000 C 
ATOM      4  N   UNL     1       1.664  13.018  20.088  0.00  0.00    +0.000 N 
ATOM      5  C   UNL     1       2.240  14.027  20.995  0.00  0.00    +0.000 C 
ATOM      6  C   UNL     1       2.572  15.336  20.276  0.00  0.00    +0.000 C 
ATOM      7  O   UNL     1       3.442  15.093  19.165  0.00  0.00    +0.000 OA
ATOM      8  C   UNL     1       2.782  14.262  18.206  0.00  0.00    +0.000 C 
ATOM      9  C   UNL     1       2.366  12.911  18.805  0.00  0.00    +0.000 C 
ENDBRANCH   1   3
BRANCH   1  10
ATOM     10  N   UNL     1      -1.067  10.838  19.649  0.00  0.00    +0.000 NA
ATOM     11  H   UNL     1      -1.601  11.185  20.453  0.00  0.00    +0.000 HD
BRANCH  10  12
ATOM     12  S   UNL     1      -1.726  11.255  18.156  0.00  0.00    +0.000 S 
ATOM     13  O   UNL     1      -1.134  12.540  17.834  0.00  0.00    +0.000 OA
ATOM     14  O   UNL     1      -1.527  10.116  17.289  0.00  0.00    +0.000 OA
BRANCH  12  15
ATOM     15  C   UNL     1      -3.442  11.575  18.509  0.00  0.00    +0.000 A 
ATOM     16  C   UNL     1      -4.382  11.040  17.607  0.00  0.00    +0.000 A 
ATOM     17  C   UNL     1      -5.733  11.333  17.749  0.00  0.00    +0.000 A 
ATOM     18  C   UNL     1      -6.142  12.185  18.767  0.00  0.00    +0.000 A 
ATOM     19  C   UNL     1      -5.203  12.714  19.672  0.00  0.00    +0.000 A 
ATOM     20  C   UNL     1      -5.620  13.633  20.647  0.00  0.00    +0.000 A 
ATOM     21  C   UNL     1      -4.705  14.147  21.554  0.00  0.00    +0.000 A 
ATOM     22  C   UNL     1      -3.409  13.694  21.474  0.00  0.00    +0.000 A 
ATOM     23  N   UNL     1      -2.973  12.839  20.525  0.00  0.00    +0.000 NA
ATOM     24  C   UNL     1      -3.834  12.364  19.597  0.00  0.00    +0.000 A 
ENDBRANCH  12  15
ENDBRANCH  10  12
ENDBRANCH   1  10
BRANCH   1  25
ATOM     25  C   UNL     1       0.794   9.421  20.505  0.00  0.00    +0.000 C 
BRANCH  25  26
ATOM     26  C   UNL     1       1.590   8.403  19.717  0.00  0.00    +0.000 A 
ATOM     27  C   UNL     1       1.996   7.159  20.213  0.00  0.00    +0.000 A 
ATOM     28  C   UNL     1       2.808   6.316  19.453  0.00  0.00    +0.000 A 
ATOM     29  C   UNL     1       3.206   6.698  18.177  0.00  0.00    +0.000 A 
ATOM     30  C   UNL     1       2.766   7.907  17.645  0.00  0.00    +0.000 A 
ATOM     31  C   UNL     1       1.960   8.750  18.409  0.00  0.00    +0.000 A 
ENDBRANCH  25  26
ENDBRANCH   1  25
TORSDOF 6
ENDMDL
MODEL 9
REMARK VINA RESULT:      -7.2      1.467      2.476
REMARK  Name = 
REMARK  6 active torsions:
REMARK  status: ('A' for Active; 'I' for Inactive)
REMARK    1  A    between atoms: C_2  and  C_3
REMARK    2  A    between atoms: C_3  and  C_4
REMARK    3  A    between atoms: C_3  and  N_11
REMARK    4  A    between atoms: C_4  and  C_5
REMARK    5  A    between atoms: N_11  and  S_12
REMARK    6  A    between atoms: S_12  and  C_15
REMARK                            x       y       z     vdW  Elec       q    Type
REMARK                         _______ _______ _______ _____ _____    ______ ____
ROOT
ATOM      1  C   UNL     1       2.467   7.237  18.584  0.00  0.00    +0.000 C 
ENDROOT
BRANCH   1   3
ATOM      2  O   UNL     1       3.680   7.743  16.552  0.00  0.00    +0.000 OA
ATOM      3  C   UNL     1       3.701   7.120  17.626  0.00  0.00    +0.000 C 
ATOM      4  N   UNL     1       4.783   6.284  17.919  0.00  0.00    +0.000 N 
ATOM      5  C   UNL     1       5.998   6.443  17.100  0.00  0.00    +0.000 C 
ATOM      6  C   UNL     1       6.853   5.174  17.071  0.00  0.00    +0.000 C 
ATOM      7  O   UNL     1       7.184   4.761  18.402  0.00  0.00    +0.000 OA
ATOM      8  C   UNL     1       5.991   4.428  19.117  0.00  0.00    +0.000 C 
ATOM      9  C   UNL     1       5.021   5.615  19.202  0.00  0.00    +0.000 C 
ENDBRANCH   1   3
BRANCH   1  10
ATOM     10  N   UNL     1       2.360   8.672  19.024  0.00  0.00    +0.000 NA
ATOM     11  H   UNL     1       3.203   9.057  19.461  0.00  0.00    +0.000 HD
BRANCH  10  12
ATOM     12  S   UNL     1       1.468   9.797  18.144  0.00  0.00    +0.000 S 
ATOM     13  O   UNL     1       2.460  10.606  17.461  0.00  0.00    +0.000 OA
ATOM     14  O   UNL     1       0.488   9.045  17.392  0.00  0.00    +0.000 OA
BRANCH  12  15
ATOM     15  C   UNL     1       0.742  10.848  19.386  0.00  0.00    +0.000 A 
ATOM     16  C   UNL     1       0.783  12.234  19.142  0.00  0.00    +0.000 A 
ATOM     17  C   UNL     1       0.336  13.127  20.108  0.00  0.00    +0.000 A 
ATOM     18  C   UNL     1      -0.120  12.641  21.326  0.00  0.00    +0.000 A 
ATOM     19  C   UNL     1      -0.168  11.255  21.567  0.00  0.00    +0.000 A 
ATOM     20  C   UNL     1      -0.557  10.782  22.829  0.00  0.00    +0.000 A 
ATOM     21  C   UNL     1      -0.622   9.418  23.071  0.00  0.00    +0.000 A 
ATOM     22  C   UNL     1      -0.329   8.574  22.024  0.00  0.00    +0.000 A 
ATOM     23  N   UNL     1       0.083   9.000  20.812  0.00  0.00    +0.000 NA
ATOM     24  C   UNL     1       0.206  10.325  20.568  0.00  0.00    +0.000 A 
ENDBRANCH  12  15
ENDBRANCH  10  12
ENDBRANCH   1  10
BRANCH   1  25
ATOM     25  C   UNL     1       2.506   6.310  19.802  0.00  0.00    +0.000 C 
BRANCH  25  26
ATOM     26  C   UNL     1       1.897   4.928  19.710  0.00  0.00    +0.000 A 
ATOM     27  C   UNL     1       1.580   4.127  20.814  0.00  0.00    +0.000 A 
ATOM     28  C   UNL     1       1.107   2.826  20.641  0.00  0.00    +0.000 A 
ATOM     29  C   UNL     1       0.925   2.316  19.361  0.00  0.00    +0.000 A 
ATOM     30  C   UNL     1       1.181   3.116  18.251  0.00  0.00    +0.000 A 
ATOM     31  C   UNL     1       1.659   4.414  18.426  0.00  0.00    +0.000 A 
ENDBRANCH  25  26
ENDBRANCH   1  25
TORSDOF 6
ENDMDL
