MODEL 1
REMARK VINA RESULT:      -8.0      0.000      0.000
REMARK  Name = 
REMARK  8 active torsions:
REMARK  status: ('A' for Active; 'I' for Inactive)
REMARK    1  A    between atoms: C_1  and  C_2
REMARK    2  A    between atoms: C_6  and  C_7
REMARK    3  A    between atoms: N_8  and  S_9
REMARK    4  A    between atoms: S_9  and  C_12
REMARK    5  A    between atoms: C_15  and  N_16
REMARK    6  A    between atoms: C_17  and  C_19
REMARK    7  A    between atoms: C_19  and  N_20
REMARK    8  A    between atoms: N_20  and  C_21
REMARK                            x       y       z     vdW  Elec       q    Type
REMARK                         _______ _______ _______ _____ _____    ______ ____
ROOT
ATOM      1  C   UNL     1       2.917   6.872  18.892  0.00  0.00    +0.000 A 
ATOM      2  C   UNL     1       2.833   7.667  17.749  0.00  0.00    +0.000 A 
ATOM      3  C   UNL     1       2.031   8.815  17.755  0.00  0.00    +0.000 A 
ATOM      4  C   UNL     1       1.323   9.187  18.899  0.00  0.00    +0.000 A 
ATOM      5  C   UNL     1       1.366   8.359  20.019  0.00  0.00    +0.000 A 
ATOM      6  C   UNL     1       2.123   7.179  19.998  0.00  0.00    +0.000 A 
ENDROOT
BRANCH   4   7
ATOM      7  N   UNL     1       0.531  10.355  18.980  0.00  0.00    +0.000 N 
ATOM      8  C   UNL     1      -0.640  10.619  18.287  0.00  0.00    +0.000 C 
ATOM      9  O   UNL     1      -1.181   9.889  17.458  0.00  0.00    +0.000 OA
ATOM     10  H   UNL     1       0.850  11.064  19.629  0.00  0.00    +0.000 HD
BRANCH   8  11
ATOM     11  C   UNL     1      -1.302  11.939  18.699  0.00  0.00    +0.000 C 
BRANCH  11  12
ATOM     12  N   UNL     1      -2.479  12.221  17.858  0.00  0.00    +0.000 NA
ATOM     13  H   UNL     1      -2.287  11.831  16.929  0.00  0.00    +0.000 HD
BRANCH  12  14
ATOM     14  C   UNL     1      -3.712  11.617  18.361  0.00  0.00    +0.000 C 
ATOM     15  C   UNL     1      -4.367  12.377  19.513  0.00  0.00    +0.000 C 
ATOM     16  C   UNL     1      -5.788  11.829  19.533  0.00  0.00    +0.000 C 
ATOM     17  C   UNL     1      -6.108  11.452  18.086  0.00  0.00    +0.000 C 
ATOM     18  C   UNL     1      -4.811  11.630  17.299  0.00  0.00    +0.000 C 
ENDBRANCH  12  14
ENDBRANCH  11  12
ENDBRANCH   8  11
ENDBRANCH   4   7
BRANCH   1  19
ATOM     19  S   UNL     1       3.885   5.371  18.840  0.00  0.00    +0.000 S 
ATOM     20  O   UNL     1       4.955   5.555  19.801  0.00  0.00    +0.000 OA
ATOM     21  O   UNL     1       4.192   5.111  17.449  0.00  0.00    +0.000 OA
BRANCH  19  29
ATOM     22  C   UNL     1       2.421   2.516  21.339  0.00  0.00    +0.000 C 
ATOM     23  C   UNL     1       3.465   3.221  20.461  0.00  0.00    +0.000 C 
ATOM     24  C   UNL     1       4.381   2.219  19.749  0.00  0.00    +0.000 C 
ATOM     25  C   UNL     1       3.660   1.426  18.660  0.00  0.00    +0.000 C 
ATOM     26  C   UNL     1       2.865   2.321  17.712  0.00  0.00    +0.000 C 
ATOM     27  C   UNL     1       1.994   3.338  18.459  0.00  0.00    +0.000 C 
ATOM     28  C   UNL     1       1.151   4.168  17.511  0.00  0.00    +0.000 C 
ATOM     29  N   UNL     1       2.820   4.136  19.439  0.00  0.00    +0.000 NA
ENDBRANCH  19  29
ENDBRANCH   1  19
TORSDOF 6
ENDMDL
MODEL 2
REMARK VINA RESULT:      -7.9      1.591      2.325
REMARK  Name = 
REMARK  8 active torsions:
REMARK  status: ('A' for Active; 'I' for Inactive)
REMARK    1  A    between atoms: C_1  and  C_2
REMARK    2  A    between atoms: C_6  and  C_7
REMARK    3  A    between atoms: N_8  and  S_9
REMARK    4  A    between atoms: S_9  and  C_12
REMARK    5  A    between atoms: C_15  and  N_16
REMARK    6  A    between atoms: C_17  and  C_19
REMARK    7  A    between atoms: C_19  and  N_20
REMARK    8  A    between atoms: N_20  and  C_21
REMARK                            x       y       z     vdW  Elec       q    Type
REMARK                         _______ _______ _______ _____ _____    ______ ____
ROOT
ATOM      1  C   UNL     1       2.738   6.974  18.859  0.00  0.00    +0.000 A 
ATOM      2  C   UNL     1       2.061   7.282  20.039  0.00  0.00    +0.000 A 
ATOM      3  C   UNL     1       1.356   8.488  20.145  0.00  0.00    +0.000 A 
ATOM      4  C   UNL     1       1.307   9.384  19.075  0.00  0.00    +0.000 A 
ATOM      5  C   UNL     1       2.032   9.096  17.920  0.00  0.00    +0.000 A 
ATOM      6  C   UNL     1       2.784   7.917  17.831  0.00  0.00    +0.000 A 
ENDROOT
BRANCH   4   7
ATOM      7  N   UNL     1       0.580  10.596  19.106  0.00  0.00    +0.000 N 
ATOM      8  C   UNL     1      -0.632  10.858  18.486  0.00  0.00    +0.000 C 
ATOM      9  O   UNL     1      -1.274  10.085  17.777  0.00  0.00    +0.000 OA
ATOM     10  H   UNL     1       0.986  11.343  19.656  0.00  0.00    +0.000 HD
BRANCH   8  11
ATOM     11  C   UNL     1      -1.194  12.245  18.820  0.00  0.00    +0.000 C 
BRANCH  11  12
ATOM     12  N   UNL     1      -0.503  12.824  19.986  0.00  0.00    +0.000 NA
ATOM     13  H   UNL     1      -0.136  13.737  19.697  0.00  0.00    +0.000 HD
BRANCH  12  14
ATOM     14  C   UNL     1      -1.378  13.027  21.139  0.00  0.00    +0.000 C 
ATOM     15  C   UNL     1      -2.852  12.720  20.880  0.00  0.00    +0.000 C 
ATOM     16  C   UNL     1      -3.432  12.572  22.280  0.00  0.00    +0.000 C 
ATOM     17  C   UNL     1      -2.290  12.039  23.148  0.00  0.00    +0.000 C 
ATOM     18  C   UNL     1      -1.040  12.057  22.271  0.00  0.00    +0.000 C 
ENDBRANCH  12  14
ENDBRANCH  11  12
ENDBRANCH   8  11
ENDBRANCH   4   7
BRANCH   1  19
ATOM     19  S   UNL     1       3.692   5.467  18.771  0.00  0.00    +0.000 S 
ATOM     20  O   UNL     1       4.777   5.627  19.720  0.00  0.00    +0.000 OA
ATOM     21  O   UNL     1       3.979   5.226  17.372  0.00  0.00    +0.000 OA
BRANCH  19  29
ATOM     22  C   UNL     1       2.194   2.645  21.287  0.00  0.00    +0.000 C 
ATOM     23  C   UNL     1       3.254   3.344  20.423  0.00  0.00    +0.000 C 
ATOM     24  C   UNL     1       4.201   2.340  19.757  0.00  0.00    +0.000 C 
ATOM     25  C   UNL     1       3.519   1.516  18.665  0.00  0.00    +0.000 C 
ATOM     26  C   UNL     1       2.740   2.382  17.677  0.00  0.00    +0.000 C 
ATOM     27  C   UNL     1       1.837   3.403  18.380  0.00  0.00    +0.000 C 
ATOM     28  C   UNL     1       1.010   4.204  17.393  0.00  0.00    +0.000 C 
ATOM     29  N   UNL     1       2.626   4.230  19.365  0.00  0.00    +0.000 NA
ENDBRANCH  19  29
ENDBRANCH   1  19
TORSDOF 6
ENDMDL
MODEL 3
REMARK VINA RESULT:      -7.8      1.835      2.492
REMARK  Name = 
REMARK  8 active torsions:
REMARK  status: ('A' for Active; 'I' for Inactive)
REMARK    1  A    between atoms: C_1  and  C_2
REMARK    2  A    between atoms: C_6  and  C_7
REMARK    3  A    between atoms: N_8  and  S_9
REMARK    4  A    between atoms: S_9  and  C_12
REMARK    5  A    between atoms: C_15  and  N_16
REMARK    6  A    between atoms: C_17  and  C_19
REMARK    7  A    between atoms: C_19  and  N_20
REMARK    8  A    between atoms: N_20  and  C_21
REMARK                            x       y       z     vdW  Elec       q    Type
REMARK                         _______ _______ _______ _____ _____    ______ ____
ROOT
ATOM      1  C   UNL     1       2.960   6.878  18.866  0.00  0.00    +0.000 A 
ATOM      2  C   UNL     1       2.934   7.685  17.729  0.00  0.00    +0.000 A 
ATOM      3  C   UNL     1       2.170   8.859  17.722  0.00  0.00    +0.000 A 
ATOM      4  C   UNL     1       1.443   9.245  18.851  0.00  0.00    +0.000 A 
ATOM      5  C   UNL     1       1.429   8.407  19.964  0.00  0.00    +0.000 A 
ATOM      6  C   UNL     1       2.146   7.203  19.953  0.00  0.00    +0.000 A 
ENDROOT
BRANCH   4   7
ATOM      7  N   UNL     1       0.688  10.438  18.921  0.00  0.00    +0.000 N 
ATOM      8  C   UNL     1      -0.520  10.699  18.293  0.00  0.00    +0.000 C 
ATOM      9  O   UNL     1      -1.133   9.943  17.542  0.00  0.00    +0.000 OA
ATOM     10  H   UNL     1       1.068  11.170  19.508  0.00  0.00    +0.000 HD
BRANCH   8  11
ATOM     11  C   UNL     1      -1.119  12.057  18.675  0.00  0.00    +0.000 C 
BRANCH  11  12
ATOM     12  N   UNL     1      -0.423  12.628  19.842  0.00  0.00    +0.000 NA
ATOM     13  H   UNL     1      -0.162  13.589  19.599  0.00  0.00    +0.000 HD
BRANCH  12  14
ATOM     14  C   UNL     1      -1.247  12.669  21.049  0.00  0.00    +0.000 C 
ATOM     15  C   UNL     1      -1.107  11.448  21.956  0.00  0.00    +0.000 C 
ATOM     16  C   UNL     1      -1.678  11.928  23.284  0.00  0.00    +0.000 C 
ATOM     17  C   UNL     1      -1.394  13.430  23.339  0.00  0.00    +0.000 C 
ATOM     18  C   UNL     1      -0.822  13.810  21.974  0.00  0.00    +0.000 C 
ENDBRANCH  12  14
ENDBRANCH  11  12
ENDBRANCH   8  11
ENDBRANCH   4   7
BRANCH   1  19
ATOM     19  S   UNL     1       3.879   5.347  18.827  0.00  0.00    +0.000 S 
ATOM     20  O   UNL     1       4.942   5.496  19.802  0.00  0.00    +0.000 OA
ATOM     21  O   UNL     1       4.196   5.076  17.441  0.00  0.00    +0.000 OA
BRANCH  19  29
ATOM     22  C   UNL     1       2.286   2.549  21.312  0.00  0.00    +0.000 C 
ATOM     23  C   UNL     1       3.366   3.218  20.449  0.00  0.00    +0.000 C 
ATOM     24  C   UNL     1       4.263   2.185  19.756  0.00  0.00    +0.000 C 
ATOM     25  C   UNL     1       3.536   1.410  18.658  0.00  0.00    +0.000 C 
ATOM     26  C   UNL     1       2.785   2.325  17.693  0.00  0.00    +0.000 C 
ATOM     27  C   UNL     1       1.933   3.371  18.422  0.00  0.00    +0.000 C 
ATOM     28  C   UNL     1       1.132   4.223  17.457  0.00  0.00    +0.000 C 
ATOM     29  N   UNL     1       2.767   4.147  19.413  0.00  0.00    +0.000 NA
ENDBRANCH  19  29
ENDBRANCH   1  19
TORSDOF 6
ENDMDL
MODEL 4
REMARK VINA RESULT:      -7.8      1.824      3.249
REMARK  Name = 
REMARK  8 active torsions:
REMARK  status: ('A' for Active; 'I' for Inactive)
REMARK    1  A    between atoms: C_1  and  C_2
REMARK    2  A    between atoms: C_6  and  C_7
REMARK    3  A    between atoms: N_8  and  S_9
REMARK    4  A    between atoms: S_9  and  C_12
REMARK    5  A    between atoms: C_15  and  N_16
REMARK    6  A    between atoms: C_17  and  C_19
REMARK    7  A    between atoms: C_19  and  N_20
REMARK    8  A    between atoms: N_20  and  C_21
REMARK                            x       y       z     vdW  Elec       q    Type
REMARK                         _______ _______ _______ _____ _____    ______ ____
ROOT
ATOM      1  C   UNL     1       2.686   6.958  18.991  0.00  0.00    +0.000 A 
ATOM      2  C   UNL     1       2.040   7.219  20.200  0.00  0.00    +0.000 A 
ATOM      3  C   UNL     1       1.314   8.406  20.362  0.00  0.00    +0.000 A 
ATOM      4  C   UNL     1       1.213   9.330  19.319  0.00  0.00    +0.000 A 
ATOM      5  C   UNL     1       1.906   9.090  18.134  0.00  0.00    +0.000 A 
ATOM      6  C   UNL     1       2.679   7.930  17.989  0.00  0.00    +0.000 A 
ENDROOT
BRANCH   4   7
ATOM      7  N   UNL     1       0.462  10.524  19.406  0.00  0.00    +0.000 N 
ATOM      8  C   UNL     1      -0.689  10.840  18.701  0.00  0.00    +0.000 C 
ATOM      9  O   UNL     1      -1.244  10.141  17.854  0.00  0.00    +0.000 OA
ATOM     10  H   UNL     1       0.797  11.212  20.070  0.00  0.00    +0.000 HD
BRANCH   8  11
ATOM     11  C   UNL     1      -1.309  12.177  19.123  0.00  0.00    +0.000 C 
BRANCH  11  12
ATOM     12  N   UNL     1      -0.813  13.276  18.275  0.00  0.00    +0.000 NA
ATOM     13  H   UNL     1      -1.625  13.843  18.009  0.00  0.00    +0.000 HD
BRANCH  12  14
ATOM     14  C   UNL     1       0.149  14.144  18.952  0.00  0.00    +0.000 C 
ATOM     15  C   UNL     1       1.603  13.928  18.537  0.00  0.00    +0.000 C 
ATOM     16  C   UNL     1       2.298  15.197  19.014  0.00  0.00    +0.000 C 
ATOM     17  C   UNL     1       1.242  16.301  18.941  0.00  0.00    +0.000 C 
ATOM     18  C   UNL     1      -0.076  15.612  18.590  0.00  0.00    +0.000 C 
ENDBRANCH  12  14
ENDBRANCH  11  12
ENDBRANCH   8  11
ENDBRANCH   4   7
BRANCH   1  19
ATOM     19  S   UNL     1       3.669   5.475  18.832  0.00  0.00    +0.000 S 
ATOM     20  O   UNL     1       4.769   5.624  19.765  0.00  0.00    +0.000 OA
ATOM     21  O   UNL     1       3.932   5.289  17.420  0.00  0.00    +0.000 OA
BRANCH  19  29
ATOM     22  C   UNL     1       2.257   2.559  21.290  0.00  0.00    +0.000 C 
ATOM     23  C   UNL     1       3.294   3.307  20.439  0.00  0.00    +0.000 C 
ATOM     24  C   UNL     1       4.267   2.344  19.749  0.00  0.00    +0.000 C 
ATOM     25  C   UNL     1       3.606   1.524  18.641  0.00  0.00    +0.000 C 
ATOM     26  C   UNL     1       2.800   2.389  17.674  0.00  0.00    +0.000 C 
ATOM     27  C   UNL     1       1.871   3.369  18.401  0.00  0.00    +0.000 C 
ATOM     28  C   UNL     1       1.019   4.167  17.433  0.00  0.00    +0.000 C 
ATOM     29  N   UNL     1       2.639   4.197  19.402  0.00  0.00    +0.000 NA
ENDBRANCH  19  29
ENDBRANCH   1  19
TORSDOF 6
ENDMDL
MODEL 5
REMARK VINA RESULT:      -7.7      0.834      1.218
REMARK  Name = 
REMARK  8 active torsions:
REMARK  status: ('A' for Active; 'I' for Inactive)
REMARK    1  A    between atoms: C_1  and  C_2
REMARK    2  A    between atoms: C_6  and  C_7
REMARK    3  A    between atoms: N_8  and  S_9
REMARK    4  A    between atoms: S_9  and  C_12
REMARK    5  A    between atoms: C_15  and  N_16
REMARK    6  A    between atoms: C_17  and  C_19
REMARK    7  A    between atoms: C_19  and  N_20
REMARK    8  A    between atoms: N_20  and  C_21
REMARK                            x       y       z     vdW  Elec       q    Type
REMARK                         _______ _______ _______ _____ _____    ______ ____
ROOT
ATOM      1  C   UNL     1       2.895   6.982  18.886  0.00  0.00    +0.000 A 
ATOM      2  C   UNL     1       2.853   7.810  17.764  0.00  0.00    +0.000 A 
ATOM      3  C   UNL     1       2.094   8.987  17.793  0.00  0.00    +0.000 A 
ATOM      4  C   UNL     1       1.387   9.354  18.940  0.00  0.00    +0.000 A 
ATOM      5  C   UNL     1       1.387   8.494  20.037  0.00  0.00    +0.000 A 
ATOM      6  C   UNL     1       2.100   7.289  19.992  0.00  0.00    +0.000 A 
ENDROOT
BRANCH   4   7
ATOM      7  N   UNL     1       0.637  10.547  19.044  0.00  0.00    +0.000 N 
ATOM      8  C   UNL     1      -0.575  10.828  18.433  0.00  0.00    +0.000 C 
ATOM      9  O   UNL     1      -1.198  10.092  17.670  0.00  0.00    +0.000 OA
ATOM     10  H   UNL     1       1.025  11.264  19.646  0.00  0.00    +0.000 HD
BRANCH   8  11
ATOM     11  C   UNL     1      -1.166  12.179  18.853  0.00  0.00    +0.000 C 
BRANCH  11  12
ATOM     12  N   UNL     1      -2.630  12.187  18.685  0.00  0.00    +0.000 NA
ATOM     13  H   UNL     1      -2.893  11.281  18.281  0.00  0.00    +0.000 HD
BRANCH  12  14
ATOM     14  C   UNL     1      -3.359  12.357  19.940  0.00  0.00    +0.000 C 
ATOM     15  C   UNL     1      -2.939  13.576  20.759  0.00  0.00    +0.000 C 
ATOM     16  C   UNL     1      -4.101  13.770  21.724  0.00  0.00    +0.000 C 
ATOM     17  C   UNL     1      -5.342  13.261  20.988  0.00  0.00    +0.000 C 
ATOM     18  C   UNL     1      -4.842  12.631  19.689  0.00  0.00    +0.000 C 
ENDBRANCH  12  14
ENDBRANCH  11  12
ENDBRANCH   8  11
ENDBRANCH   4   7
BRANCH   1  19
ATOM     19  S   UNL     1       3.808   5.449  18.803  0.00  0.00    +0.000 S 
ATOM     20  O   UNL     1       4.898   5.584  19.750  0.00  0.00    +0.000 OA
ATOM     21  O   UNL     1       4.085   5.194  17.405  0.00  0.00    +0.000 OA
BRANCH  19  29
ATOM     22  C   UNL     1       2.241   2.675  21.330  0.00  0.00    +0.000 C 
ATOM     23  C   UNL     1       3.316   3.342  20.460  0.00  0.00    +0.000 C 
ATOM     24  C   UNL     1       4.229   2.309  19.790  0.00  0.00    +0.000 C 
ATOM     25  C   UNL     1       3.517   1.505  18.702  0.00  0.00    +0.000 C 
ATOM     26  C   UNL     1       2.759   2.393  17.718  0.00  0.00    +0.000 C 
ATOM     27  C   UNL     1       1.890   3.441  18.425  0.00  0.00    +0.000 C 
ATOM     28  C   UNL     1       1.082   4.265  17.441  0.00  0.00    +0.000 C 
ATOM     29  N   UNL     1       2.709   4.245  19.405  0.00  0.00    +0.000 NA
ENDBRANCH  19  29
ENDBRANCH   1  19
TORSDOF 6
ENDMDL
MODEL 6
REMARK VINA RESULT:      -7.6      2.555      3.941
REMARK  Name = 
REMARK  8 active torsions:
REMARK  status: ('A' for Active; 'I' for Inactive)
REMARK    1  A    between atoms: C_1  and  C_2
REMARK    2  A    between atoms: C_6  and  C_7
REMARK    3  A    between atoms: N_8  and  S_9
REMARK    4  A    between atoms: S_9  and  C_12
REMARK    5  A    between atoms: C_15  and  N_16
REMARK    6  A    between atoms: C_17  and  C_19
REMARK    7  A    between atoms: C_19  and  N_20
REMARK    8  A    between atoms: N_20  and  C_21
REMARK                            x       y       z     vdW  Elec       q    Type
REMARK                         _______ _______ _______ _____ _____    ______ ____
ROOT
ATOM      1  C   UNL     1       2.815   6.894  18.902  0.00  0.00    +0.000 A 
ATOM      2  C   UNL     1       2.121   7.181  20.077  0.00  0.00    +0.000 A 
ATOM      3  C   UNL     1       1.417   8.386  20.196  0.00  0.00    +0.000 A 
ATOM      4  C   UNL     1       1.386   9.303  19.143  0.00  0.00    +0.000 A 
ATOM      5  C   UNL     1       2.128   9.036  17.993  0.00  0.00    +0.000 A 
ATOM      6  C   UNL     1       2.878   7.857  17.893  0.00  0.00    +0.000 A 
ENDROOT
BRANCH   4   7
ATOM      7  N   UNL     1       0.662  10.515  19.186  0.00  0.00    +0.000 N 
ATOM      8  C   UNL     1       0.573  11.397  20.253  0.00  0.00    +0.000 C 
ATOM      9  O   UNL     1       1.092  11.263  21.359  0.00  0.00    +0.000 OA
ATOM     10  H   UNL     1       0.170  10.769  18.338  0.00  0.00    +0.000 HD
BRANCH   8  11
ATOM     11  C   UNL     1      -0.210  12.673  19.918  0.00  0.00    +0.000 C 
BRANCH  11  12
ATOM     12  N   UNL     1       0.369  13.351  18.745  0.00  0.00    +0.000 NA
ATOM     13  H   UNL     1      -0.296  14.075  18.455  0.00  0.00    +0.000 HD
BRANCH  12  14
ATOM     14  C   UNL     1       1.653  13.994  19.020  0.00  0.00    +0.000 C 
ATOM     15  C   UNL     1       2.818  13.472  18.181  0.00  0.00    +0.000 C 
ATOM     16  C   UNL     1       3.871  14.563  18.323  0.00  0.00    +0.000 C 
ATOM     17  C   UNL     1       3.095  15.867  18.510  0.00  0.00    +0.000 C 
ATOM     18  C   UNL     1       1.624  15.476  18.645  0.00  0.00    +0.000 C 
ENDBRANCH  12  14
ENDBRANCH  11  12
ENDBRANCH   8  11
ENDBRANCH   4   7
BRANCH   1  19
ATOM     19  S   UNL     1       3.767   5.386  18.799  0.00  0.00    +0.000 S 
ATOM     20  O   UNL     1       4.860   5.541  19.740  0.00  0.00    +0.000 OA
ATOM     21  O   UNL     1       4.042   5.151  17.397  0.00  0.00    +0.000 OA
BRANCH  19  29
ATOM     22  C   UNL     1       2.297   2.542  21.306  0.00  0.00    +0.000 C 
ATOM     23  C   UNL     1       3.346   3.247  20.433  0.00  0.00    +0.000 C 
ATOM     24  C   UNL     1       4.276   2.246  19.740  0.00  0.00    +0.000 C 
ATOM     25  C   UNL     1       3.573   1.438  18.650  0.00  0.00    +0.000 C 
ATOM     26  C   UNL     1       2.782   2.319  17.686  0.00  0.00    +0.000 C 
ATOM     27  C   UNL     1       1.895   3.336  18.415  0.00  0.00    +0.000 C 
ATOM     28  C   UNL     1       1.057   4.152  17.451  0.00  0.00    +0.000 C 
ATOM     29  N   UNL     1       2.705   4.148  19.397  0.00  0.00    +0.000 NA
ENDBRANCH  19  29
ENDBRANCH   1  19
TORSDOF 6
ENDMDL
MODEL 7
REMARK VINA RESULT:      -7.6      0.999      1.227
REMARK  Name = 
REMARK  8 active torsions:
REMARK  status: ('A' for Active; 'I' for Inactive)
REMARK    1  A    between atoms: C_1  and  C_2
REMARK    2  A    between atoms: C_6  and  C_7
REMARK    3  A    between atoms: N_8  and  S_9
REMARK    4  A    between atoms: S_9  and  C_12
REMARK    5  A    between atoms: C_15  and  N_16
REMARK    6  A    between atoms: C_17  and  C_19
REMARK    7  A    between atoms: C_19  and  N_20
REMARK    8  A    between atoms: N_20  and  C_21
REMARK                            x       y       z     vdW  Elec       q    Type
REMARK                         _______ _______ _______ _____ _____    ______ ____
ROOT
ATOM      1  C   UNL     1       2.919   6.939  18.884  0.00  0.00    +0.000 A 
ATOM      2  C   UNL     1       2.827   7.744  17.749  0.00  0.00    +0.000 A 
ATOM      3  C   UNL     1       2.081   8.929  17.792  0.00  0.00    +0.000 A 
ATOM      4  C   UNL     1       1.440   9.328  18.967  0.00  0.00    +0.000 A 
ATOM      5  C   UNL     1       1.490   8.492  20.081  0.00  0.00    +0.000 A 
ATOM      6  C   UNL     1       2.187   7.278  20.024  0.00  0.00    +0.000 A 
ENDROOT
BRANCH   4   7
ATOM      7  N   UNL     1       0.709  10.532  19.086  0.00  0.00    +0.000 N 
ATOM      8  C   UNL     1      -0.354  10.782  19.939  0.00  0.00    +0.000 C 
ATOM      9  O   UNL     1      -0.864   9.987  20.726  0.00  0.00    +0.000 OA
ATOM     10  H   UNL     1       1.011  11.295  18.492  0.00  0.00    +0.000 HD
BRANCH   8  11
ATOM     11  C   UNL     1      -0.843  12.234  19.886  0.00  0.00    +0.000 C 
BRANCH  11  12
ATOM     12  N   UNL     1      -1.547  12.505  18.619  0.00  0.00    +0.000 NA
ATOM     13  H   UNL     1      -0.835  12.549  17.882  0.00  0.00    +0.000 HD
BRANCH  12  14
ATOM     14  C   UNL     1      -2.515  11.471  18.260  0.00  0.00    +0.000 C 
ATOM     15  C   UNL     1      -3.975  11.862  18.481  0.00  0.00    +0.000 C 
ATOM     16  C   UNL     1      -4.742  10.850  17.640  0.00  0.00    +0.000 C 
ATOM     17  C   UNL     1      -3.820  10.496  16.473  0.00  0.00    +0.000 C 
ATOM     18  C   UNL     1      -2.483  11.177  16.759  0.00  0.00    +0.000 C 
ENDBRANCH  12  14
ENDBRANCH  11  12
ENDBRANCH   8  11
ENDBRANCH   4   7
BRANCH   1  19
ATOM     19  S   UNL     1       3.811   5.394  18.787  0.00  0.00    +0.000 S 
ATOM     20  O   UNL     1       4.898   5.501  19.741  0.00  0.00    +0.000 OA
ATOM     21  O   UNL     1       4.092   5.154  17.387  0.00  0.00    +0.000 OA
BRANCH  19  29
ATOM     22  C   UNL     1       2.183   2.620  21.275  0.00  0.00    +0.000 C 
ATOM     23  C   UNL     1       3.276   3.282  20.422  0.00  0.00    +0.000 C 
ATOM     24  C   UNL     1       4.186   2.244  19.756  0.00  0.00    +0.000 C 
ATOM     25  C   UNL     1       3.479   1.455  18.654  0.00  0.00    +0.000 C 
ATOM     26  C   UNL     1       2.742   2.358  17.667  0.00  0.00    +0.000 C 
ATOM     27  C   UNL     1       1.876   3.410  18.371  0.00  0.00    +0.000 C 
ATOM     28  C   UNL     1       1.089   4.250  17.383  0.00  0.00    +0.000 C 
ATOM     29  N   UNL     1       2.691   4.199  19.366  0.00  0.00    +0.000 NA
ENDBRANCH  19  29
ENDBRANCH   1  19
TORSDOF 6
ENDMDL
MODEL 8
REMARK VINA RESULT:      -7.6      1.971      2.545
REMARK  Name = 
REMARK  8 active torsions:
REMARK  status: ('A' for Active; 'I' for Inactive)
REMARK    1  A    between atoms: C_1  and  C_2
REMARK    2  A    between atoms: C_6  and  C_7
REMARK    3  A    between atoms: N_8  and  S_9
REMARK    4  A    between atoms: S_9  and  C_12
REMARK    5  A    between atoms: C_15  and  N_16
REMARK    6  A    between atoms: C_17  and  C_19
REMARK    7  A    between atoms: C_19  and  N_20
REMARK    8  A    between atoms: N_20  and  C_21
REMARK                            x       y       z     vdW  Elec       q    Type
REMARK                         _______ _______ _______ _____ _____    ______ ____
ROOT
ATOM      1  C   UNL     1       2.689   6.880  19.000  0.00  0.00    +0.000 A 
ATOM      2  C   UNL     1       2.115   7.169  20.239  0.00  0.00    +0.000 A 
ATOM      3  C   UNL     1       1.394   8.357  20.414  0.00  0.00    +0.000 A 
ATOM      4  C   UNL     1       1.225   9.254  19.357  0.00  0.00    +0.000 A 
ATOM      5  C   UNL     1       1.847   8.986  18.139  0.00  0.00    +0.000 A 
ATOM      6  C   UNL     1       2.617   7.827  17.977  0.00  0.00    +0.000 A 
ENDROOT
BRANCH   4   7
ATOM      7  N   UNL     1       0.474  10.446  19.459  0.00  0.00    +0.000 N 
ATOM      8  C   UNL     1       0.465  11.339  20.520  0.00  0.00    +0.000 C 
ATOM      9  O   UNL     1       1.094  11.232  21.571  0.00  0.00    +0.000 OA
ATOM     10  H   UNL     1      -0.106  10.676  18.661  0.00  0.00    +0.000 HD
BRANCH   8  11
ATOM     11  C   UNL     1      -0.382  12.589  20.252  0.00  0.00    +0.000 C 
BRANCH  11  12
ATOM     12  N   UNL     1      -1.819  12.282  20.366  0.00  0.00    +0.000 NA
ATOM     13  H   UNL     1      -1.906  11.263  20.432  0.00  0.00    +0.000 HD
BRANCH  12  14
ATOM     14  C   UNL     1      -2.448  12.872  21.546  0.00  0.00    +0.000 C 
ATOM     15  C   UNL     1      -3.963  13.034  21.445  0.00  0.00    +0.000 C 
ATOM     16  C   UNL     1      -4.395  13.223  22.894  0.00  0.00    +0.000 C 
ATOM     17  C   UNL     1      -3.384  12.441  23.733  0.00  0.00    +0.000 C 
ATOM     18  C   UNL     1      -2.300  11.965  22.768  0.00  0.00    +0.000 C 
ENDBRANCH  12  14
ENDBRANCH  11  12
ENDBRANCH   8  11
ENDBRANCH   4   7
BRANCH   1  19
ATOM     19  S   UNL     1       3.668   5.398  18.819  0.00  0.00    +0.000 S 
ATOM     20  O   UNL     1       4.775   5.537  19.745  0.00  0.00    +0.000 OA
ATOM     21  O   UNL     1       3.921   5.226  17.403  0.00  0.00    +0.000 OA
BRANCH  19  29
ATOM     22  C   UNL     1       2.261   2.472  21.267  0.00  0.00    +0.000 C 
ATOM     23  C   UNL     1       3.298   3.224  20.420  0.00  0.00    +0.000 C 
ATOM     24  C   UNL     1       4.274   2.266  19.729  0.00  0.00    +0.000 C 
ATOM     25  C   UNL     1       3.617   1.447  18.618  0.00  0.00    +0.000 C 
ATOM     26  C   UNL     1       2.810   2.312  17.652  0.00  0.00    +0.000 C 
ATOM     27  C   UNL     1       1.877   3.288  18.380  0.00  0.00    +0.000 C 
ATOM     28  C   UNL     1       1.025   4.086  17.412  0.00  0.00    +0.000 C 
ATOM     29  N   UNL     1       2.641   4.115  19.384  0.00  0.00    +0.000 NA
ENDBRANCH  19  29
ENDBRANCH   1  19
TORSDOF 6
ENDMDL
MODEL 9
REMARK VINA RESULT:      -7.6      2.550      9.063
REMARK  Name = 
REMARK  8 active torsions:
REMARK  status: ('A' for Active; 'I' for Inactive)
REMARK    1  A    between atoms: C_1  and  C_2
REMARK    2  A    between atoms: C_6  and  C_7
REMARK    3  A    between atoms: N_8  and  S_9
REMARK    4  A    between atoms: S_9  and  C_12
REMARK    5  A    between atoms: C_15  and  N_16
REMARK    6  A    between atoms: C_17  and  C_19
REMARK    7  A    between atoms: C_19  and  N_20
REMARK    8  A    between atoms: N_20  and  C_21
REMARK                            x       y       z     vdW  Elec       q    Type
REMARK                         _______ _______ _______ _____ _____    ______ ____
ROOT
ATOM      1  C   UNL     1       1.250   9.299  19.657  0.00  0.00    +0.000 A 
ATOM      2  C   UNL     1       1.692   9.257  18.335  0.00  0.00    +0.000 A 
ATOM      3  C   UNL     1       2.322   8.106  17.845  0.00  0.00    +0.000 A 
ATOM      4  C   UNL     1       2.501   6.987  18.661  0.00  0.00    +0.000 A 
ATOM      5  C   UNL     1       2.109   7.055  19.996  0.00  0.00    +0.000 A 
ATOM      6  C   UNL     1       1.529   8.225  20.505  0.00  0.00    +0.000 A 
ENDROOT
BRANCH   4   7
ATOM      7  N   UNL     1       3.091   5.783  18.213  0.00  0.00    +0.000 N 
ATOM      8  C   UNL     1       4.437   5.551  17.975  0.00  0.00    +0.000 C 
ATOM      9  O   UNL     1       5.351   6.366  18.088  0.00  0.00    +0.000 OA
ATOM     10  H   UNL     1       2.458   5.006  18.069  0.00  0.00    +0.000 HD
BRANCH   8  11
ATOM     11  C   UNL     1       4.743   4.096  17.604  0.00  0.00    +0.000 C 
BRANCH  11  12
ATOM     12  N   UNL     1       5.034   3.297  18.808  0.00  0.00    +0.000 NA
ATOM     13  H   UNL     1       5.299   3.954  19.549  0.00  0.00    +0.000 HD
BRANCH  12  14
ATOM     14  C   UNL     1       3.892   2.515  19.276  0.00  0.00    +0.000 C 
ATOM     15  C   UNL     1       3.060   3.193  20.363  0.00  0.00    +0.000 C 
ATOM     16  C   UNL     1       1.749   2.418  20.339  0.00  0.00    +0.000 C 
ATOM     17  C   UNL     1       1.573   1.946  18.894  0.00  0.00    +0.000 C 
ATOM     18  C   UNL     1       2.864   2.310  18.163  0.00  0.00    +0.000 C 
ENDBRANCH  12  14
ENDBRANCH  11  12
ENDBRANCH   8  11
ENDBRANCH   4   7
BRANCH   1  19
ATOM     19  S   UNL     1       0.518  10.803  20.284  0.00  0.00    +0.000 S 
ATOM     20  O   UNL     1       1.281  11.153  21.467  0.00  0.00    +0.000 OA
ATOM     21  O   UNL     1      -0.908  10.574  20.380  0.00  0.00    +0.000 OA
BRANCH  19  29
ATOM     22  C   UNL     1       2.591  13.543  18.108  0.00  0.00    +0.000 C 
ATOM     23  C   UNL     1       2.014  12.890  19.373  0.00  0.00    +0.000 C 
ATOM     24  C   UNL     1       1.604  13.935  20.418  0.00  0.00    +0.000 C 
ATOM     25  C   UNL     1       0.379  14.746  19.996  0.00  0.00    +0.000 C 
ATOM     26  C   UNL     1      -0.772  13.863  19.517  0.00  0.00    +0.000 C 
ATOM     27  C   UNL     1      -0.315  12.803  18.507  0.00  0.00    +0.000 C 
ATOM     28  C   UNL     1      -1.477  11.984  17.980  0.00  0.00    +0.000 C 
ATOM     29  N   UNL     1       0.833  11.994  19.059  0.00  0.00    +0.000 NA
ENDBRANCH  19  29
ENDBRANCH   1  19
TORSDOF 6
ENDMDL
