MODEL 1
REMARK VINA RESULT:      -8.7      0.000      0.000
REMARK  Name = 
REMARK  4 active torsions:
REMARK  status: ('A' for Active; 'I' for Inactive)
REMARK    1  A    between atoms: C_1  and  C_2
REMARK    2  A    between atoms: C_3  and  C_4
REMARK    3  A    between atoms: C_4  and  C_6
REMARK    4  A    between atoms: C_12  and  C_13
REMARK                            x       y       z     vdW  Elec       q    Type
REMARK                         _______ _______ _______ _____ _____    ______ ____
ROOT
ATOM      1  C   UNL     1       8.001   7.708  17.013  0.00  0.00    +0.000 C 
ATOM      2  C   UNL     1       7.316   6.601  17.788  0.00  0.00    +0.000 C 
ATOM      3  C   UNL     1       6.266   5.792  17.458  0.00  0.00    +0.000 C 
ATOM      4  C   UNL     1       5.967   4.499  18.348  0.00  0.00    +0.000 C 
ATOM      5  N   UNL     1       6.537   4.729  19.679  0.00  0.00    +0.000 N 
ATOM      6  C   UNL     1       7.599   5.517  19.941  0.00  0.00    +0.000 C 
ATOM      7  O   UNL     1       8.202   5.442  21.004  0.00  0.00    +0.000 OA
ATOM      8  N   UNL     1       7.943   6.403  18.987  0.00  0.00    +0.000 N 
ATOM      9  H   UNL     1       6.490   3.998  20.374  0.00  0.00    +0.000 HD
ATOM     10  H   UNL     1       8.721   7.002  19.249  0.00  0.00    +0.000 HD
ENDROOT
BRANCH   4  11
ATOM     11  C   UNL     1       4.527   3.859  18.507  0.00  0.00    +0.000 C 
ATOM     12  C   UNL     1       4.094   3.184  17.240  0.00  0.00    +0.000 C 
ATOM     13  N   UNL     1       2.833   3.138  16.952  0.00  0.00    +0.000 NA
ATOM     14  C   UNL     1       2.149   4.007  17.921  0.00  0.00    +0.000 C 
ATOM     15  C   UNL     1       1.148   3.275  18.770  0.00  0.00    +0.000 C 
ATOM     16  C   UNL     1       0.856   3.717  20.004  0.00  0.00    +0.000 C 
ATOM     17  C   UNL     1       1.587   4.829  20.570  0.00  0.00    +0.000 C 
ATOM     18  C   UNL     1       2.753   5.254  20.042  0.00  0.00    +0.000 C 
ATOM     19  C   UNL     1       3.260   4.776  18.687  0.00  0.00    +0.000 C 
ENDBRANCH   4  11
BRANCH   3  20
ATOM     20  C   UNL     1       5.530   5.941  16.139  0.00  0.00    +0.000 C 
ATOM     21  O   UNL     1       4.574   6.708  16.064  0.00  0.00    +0.000 OA
BRANCH  20  22
ATOM     22  C   UNL     1       5.909   5.145  14.918  0.00  0.00    +0.000 A 
ATOM     23  C   UNL     1       7.188   5.311  14.352  0.00  0.00    +0.000 A 
ATOM     24  C   UNL     1       7.508   4.727  13.111  0.00  0.00    +0.000 A 
ATOM     25  C   UNL     1       6.555   3.976  12.427  0.00  0.00    +0.000 A 
ATOM     26  C   UNL     1       5.308   3.760  13.003  0.00  0.00    +0.000 A 
ATOM     27  C   UNL     1       4.996   4.308  14.262  0.00  0.00    +0.000 A 
ENDBRANCH  20  22
ENDBRANCH   3  20
TORSDOF 3
ENDMDL
MODEL 2
REMARK VINA RESULT:      -8.6      2.446      6.074
REMARK  Name = 
REMARK  4 active torsions:
REMARK  status: ('A' for Active; 'I' for Inactive)
REMARK    1  A    between atoms: C_1  and  C_2
REMARK    2  A    between atoms: C_3  and  C_4
REMARK    3  A    between atoms: C_4  and  C_6
REMARK    4  A    between atoms: C_12  and  C_13
REMARK                            x       y       z     vdW  Elec       q    Type
REMARK                         _______ _______ _______ _____ _____    ______ ____
ROOT
ATOM      1  C   UNL     1       1.071   2.916  20.275  0.00  0.00    +0.000 C 
ATOM      2  C   UNL     1       2.523   3.161  19.920  0.00  0.00    +0.000 C 
ATOM      3  C   UNL     1       3.102   4.090  19.102  0.00  0.00    +0.000 C 
ATOM      4  C   UNL     1       4.683   4.314  19.172  0.00  0.00    +0.000 C 
ATOM      5  N   UNL     1       5.287   3.089  19.705  0.00  0.00    +0.000 N 
ATOM      6  C   UNL     1       4.675   2.222  20.536  0.00  0.00    +0.000 C 
ATOM      7  O   UNL     1       5.311   1.390  21.171  0.00  0.00    +0.000 OA
ATOM      8  N   UNL     1       3.333   2.304  20.613  0.00  0.00    +0.000 N 
ATOM      9  H   UNL     1       6.282   3.054  19.867  0.00  0.00    +0.000 HD
ATOM     10  H   UNL     1       2.916   1.603  21.219  0.00  0.00    +0.000 HD
ENDROOT
BRANCH   4  11
ATOM     11  C   UNL     1       5.550   4.827  17.949  0.00  0.00    +0.000 C 
ATOM     12  C   UNL     1       5.742   6.312  18.011  0.00  0.00    +0.000 C 
ATOM     13  N   UNL     1       5.868   6.977  16.907  0.00  0.00    +0.000 NA
ATOM     14  C   UNL     1       5.557   6.039  15.816  0.00  0.00    +0.000 C 
ATOM     15  C   UNL     1       6.705   5.830  14.870  0.00  0.00    +0.000 C 
ATOM     16  C   UNL     1       6.823   4.675  14.196  0.00  0.00    +0.000 C 
ATOM     17  C   UNL     1       5.916   3.581  14.464  0.00  0.00    +0.000 C 
ATOM     18  C   UNL     1       5.146   3.552  15.571  0.00  0.00    +0.000 C 
ATOM     19  C   UNL     1       4.981   4.761  16.483  0.00  0.00    +0.000 C 
ENDBRANCH   4  11
BRANCH   3  20
ATOM     20  C   UNL     1       2.271   5.084  18.313  0.00  0.00    +0.000 C 
ATOM     21  O   UNL     1       1.677   4.710  17.306  0.00  0.00    +0.000 OA
BRANCH  20  22
ATOM     22  C   UNL     1       2.179   6.537  18.702  0.00  0.00    +0.000 A 
ATOM     23  C   UNL     1       1.915   6.879  20.042  0.00  0.00    +0.000 A 
ATOM     24  C   UNL     1       1.640   8.212  20.405  0.00  0.00    +0.000 A 
ATOM     25  C   UNL     1       1.623   9.210  19.433  0.00  0.00    +0.000 A 
ATOM     26  C   UNL     1       1.937   8.892  18.116  0.00  0.00    +0.000 A 
ATOM     27  C   UNL     1       2.253   7.567  17.756  0.00  0.00    +0.000 A 
ENDBRANCH  20  22
ENDBRANCH   3  20
TORSDOF 3
ENDMDL
MODEL 3
REMARK VINA RESULT:      -8.3      3.271      5.909
REMARK  Name = 
REMARK  4 active torsions:
REMARK  status: ('A' for Active; 'I' for Inactive)
REMARK    1  A    between atoms: C_1  and  C_2
REMARK    2  A    between atoms: C_3  and  C_4
REMARK    3  A    between atoms: C_4  and  C_6
REMARK    4  A    between atoms: C_12  and  C_13
REMARK                            x       y       z     vdW  Elec       q    Type
REMARK                         _______ _______ _______ _____ _____    ______ ____
ROOT
ATOM      1  C   UNL     1       4.728   3.305  16.449  0.00  0.00    +0.000 C 
ATOM      2  C   UNL     1       4.411   4.705  16.933  0.00  0.00    +0.000 C 
ATOM      3  C   UNL     1       3.337   5.196  17.620  0.00  0.00    +0.000 C 
ATOM      4  C   UNL     1       3.426   6.652  18.272  0.00  0.00    +0.000 C 
ATOM      5  N   UNL     1       4.443   7.411  17.538  0.00  0.00    +0.000 N 
ATOM      6  C   UNL     1       5.503   6.873  16.903  0.00  0.00    +0.000 C 
ATOM      7  O   UNL     1       6.460   7.559  16.564  0.00  0.00    +0.000 OA
ATOM      8  N   UNL     1       5.443   5.554  16.640  0.00  0.00    +0.000 N 
ATOM      9  H   UNL     1       4.677   8.347  17.836  0.00  0.00    +0.000 HD
ATOM     10  H   UNL     1       6.245   5.205  16.123  0.00  0.00    +0.000 HD
ENDROOT
BRANCH   4  11
ATOM     11  C   UNL     1       2.167   7.580  18.520  0.00  0.00    +0.000 C 
ATOM     12  C   UNL     1       2.173   8.756  17.591  0.00  0.00    +0.000 C 
ATOM     13  N   UNL     1       1.640   9.869  17.983  0.00  0.00    +0.000 NA
ATOM     14  C   UNL     1       1.343   9.710  19.415  0.00  0.00    +0.000 C 
ATOM     15  C   UNL     1      -0.120   9.843  19.734  0.00  0.00    +0.000 C 
ATOM     16  C   UNL     1      -0.639   9.212  20.799  0.00  0.00    +0.000 C 
ATOM     17  C   UNL     1       0.177   8.307  21.578  0.00  0.00    +0.000 C 
ATOM     18  C   UNL     1       1.349   7.830  21.111  0.00  0.00    +0.000 C 
ATOM     19  C   UNL     1       2.021   8.388  19.863  0.00  0.00    +0.000 C 
ENDBRANCH   4  11
BRANCH   3  20
ATOM     20  C   UNL     1       2.161   4.313  17.993  0.00  0.00    +0.000 C 
ATOM     21  O   UNL     1       1.200   4.233  17.233  0.00  0.00    +0.000 OA
BRANCH  20  22
ATOM     22  C   UNL     1       2.111   3.556  19.294  0.00  0.00    +0.000 A 
ATOM     23  C   UNL     1       0.956   3.630  20.096  0.00  0.00    +0.000 A 
ATOM     24  C   UNL     1       0.944   3.090  21.396  0.00  0.00    +0.000 A 
ATOM     25  C   UNL     1       2.086   2.476  21.906  0.00  0.00    +0.000 A 
ATOM     26  C   UNL     1       3.215   2.349  21.104  0.00  0.00    +0.000 A 
ATOM     27  C   UNL     1       3.217   2.851  19.787  0.00  0.00    +0.000 A 
ENDBRANCH  20  22
ENDBRANCH   3  20
TORSDOF 3
ENDMDL
MODEL 4
REMARK VINA RESULT:      -8.2      2.622      4.041
REMARK  Name = 
REMARK  4 active torsions:
REMARK  status: ('A' for Active; 'I' for Inactive)
REMARK    1  A    between atoms: C_1  and  C_2
REMARK    2  A    between atoms: C_3  and  C_4
REMARK    3  A    between atoms: C_4  and  C_6
REMARK    4  A    between atoms: C_12  and  C_13
REMARK                            x       y       z     vdW  Elec       q    Type
REMARK                         _______ _______ _______ _____ _____    ______ ____
ROOT
ATOM      1  C   UNL     1       7.266   8.372  17.439  0.00  0.00    +0.000 C 
ATOM      2  C   UNL     1       6.891   7.040  18.055  0.00  0.00    +0.000 C 
ATOM      3  C   UNL     1       5.737   6.312  17.988  0.00  0.00    +0.000 C 
ATOM      4  C   UNL     1       5.743   4.791  18.477  0.00  0.00    +0.000 C 
ATOM      5  N   UNL     1       6.849   4.628  19.424  0.00  0.00    +0.000 N 
ATOM      6  C   UNL     1       7.983   5.358  19.424  0.00  0.00    +0.000 C 
ATOM      7  O   UNL     1       8.978   4.991  20.037  0.00  0.00    +0.000 OA
ATOM      8  N   UNL     1       7.956   6.516  18.737  0.00  0.00    +0.000 N 
ATOM      9  H   UNL     1       7.045   3.716  19.809  0.00  0.00    +0.000 HD
ATOM     10  H   UNL     1       8.818   7.049  18.802  0.00  0.00    +0.000 HD
ENDROOT
BRANCH   4  11
ATOM     11  C   UNL     1       4.464   4.048  19.043  0.00  0.00    +0.000 C 
ATOM     12  C   UNL     1       4.852   2.854  19.861  0.00  0.00    +0.000 C 
ATOM     13  N   UNL     1       4.055   1.834  19.902  0.00  0.00    +0.000 NA
ATOM     14  C   UNL     1       3.013   2.076  18.893  0.00  0.00    +0.000 C 
ATOM     15  C   UNL     1       1.630   2.150  19.477  0.00  0.00    +0.000 C 
ATOM     16  C   UNL     1       0.678   2.877  18.870  0.00  0.00    +0.000 C 
ATOM     17  C   UNL     1       1.007   3.689  17.719  0.00  0.00    +0.000 C 
ATOM     18  C   UNL     1       2.283   3.990  17.404  0.00  0.00    +0.000 C 
ATOM     19  C   UNL     1       3.472   3.309  18.069  0.00  0.00    +0.000 C 
ENDBRANCH   4  11
BRANCH   3  20
ATOM     20  C   UNL     1       4.520   6.821  17.238  0.00  0.00    +0.000 C 
ATOM     21  O   UNL     1       4.503   6.775  16.011  0.00  0.00    +0.000 OA
BRANCH  20  22
ATOM     22  C   UNL     1       3.336   7.422  17.950  0.00  0.00    +0.000 A 
ATOM     23  C   UNL     1       2.699   8.552  17.402  0.00  0.00    +0.000 A 
ATOM     24  C   UNL     1       1.714   9.248  18.129  0.00  0.00    +0.000 A 
ATOM     25  C   UNL     1       1.362   8.823  19.408  0.00  0.00    +0.000 A 
ATOM     26  C   UNL     1       1.945   7.677  19.937  0.00  0.00    +0.000 A 
ATOM     27  C   UNL     1       2.901   6.954  19.196  0.00  0.00    +0.000 A 
ENDBRANCH  20  22
ENDBRANCH   3  20
TORSDOF 3
ENDMDL
MODEL 5
REMARK VINA RESULT:      -7.8      2.693      6.263
REMARK  Name = 
REMARK  4 active torsions:
REMARK  status: ('A' for Active; 'I' for Inactive)
REMARK    1  A    between atoms: C_1  and  C_2
REMARK    2  A    between atoms: C_3  and  C_4
REMARK    3  A    between atoms: C_4  and  C_6
REMARK    4  A    between atoms: C_12  and  C_13
REMARK                            x       y       z     vdW  Elec       q    Type
REMARK                         _______ _______ _______ _____ _____    ______ ____
ROOT
ATOM      1  C   UNL     1       0.635   7.891  21.243  0.00  0.00    +0.000 C 
ATOM      2  C   UNL     1       1.572   7.656  20.076  0.00  0.00    +0.000 C 
ATOM      3  C   UNL     1       2.304   6.559  19.719  0.00  0.00    +0.000 C 
ATOM      4  C   UNL     1       2.954   6.495  18.260  0.00  0.00    +0.000 C 
ATOM      5  N   UNL     1       3.107   7.870  17.777  0.00  0.00    +0.000 N 
ATOM      6  C   UNL     1       2.333   8.911  18.142  0.00  0.00    +0.000 C 
ATOM      7  O   UNL     1       2.318   9.952  17.498  0.00  0.00    +0.000 OA
ATOM      8  N   UNL     1       1.599   8.754  19.261  0.00  0.00    +0.000 N 
ATOM      9  H   UNL     1       3.461   8.033  16.845  0.00  0.00    +0.000 HD
ATOM     10  H   UNL     1       1.066   9.580  19.517  0.00  0.00    +0.000 HD
ENDROOT
BRANCH   4  11
ATOM     11  C   UNL     1       4.268   5.678  17.922  0.00  0.00    +0.000 C 
ATOM     12  C   UNL     1       5.215   5.676  19.084  0.00  0.00    +0.000 C 
ATOM     13  N   UNL     1       6.489   5.614  18.856  0.00  0.00    +0.000 NA
ATOM     14  C   UNL     1       6.664   5.785  17.405  0.00  0.00    +0.000 C 
ATOM     15  C   UNL     1       7.315   4.602  16.745  0.00  0.00    +0.000 C 
ATOM     16  C   UNL     1       7.064   4.326  15.455  0.00  0.00    +0.000 C 
ATOM     17  C   UNL     1       6.078   5.092  14.726  0.00  0.00    +0.000 C 
ATOM     18  C   UNL     1       5.177   5.873  15.357  0.00  0.00    +0.000 C 
ATOM     19  C   UNL     1       5.281   6.207  16.839  0.00  0.00    +0.000 C 
ENDBRANCH   4  11
BRANCH   3  20
ATOM     20  C   UNL     1       2.313   5.299  20.565  0.00  0.00    +0.000 C 
ATOM     21  O   UNL     1       2.577   5.377  21.761  0.00  0.00    +0.000 OA
BRANCH  20  22
ATOM     22  C   UNL     1       2.046   3.939  19.976  0.00  0.00    +0.000 A 
ATOM     23  C   UNL     1       3.109   3.025  19.834  0.00  0.00    +0.000 A 
ATOM     24  C   UNL     1       2.936   1.823  19.122  0.00  0.00    +0.000 A 
ATOM     25  C   UNL     1       1.703   1.526  18.544  0.00  0.00    +0.000 A 
ATOM     26  C   UNL     1       0.633   2.395  18.724  0.00  0.00    +0.000 A 
ATOM     27  C   UNL     1       0.790   3.580  19.471  0.00  0.00    +0.000 A 
ENDBRANCH  20  22
ENDBRANCH   3  20
TORSDOF 3
ENDMDL
MODEL 6
REMARK VINA RESULT:      -7.6      2.803      6.398
REMARK  Name = 
REMARK  4 active torsions:
REMARK  status: ('A' for Active; 'I' for Inactive)
REMARK    1  A    between atoms: C_1  and  C_2
REMARK    2  A    between atoms: C_3  and  C_4
REMARK    3  A    between atoms: C_4  and  C_6
REMARK    4  A    between atoms: C_12  and  C_13
REMARK                            x       y       z     vdW  Elec       q    Type
REMARK                         _______ _______ _______ _____ _____    ______ ____
ROOT
ATOM      1  C   UNL     1       0.754   2.941  20.199  0.00  0.00    +0.000 C 
ATOM      2  C   UNL     1       2.076   3.241  19.522  0.00  0.00    +0.000 C 
ATOM      3  C   UNL     1       2.863   4.358  19.546  0.00  0.00    +0.000 C 
ATOM      4  C   UNL     1       4.360   4.269  18.993  0.00  0.00    +0.000 C 
ATOM      5  N   UNL     1       4.426   3.147  18.053  0.00  0.00    +0.000 N 
ATOM      6  C   UNL     1       3.641   2.052  18.097  0.00  0.00    +0.000 C 
ATOM      7  O   UNL     1       3.930   1.034  17.481  0.00  0.00    +0.000 OA
ATOM      8  N   UNL     1       2.516   2.145  18.832  0.00  0.00    +0.000 N 
ATOM      9  H   UNL     1       5.310   2.902  17.632  0.00  0.00    +0.000 HD
ATOM     10  H   UNL     1       1.938   1.310  18.799  0.00  0.00    +0.000 HD
ENDROOT
BRANCH   4  11
ATOM     11  C   UNL     1       5.142   5.503  18.381  0.00  0.00    +0.000 C 
ATOM     12  C   UNL     1       4.803   5.692  16.934  0.00  0.00    +0.000 C 
ATOM     13  N   UNL     1       5.694   6.192  16.139  0.00  0.00    +0.000 NA
ATOM     14  C   UNL     1       6.952   6.244  16.900  0.00  0.00    +0.000 C 
ATOM     15  C   UNL     1       7.491   7.638  17.058  0.00  0.00    +0.000 C 
ATOM     16  C   UNL     1       8.251   7.953  18.119  0.00  0.00    +0.000 C 
ATOM     17  C   UNL     1       8.459   6.988  19.176  0.00  0.00    +0.000 C 
ATOM     18  C   UNL     1       7.682   5.892  19.299  0.00  0.00    +0.000 C 
ATOM     19  C   UNL     1       6.707   5.455  18.214  0.00  0.00    +0.000 C 
ENDBRANCH   4  11
BRANCH   3  20
ATOM     20  C   UNL     1       2.450   5.606  20.302  0.00  0.00    +0.000 C 
ATOM     21  O   UNL     1       2.278   5.548  21.516  0.00  0.00    +0.000 OA
BRANCH  20  22
ATOM     22  C   UNL     1       2.200   6.917  19.604  0.00  0.00    +0.000 A 
ATOM     23  C   UNL     1       1.723   8.017  20.344  0.00  0.00    +0.000 A 
ATOM     24  C   UNL     1       1.304   9.195  19.696  0.00  0.00    +0.000 A 
ATOM     25  C   UNL     1       1.355   9.282  18.307  0.00  0.00    +0.000 A 
ATOM     26  C   UNL     1       1.875   8.224  17.570  0.00  0.00    +0.000 A 
ATOM     27  C   UNL     1       2.334   7.059  18.216  0.00  0.00    +0.000 A 
ENDBRANCH  20  22
ENDBRANCH   3  20
TORSDOF 3
ENDMDL
MODEL 7
REMARK VINA RESULT:      -7.5      3.090      5.088
REMARK  Name = 
REMARK  4 active torsions:
REMARK  status: ('A' for Active; 'I' for Inactive)
REMARK    1  A    between atoms: C_1  and  C_2
REMARK    2  A    between atoms: C_3  and  C_4
REMARK    3  A    between atoms: C_4  and  C_6
REMARK    4  A    between atoms: C_12  and  C_13
REMARK                            x       y       z     vdW  Elec       q    Type
REMARK                         _______ _______ _______ _____ _____    ______ ____
ROOT
ATOM      1  C   UNL     1       4.970   1.839  20.012  0.00  0.00    +0.000 C 
ATOM      2  C   UNL     1       3.780   2.773  20.084  0.00  0.00    +0.000 C 
ATOM      3  C   UNL     1       3.402   3.810  19.278  0.00  0.00    +0.000 C 
ATOM      4  C   UNL     1       1.927   4.410  19.417  0.00  0.00    +0.000 C 
ATOM      5  N   UNL     1       1.442   4.100  20.764  0.00  0.00    +0.000 N 
ATOM      6  C   UNL     1       1.829   3.041  21.503  0.00  0.00    +0.000 C 
ATOM      7  O   UNL     1       1.186   2.675  22.480  0.00  0.00    +0.000 OA
ATOM      8  N   UNL     1       2.965   2.425  21.126  0.00  0.00    +0.000 N 
ATOM      9  H   UNL     1       0.502   4.359  21.027  0.00  0.00    +0.000 HD
ATOM     10  H   UNL     1       3.237   1.661  21.738  0.00  0.00    +0.000 HD
ENDROOT
BRANCH   4  11
ATOM     11  C   UNL     1       1.554   5.908  19.064  0.00  0.00    +0.000 C 
ATOM     12  C   UNL     1       2.163   6.322  17.759  0.00  0.00    +0.000 C 
ATOM     13  N   UNL     1       2.487   7.563  17.582  0.00  0.00    +0.000 NA
ATOM     14  C   UNL     1       2.346   8.223  18.889  0.00  0.00    +0.000 C 
ATOM     15  C   UNL     1       1.334   9.335  18.884  0.00  0.00    +0.000 C 
ATOM     16  C   UNL     1       0.681   9.659  20.012  0.00  0.00    +0.000 C 
ATOM     17  C   UNL     1       0.859   8.867  21.208  0.00  0.00    +0.000 C 
ATOM     18  C   UNL     1       1.413   7.638  21.170  0.00  0.00    +0.000 C 
ATOM     19  C   UNL     1       2.115   7.096  19.932  0.00  0.00    +0.000 C 
ENDBRANCH   4  11
BRANCH   3  20
ATOM     20  C   UNL     1       4.246   4.245  18.094  0.00  0.00    +0.000 C 
ATOM     21  O   UNL     1       3.997   3.798  16.978  0.00  0.00    +0.000 OA
BRANCH  20  22
ATOM     22  C   UNL     1       5.414   5.184  18.247  0.00  0.00    +0.000 A 
ATOM     23  C   UNL     1       5.714   6.090  17.212  0.00  0.00    +0.000 A 
ATOM     24  C   UNL     1       6.901   6.848  17.239  0.00  0.00    +0.000 A 
ATOM     25  C   UNL     1       7.795   6.705  18.297  0.00  0.00    +0.000 A 
ATOM     26  C   UNL     1       7.482   5.854  19.352  0.00  0.00    +0.000 A 
ATOM     27  C   UNL     1       6.277   5.124  19.349  0.00  0.00    +0.000 A 
ENDBRANCH  20  22
ENDBRANCH   3  20
TORSDOF 3
ENDMDL
MODEL 8
REMARK VINA RESULT:      -7.4      2.658      6.261
REMARK  Name = 
REMARK  4 active torsions:
REMARK  status: ('A' for Active; 'I' for Inactive)
REMARK    1  A    between atoms: C_1  and  C_2
REMARK    2  A    between atoms: C_3  and  C_4
REMARK    3  A    between atoms: C_4  and  C_6
REMARK    4  A    between atoms: C_12  and  C_13
REMARK                            x       y       z     vdW  Elec       q    Type
REMARK                         _______ _______ _______ _____ _____    ______ ____
ROOT
ATOM      1  C   UNL     1       1.046   2.041  19.689  0.00  0.00    +0.000 C 
ATOM      2  C   UNL     1       2.435   2.630  19.551  0.00  0.00    +0.000 C 
ATOM      3  C   UNL     1       2.854   3.842  19.080  0.00  0.00    +0.000 C 
ATOM      4  C   UNL     1       4.358   4.309  19.353  0.00  0.00    +0.000 C 
ATOM      5  N   UNL     1       5.167   3.108  19.579  0.00  0.00    +0.000 N 
ATOM      6  C   UNL     1       4.704   1.944  20.078  0.00  0.00    +0.000 C 
ATOM      7  O   UNL     1       5.465   1.089  20.513  0.00  0.00    +0.000 OA
ATOM      8  N   UNL     1       3.369   1.764  20.051  0.00  0.00    +0.000 N 
ATOM      9  H   UNL     1       6.144   3.203  19.817  0.00  0.00    +0.000 HD
ATOM     10  H   UNL     1       3.074   0.856  20.398  0.00  0.00    +0.000 HD
ENDROOT
BRANCH   4  11
ATOM     11  C   UNL     1       5.154   5.298  18.406  0.00  0.00    +0.000 C 
ATOM     12  C   UNL     1       4.952   4.942  16.964  0.00  0.00    +0.000 C 
ATOM     13  N   UNL     1       5.900   5.189  16.117  0.00  0.00    +0.000 NA
ATOM     14  C   UNL     1       7.075   5.589  16.907  0.00  0.00    +0.000 C 
ATOM     15  C   UNL     1       7.548   6.982  16.601  0.00  0.00    +0.000 C 
ATOM     16  C   UNL     1       8.190   7.699  17.537  0.00  0.00    +0.000 C 
ATOM     17  C   UNL     1       8.325   7.183  18.882  0.00  0.00    +0.000 C 
ATOM     18  C   UNL     1       7.577   6.152  19.325  0.00  0.00    +0.000 C 
ATOM     19  C   UNL     1       6.728   5.297  18.393  0.00  0.00    +0.000 C 
ENDBRANCH   4  11
BRANCH   3  20
ATOM     20  C   UNL     1       1.876   4.860  18.524  0.00  0.00    +0.000 C 
ATOM     21  O   UNL     1       1.099   4.527  17.634  0.00  0.00    +0.000 OA
BRANCH  20  22
ATOM     22  C   UNL     1       1.852   6.288  19.002  0.00  0.00    +0.000 A 
ATOM     23  C   UNL     1       1.552   6.563  20.350  0.00  0.00    +0.000 A 
ATOM     24  C   UNL     1       1.338   7.885  20.786  0.00  0.00    +0.000 A 
ATOM     25  C   UNL     1       1.420   8.940  19.880  0.00  0.00    +0.000 A 
ATOM     26  C   UNL     1       1.770   8.685  18.559  0.00  0.00    +0.000 A 
ATOM     27  C   UNL     1       2.024   7.369  18.126  0.00  0.00    +0.000 A 
ENDBRANCH  20  22
ENDBRANCH   3  20
TORSDOF 3
ENDMDL
MODEL 9
REMARK VINA RESULT:      -7.4      1.025      1.209
REMARK  Name = 
REMARK  4 active torsions:
REMARK  status: ('A' for Active; 'I' for Inactive)
REMARK    1  A    between atoms: C_1  and  C_2
REMARK    2  A    between atoms: C_3  and  C_4
REMARK    3  A    between atoms: C_4  and  C_6
REMARK    4  A    between atoms: C_12  and  C_13
REMARK                            x       y       z     vdW  Elec       q    Type
REMARK                         _______ _______ _______ _____ _____    ______ ____
ROOT
ATOM      1  C   UNL     1       8.251   7.668  16.881  0.00  0.00    +0.000 C 
ATOM      2  C   UNL     1       7.418   6.608  17.572  0.00  0.00    +0.000 C 
ATOM      3  C   UNL     1       6.353   5.875  17.132  0.00  0.00    +0.000 C 
ATOM      4  C   UNL     1       5.880   4.601  17.973  0.00  0.00    +0.000 C 
ATOM      5  N   UNL     1       6.331   4.784  19.356  0.00  0.00    +0.000 N 
ATOM      6  C   UNL     1       7.413   5.496  19.730  0.00  0.00    +0.000 C 
ATOM      7  O   UNL     1       7.903   5.374  20.846  0.00  0.00    +0.000 OA
ATOM      8  N   UNL     1       7.909   6.361  18.825  0.00  0.00    +0.000 N 
ATOM      9  H   UNL     1       6.166   4.055  20.034  0.00  0.00    +0.000 HD
ATOM     10  H   UNL     1       8.697   6.903  19.168  0.00  0.00    +0.000 HD
ENDROOT
BRANCH   4  11
ATOM     11  C   UNL     1       4.391   4.062  17.983  0.00  0.00    +0.000 C 
ATOM     12  C   UNL     1       3.450   5.063  17.384  0.00  0.00    +0.000 C 
ATOM     13  N   UNL     1       2.227   5.108  17.807  0.00  0.00    +0.000 NA
ATOM     14  C   UNL     1       2.160   4.236  18.990  0.00  0.00    +0.000 C 
ATOM     15  C   UNL     1       1.202   3.090  18.827  0.00  0.00    +0.000 C 
ATOM     16  C   UNL     1       1.398   1.944  19.498  0.00  0.00    +0.000 C 
ATOM     17  C   UNL     1       2.595   1.761  20.289  0.00  0.00    +0.000 C 
ATOM     18  C   UNL     1       3.670   2.563  20.147  0.00  0.00    +0.000 C 
ATOM     19  C   UNL     1       3.624   3.856  19.343  0.00  0.00    +0.000 C 
ENDBRANCH   4  11
BRANCH   3  20
ATOM     20  C   UNL     1       5.762   6.081  15.749  0.00  0.00    +0.000 C 
ATOM     21  O   UNL     1       4.991   7.016  15.555  0.00  0.00    +0.000 OA
BRANCH  20  22
ATOM     22  C   UNL     1       6.060   5.147  14.606  0.00  0.00    +0.000 A 
ATOM     23  C   UNL     1       7.267   5.285  13.895  0.00  0.00    +0.000 A 
ATOM     24  C   UNL     1       7.495   4.558  12.711  0.00  0.00    +0.000 A 
ATOM     25  C   UNL     1       6.518   3.690  12.228  0.00  0.00    +0.000 A 
ATOM     26  C   UNL     1       5.345   3.504  12.951  0.00  0.00    +0.000 A 
ATOM     27  C   UNL     1       5.130   4.200  14.157  0.00  0.00    +0.000 A 
ENDBRANCH  20  22
ENDBRANCH   3  20
TORSDOF 3
ENDMDL
