MODEL 1
REMARK VINA RESULT:      -8.4      0.000      0.000
REMARK  Name = 
REMARK  7 active torsions:
REMARK  status: ('A' for Active; 'I' for Inactive)
REMARK    1  A    between atoms: C_1  and  O_2
REMARK    2  A    between atoms: O_2  and  C_3
REMARK    3  A    between atoms: C_6  and  S_7
REMARK    4  A    between atoms: S_7  and  N_10
REMARK    5  A    between atoms: C_22  and  N_23
REMARK    6  A    between atoms: N_23  and  C_24
REMARK    7  A    between atoms: N_27  and  C_28
REMARK                            x       y       z     vdW  Elec       q    Type
REMARK                         _______ _______ _______ _____ _____    ______ ____
ROOT
ATOM      1  C   UNL     1       1.423   8.097  20.560  0.00  0.00    +0.000 A 
ATOM      2  C   UNL     1       1.423   6.790  21.087  0.00  0.00    +0.000 A 
ATOM      3  C   UNL     1       1.874   5.680  20.335  0.00  0.00    +0.000 A 
ATOM      4  C   UNL     1       2.351   5.839  19.027  0.00  0.00    +0.000 A 
ATOM      5  C   UNL     1       2.342   7.132  18.493  0.00  0.00    +0.000 A 
ATOM      6  C   UNL     1       1.858   8.280  19.222  0.00  0.00    +0.000 A 
ENDROOT
BRANCH   4   7
ATOM      7  S   UNL     1       2.998   4.373  18.146  0.00  0.00    +0.000 S 
ATOM      8  O   UNL     1       3.214   3.360  19.160  0.00  0.00    +0.000 OA
ATOM      9  O   UNL     1       2.058   4.140  17.058  0.00  0.00    +0.000 OA
BRANCH   7  10
ATOM     10  N   UNL     1       4.468   4.745  17.433  0.00  0.00    +0.000 N 
ATOM     11  C   UNL     1       4.787   4.127  16.143  0.00  0.00    +0.000 C 
ATOM     12  C   UNL     1       5.539   5.138  15.257  0.00  0.00    +0.000 C 
ATOM     13  O   UNL     1       5.663   6.464  15.814  0.00  0.00    +0.000 OA
ATOM     14  C   UNL     1       6.196   6.359  17.080  0.00  0.00    +0.000 A 
ATOM     15  C   UNL     1       7.383   7.048  17.333  0.00  0.00    +0.000 A 
ATOM     16  C   UNL     1       8.082   6.765  18.500  0.00  0.00    +0.000 A 
ATOM     17  C   UNL     1       7.549   5.830  19.389  0.00  0.00    +0.000 A 
ATOM     18  F   UNL     1       8.291   5.495  20.460  0.00  0.00    +0.000 F 
ATOM     19  C   UNL     1       6.310   5.186  19.163  0.00  0.00    +0.000 A 
ATOM     20  C   UNL     1       5.586   5.475  17.998  0.00  0.00    +0.000 A 
ENDBRANCH   7  10
ENDBRANCH   4   7
BRANCH   1  22
ATOM     21  C   UNL     1      -0.068   9.146  22.152  0.00  0.00    +0.000 C 
ATOM     22  O   UNL     1       1.081   9.207  21.302  0.00  0.00    +0.000 OA
ENDBRANCH   1  22
BRANCH   6  23
ATOM     23  N   UNL     1       2.009   9.505  18.571  0.00  0.00    +0.000 N 
ATOM     24  H   UNL     1       2.692   9.433  17.827  0.00  0.00    +0.000 HD
BRANCH  23  25
ATOM     25  C   UNL     1       1.021  10.561  18.236  0.00  0.00    +0.000 C 
ATOM     26  C   UNL     1       1.018  11.663  19.301  0.00  0.00    +0.000 C 
ATOM     27  C   UNL     1      -0.275  12.484  19.349  0.00  0.00    +0.000 C 
ATOM     28  N   UNL     1      -1.441  11.611  19.522  0.00  0.00    +0.000 NA
ATOM     29  C   UNL     1      -2.662  12.389  19.748  0.00  0.00    +0.000 C 
ATOM     30  C   UNL     1      -1.584  10.751  18.344  0.00  0.00    +0.000 C 
ATOM     31  C   UNL     1      -0.362   9.853  18.167  0.00  0.00    +0.000 C 
ENDBRANCH  23  25
ENDBRANCH   6  23
TORSDOF 5
ENDMDL
MODEL 2
REMARK VINA RESULT:      -7.9      2.055      2.976
REMARK  Name = 
REMARK  7 active torsions:
REMARK  status: ('A' for Active; 'I' for Inactive)
REMARK    1  A    between atoms: C_1  and  O_2
REMARK    2  A    between atoms: O_2  and  C_3
REMARK    3  A    between atoms: C_6  and  S_7
REMARK    4  A    between atoms: S_7  and  N_10
REMARK    5  A    between atoms: C_22  and  N_23
REMARK    6  A    between atoms: N_23  and  C_24
REMARK    7  A    between atoms: N_27  and  C_28
REMARK                            x       y       z     vdW  Elec       q    Type
REMARK                         _______ _______ _______ _____ _____    ______ ____
ROOT
ATOM      1  C   UNL     1       1.658   9.218  18.617  0.00  0.00    +0.000 A 
ATOM      2  C   UNL     1       2.097   8.162  17.794  0.00  0.00    +0.000 A 
ATOM      3  C   UNL     1       2.286   6.853  18.294  0.00  0.00    +0.000 A 
ATOM      4  C   UNL     1       2.034   6.549  19.639  0.00  0.00    +0.000 A 
ATOM      5  C   UNL     1       1.611   7.596  20.464  0.00  0.00    +0.000 A 
ATOM      6  C   UNL     1       1.440   8.949  19.992  0.00  0.00    +0.000 A 
ENDROOT
BRANCH   4   7
ATOM      7  S   UNL     1       2.217   4.817  20.196  0.00  0.00    +0.000 S 
ATOM      8  O   UNL     1       2.666   4.886  21.572  0.00  0.00    +0.000 OA
ATOM      9  O   UNL     1       0.953   4.176  19.862  0.00  0.00    +0.000 OA
BRANCH   7  10
ATOM     10  N   UNL     1       3.395   4.051  19.281  0.00  0.00    +0.000 N 
ATOM     11  C   UNL     1       3.325   2.594  19.146  0.00  0.00    +0.000 C 
ATOM     12  C   UNL     1       3.749   2.186  17.723  0.00  0.00    +0.000 C 
ATOM     13  O   UNL     1       4.002   3.285  16.822  0.00  0.00    +0.000 OA
ATOM     14  C   UNL     1       4.895   4.146  17.422  0.00  0.00    +0.000 A 
ATOM     15  C   UNL     1       6.085   4.409  16.742  0.00  0.00    +0.000 A 
ATOM     16  C   UNL     1       7.110   5.058  17.421  0.00  0.00    +0.000 A 
ATOM     17  C   UNL     1       6.894   5.452  18.742  0.00  0.00    +0.000 A 
ATOM     18  F   UNL     1       7.932   5.984  19.412  0.00  0.00    +0.000 F 
ATOM     19  C   UNL     1       5.661   5.248  19.405  0.00  0.00    +0.000 A 
ATOM     20  C   UNL     1       4.612   4.610  18.727  0.00  0.00    +0.000 A 
ENDBRANCH   7  10
ENDBRANCH   4   7
BRANCH   1  22
ATOM     21  C   UNL     1       2.405  11.470  18.135  0.00  0.00    +0.000 C 
ATOM     22  O   UNL     1       1.375  10.479  18.135  0.00  0.00    +0.000 OA
ENDBRANCH   1  22
BRANCH   6  23
ATOM     23  N   UNL     1       0.923   9.846  20.929  0.00  0.00    +0.000 N 
ATOM     24  H   UNL     1       1.556  10.625  21.065  0.00  0.00    +0.000 HD
BRANCH  23  25
ATOM     25  C   UNL     1      -0.469  10.286  21.195  0.00  0.00    +0.000 C 
ATOM     26  C   UNL     1      -0.767  11.612  20.485  0.00  0.00    +0.000 C 
ATOM     27  C   UNL     1      -1.928  12.403  21.098  0.00  0.00    +0.000 C 
ATOM     28  N   UNL     1      -1.705  12.634  22.529  0.00  0.00    +0.000 NA
ATOM     29  C   UNL     1      -2.714  13.538  23.087  0.00  0.00    +0.000 C 
ATOM     30  C   UNL     1      -1.709  11.351  23.236  0.00  0.00    +0.000 C 
ATOM     31  C   UNL     1      -0.584  10.445  22.738  0.00  0.00    +0.000 C 
ENDBRANCH  23  25
ENDBRANCH   6  23
TORSDOF 5
ENDMDL
MODEL 3
REMARK VINA RESULT:      -7.5      0.890      1.298
REMARK  Name = 
REMARK  7 active torsions:
REMARK  status: ('A' for Active; 'I' for Inactive)
REMARK    1  A    between atoms: C_1  and  O_2
REMARK    2  A    between atoms: O_2  and  C_3
REMARK    3  A    between atoms: C_6  and  S_7
REMARK    4  A    between atoms: S_7  and  N_10
REMARK    5  A    between atoms: C_22  and  N_23
REMARK    6  A    between atoms: N_23  and  C_24
REMARK    7  A    between atoms: N_27  and  C_28
REMARK                            x       y       z     vdW  Elec       q    Type
REMARK                         _______ _______ _______ _____ _____    ______ ____
ROOT
ATOM      1  C   UNL     1       1.397   7.503  20.668  0.00  0.00    +0.000 A 
ATOM      2  C   UNL     1       1.614   6.182  21.106  0.00  0.00    +0.000 A 
ATOM      3  C   UNL     1       2.125   5.183  20.246  0.00  0.00    +0.000 A 
ATOM      4  C   UNL     1       2.447   5.472  18.913  0.00  0.00    +0.000 A 
ATOM      5  C   UNL     1       2.221   6.778  18.467  0.00  0.00    +0.000 A 
ATOM      6  C   UNL     1       1.670   7.812  19.311  0.00  0.00    +0.000 A 
ENDROOT
BRANCH   4   7
ATOM      7  S   UNL     1       3.184   4.153  17.882  0.00  0.00    +0.000 S 
ATOM      8  O   UNL     1       3.472   3.056  18.785  0.00  0.00    +0.000 OA
ATOM      9  O   UNL     1       2.255   3.974  16.775  0.00  0.00    +0.000 OA
BRANCH   7  10
ATOM     10  N   UNL     1       4.622   4.695  17.215  0.00  0.00    +0.000 N 
ATOM     11  C   UNL     1       4.992   4.209  15.883  0.00  0.00    +0.000 C 
ATOM     12  C   UNL     1       5.664   5.343  15.086  0.00  0.00    +0.000 C 
ATOM     13  O   UNL     1       5.682   6.626  15.748  0.00  0.00    +0.000 OA
ATOM     14  C   UNL     1       6.219   6.462  17.006  0.00  0.00    +0.000 A 
ATOM     15  C   UNL     1       7.347   7.219  17.323  0.00  0.00    +0.000 A 
ATOM     16  C   UNL     1       8.063   6.900  18.471  0.00  0.00    +0.000 A 
ATOM     17  C   UNL     1       7.604   5.857  19.278  0.00  0.00    +0.000 A 
ATOM     18  F   UNL     1       8.367   5.497  20.325  0.00  0.00    +0.000 F 
ATOM     19  C   UNL     1       6.419   5.139  18.991  0.00  0.00    +0.000 A 
ATOM     20  C   UNL     1       5.678   5.463  17.845  0.00  0.00    +0.000 A 
ENDBRANCH   7  10
ENDBRANCH   4   7
BRANCH   1  22
ATOM     21  C   UNL     1      -0.344   8.502  22.023  0.00  0.00    +0.000 C 
ATOM     22  O   UNL     1       0.991   8.517  21.509  0.00  0.00    +0.000 OA
ENDBRANCH   1  22
BRANCH   6  23
ATOM     23  N   UNL     1       1.598   9.079  18.730  0.00  0.00    +0.000 N 
ATOM     24  H   UNL     1       1.151   9.032  17.822  0.00  0.00    +0.000 HD
BRANCH  23  25
ATOM     25  C   UNL     1       1.361  10.417  19.328  0.00  0.00    +0.000 C 
ATOM     26  C   UNL     1      -0.133  10.758  19.326  0.00  0.00    +0.000 C 
ATOM     27  C   UNL     1      -0.433  12.259  19.409  0.00  0.00    +0.000 C 
ATOM     28  N   UNL     1       0.254  12.988  18.339  0.00  0.00    +0.000 NA
ATOM     29  C   UNL     1      -0.162  14.393  18.297  0.00  0.00    +0.000 C 
ATOM     30  C   UNL     1       1.703  12.882  18.529  0.00  0.00    +0.000 C 
ATOM     31  C   UNL     1       2.162  11.427  18.459  0.00  0.00    +0.000 C 
ENDBRANCH  23  25
ENDBRANCH   6  23
TORSDOF 5
ENDMDL
MODEL 4
REMARK VINA RESULT:      -7.5      7.084     10.075
REMARK  Name = 
REMARK  7 active torsions:
REMARK  status: ('A' for Active; 'I' for Inactive)
REMARK    1  A    between atoms: C_1  and  O_2
REMARK    2  A    between atoms: O_2  and  C_3
REMARK    3  A    between atoms: C_6  and  S_7
REMARK    4  A    between atoms: S_7  and  N_10
REMARK    5  A    between atoms: C_22  and  N_23
REMARK    6  A    between atoms: N_23  and  C_24
REMARK    7  A    between atoms: N_27  and  C_28
REMARK                            x       y       z     vdW  Elec       q    Type
REMARK                         _______ _______ _______ _____ _____    ______ ____
ROOT
ATOM      1  C   UNL     1      -2.495  10.313  17.275  0.00  0.00    +0.000 A 
ATOM      2  C   UNL     1      -1.343   9.776  17.883  0.00  0.00    +0.000 A 
ATOM      3  C   UNL     1      -0.781  10.340  19.051  0.00  0.00    +0.000 A 
ATOM      4  C   UNL     1      -1.358  11.462  19.662  0.00  0.00    +0.000 A 
ATOM      5  C   UNL     1      -2.494  12.009  19.056  0.00  0.00    +0.000 A 
ATOM      6  C   UNL     1      -3.073  11.477  17.845  0.00  0.00    +0.000 A 
ENDROOT
BRANCH   4   7
ATOM      7  S   UNL     1      -0.628  12.086  21.218  0.00  0.00    +0.000 S 
ATOM      8  O   UNL     1      -0.644  10.970  22.143  0.00  0.00    +0.000 OA
ATOM      9  O   UNL     1       0.632  12.702  20.825  0.00  0.00    +0.000 OA
BRANCH   7  10
ATOM     10  N   UNL     1      -1.585  13.315  21.838  0.00  0.00    +0.000 N 
ATOM     11  C   UNL     1      -0.994  14.648  21.976  0.00  0.00    +0.000 C 
ATOM     12  C   UNL     1      -2.047  15.719  21.637  0.00  0.00    +0.000 C 
ATOM     13  O   UNL     1      -3.309  15.205  21.160  0.00  0.00    +0.000 OA
ATOM     14  C   UNL     1      -3.767  14.266  22.059  0.00  0.00    +0.000 A 
ATOM     15  C   UNL     1      -5.023  14.484  22.627  0.00  0.00    +0.000 A 
ATOM     16  C   UNL     1      -5.406  13.710  23.716  0.00  0.00    +0.000 A 
ATOM     17  C   UNL     1      -4.533  12.722  24.174  0.00  0.00    +0.000 A 
ATOM     18  F   UNL     1      -4.876  12.056  25.290  0.00  0.00    +0.000 F 
ATOM     19  C   UNL     1      -3.290  12.456  23.551  0.00  0.00    +0.000 A 
ATOM     20  C   UNL     1      -2.900  13.218  22.441  0.00  0.00    +0.000 A 
ENDBRANCH   7  10
ENDBRANCH   4   7
BRANCH   1  22
ATOM     21  C   UNL     1      -2.946  10.305  14.897  0.00  0.00    +0.000 C 
ATOM     22  O   UNL     1      -3.118   9.727  16.194  0.00  0.00    +0.000 OA
ENDBRANCH   1  22
BRANCH   6  23
ATOM     23  N   UNL     1      -4.257  12.089  17.432  0.00  0.00    +0.000 N 
ATOM     24  H   UNL     1      -4.292  12.154  16.422  0.00  0.00    +0.000 HD
BRANCH  23  25
ATOM     25  C   UNL     1      -5.638  12.008  17.971  0.00  0.00    +0.000 C 
ATOM     26  C   UNL     1      -5.847  13.032  19.092  0.00  0.00    +0.000 C 
ATOM     27  C   UNL     1      -6.995  12.689  20.047  0.00  0.00    +0.000 C 
ATOM     28  N   UNL     1      -6.820  11.348  20.614  0.00  0.00    +0.000 NA
ATOM     29  C   UNL     1      -7.810  11.077  21.660  0.00  0.00    +0.000 C 
ATOM     30  C   UNL     1      -6.910  10.351  19.544  0.00  0.00    +0.000 C 
ATOM     31  C   UNL     1      -5.808  10.558  18.506  0.00  0.00    +0.000 C 
ENDBRANCH  23  25
ENDBRANCH   6  23
TORSDOF 5
ENDMDL
MODEL 5
REMARK VINA RESULT:      -7.5      3.479      8.730
REMARK  Name = 
REMARK  7 active torsions:
REMARK  status: ('A' for Active; 'I' for Inactive)
REMARK    1  A    between atoms: C_1  and  O_2
REMARK    2  A    between atoms: O_2  and  C_3
REMARK    3  A    between atoms: C_6  and  S_7
REMARK    4  A    between atoms: S_7  and  N_10
REMARK    5  A    between atoms: C_22  and  N_23
REMARK    6  A    between atoms: N_23  and  C_24
REMARK    7  A    between atoms: N_27  and  C_28
REMARK                            x       y       z     vdW  Elec       q    Type
REMARK                         _______ _______ _______ _____ _____    ______ ____
ROOT
ATOM      1  C   UNL     1       1.965   6.513  20.227  0.00  0.00    +0.000 A 
ATOM      2  C   UNL     1       1.363   7.228  21.282  0.00  0.00    +0.000 A 
ATOM      3  C   UNL     1       1.089   8.612  21.187  0.00  0.00    +0.000 A 
ATOM      4  C   UNL     1       1.400   9.333  20.026  0.00  0.00    +0.000 A 
ATOM      5  C   UNL     1       2.009   8.632  18.980  0.00  0.00    +0.000 A 
ATOM      6  C   UNL     1       2.332   7.228  19.058  0.00  0.00    +0.000 A 
ENDROOT
BRANCH   4   7
ATOM      7  S   UNL     1       0.939  11.101  19.942  0.00  0.00    +0.000 S 
ATOM      8  O   UNL     1       1.576  11.734  21.079  0.00  0.00    +0.000 OA
ATOM      9  O   UNL     1       1.269  11.514  18.585  0.00  0.00    +0.000 OA
BRANCH   7  10
ATOM     10  N   UNL     1      -0.723  11.259  20.096  0.00  0.00    +0.000 N 
ATOM     11  C   UNL     1      -1.286  11.347  21.446  0.00  0.00    +0.000 C 
ATOM     12  C   UNL     1      -2.463  12.341  21.451  0.00  0.00    +0.000 C 
ATOM     13  O   UNL     1      -2.681  13.036  20.205  0.00  0.00    +0.000 OA
ATOM     14  C   UNL     1      -2.768  12.105  19.194  0.00  0.00    +0.000 A 
ATOM     15  C   UNL     1      -3.936  12.099  18.430  0.00  0.00    +0.000 A 
ATOM     16  C   UNL     1      -4.172  11.024  17.581  0.00  0.00    +0.000 A 
ATOM     17  C   UNL     1      -3.213  10.012  17.500  0.00  0.00    +0.000 A 
ATOM     18  F   UNL     1      -3.508   8.933  16.754  0.00  0.00    +0.000 F 
ATOM     19  C   UNL     1      -1.998  10.057  18.222  0.00  0.00    +0.000 A 
ATOM     20  C   UNL     1      -1.739  11.144  19.069  0.00  0.00    +0.000 A 
ENDBRANCH   7  10
ENDBRANCH   4   7
BRANCH   1  22
ATOM     21  C   UNL     1       1.015   4.287  20.193  0.00  0.00    +0.000 C 
ATOM     22  O   UNL     1       2.155   5.148  20.256  0.00  0.00    +0.000 OA
ENDBRANCH   1  22
BRANCH   6  23
ATOM     23  N   UNL     1       2.852   6.671  17.889  0.00  0.00    +0.000 N 
ATOM     24  H   UNL     1       2.551   7.197  17.077  0.00  0.00    +0.000 HD
BRANCH  23  25
ATOM     25  C   UNL     1       4.165   6.037  17.608  0.00  0.00    +0.000 C 
ATOM     26  C   UNL     1       4.869   6.735  16.439  0.00  0.00    +0.000 C 
ATOM     27  C   UNL     1       5.923   5.872  15.738  0.00  0.00    +0.000 C 
ATOM     28  N   UNL     1       5.345   4.600  15.293  0.00  0.00    +0.000 NA
ATOM     29  C   UNL     1       6.290   3.843  14.467  0.00  0.00    +0.000 C 
ATOM     30  C   UNL     1       4.933   3.817  16.460  0.00  0.00    +0.000 C 
ATOM     31  C   UNL     1       3.862   4.551  17.265  0.00  0.00    +0.000 C 
ENDBRANCH  23  25
ENDBRANCH   6  23
TORSDOF 5
ENDMDL
MODEL 6
REMARK VINA RESULT:      -7.2      3.636      8.639
REMARK  Name = 
REMARK  7 active torsions:
REMARK  status: ('A' for Active; 'I' for Inactive)
REMARK    1  A    between atoms: C_1  and  O_2
REMARK    2  A    between atoms: O_2  and  C_3
REMARK    3  A    between atoms: C_6  and  S_7
REMARK    4  A    between atoms: S_7  and  N_10
REMARK    5  A    between atoms: C_22  and  N_23
REMARK    6  A    between atoms: N_23  and  C_24
REMARK    7  A    between atoms: N_27  and  C_28
REMARK                            x       y       z     vdW  Elec       q    Type
REMARK                         _______ _______ _______ _____ _____    ______ ____
ROOT
ATOM      1  C   UNL     1       1.890   6.830  20.349  0.00  0.00    +0.000 A 
ATOM      2  C   UNL     1       1.325   7.801  21.199  0.00  0.00    +0.000 A 
ATOM      3  C   UNL     1       1.049   9.115  20.755  0.00  0.00    +0.000 A 
ATOM      4  C   UNL     1       1.321   9.504  19.436  0.00  0.00    +0.000 A 
ATOM      5  C   UNL     1       1.895   8.549  18.591  0.00  0.00    +0.000 A 
ATOM      6  C   UNL     1       2.219   7.210  19.022  0.00  0.00    +0.000 A 
ENDROOT
BRANCH   4   7
ATOM      7  S   UNL     1       0.859  11.193  18.908  0.00  0.00    +0.000 S 
ATOM      8  O   UNL     1       1.910  11.632  18.011  0.00  0.00    +0.000 OA
ATOM      9  O   UNL     1      -0.514  11.080  18.437  0.00  0.00    +0.000 OA
BRANCH   7  10
ATOM     10  N   UNL     1       0.825  12.211  20.239  0.00  0.00    +0.000 N 
ATOM     11  C   UNL     1       2.093  12.772  20.713  0.00  0.00    +0.000 C 
ATOM     12  C   UNL     1       1.873  14.221  21.186  0.00  0.00    +0.000 C 
ATOM     13  O   UNL     1       0.545  14.741  20.964  0.00  0.00    +0.000 OA
ATOM     14  C   UNL     1      -0.367  13.857  21.498  0.00  0.00    +0.000 A 
ATOM     15  C   UNL     1      -1.242  14.349  22.467  0.00  0.00    +0.000 A 
ATOM     16  C   UNL     1      -1.993  13.444  23.208  0.00  0.00    +0.000 A 
ATOM     17  C   UNL     1      -1.868  12.083  22.927  0.00  0.00    +0.000 A 
ATOM     18  F   UNL     1      -2.523  11.219  23.723  0.00  0.00    +0.000 F 
ATOM     19  C   UNL     1      -1.033  11.593  21.895  0.00  0.00    +0.000 A 
ATOM     20  C   UNL     1      -0.283  12.496  21.129  0.00  0.00    +0.000 A 
ENDBRANCH   7  10
ENDBRANCH   4   7
BRANCH   1  22
ATOM     21  C   UNL     1       1.067   4.555  20.426  0.00  0.00    +0.000 C 
ATOM     22  O   UNL     1       2.080   5.518  20.727  0.00  0.00    +0.000 OA
ENDBRANCH   1  22
BRANCH   6  23
ATOM     23  N   UNL     1       2.699   6.362  18.023  0.00  0.00    +0.000 N 
ATOM     24  H   UNL     1       2.217   6.532  17.148  0.00  0.00    +0.000 HD
BRANCH  23  25
ATOM     25  C   UNL     1       4.066   5.855  17.745  0.00  0.00    +0.000 C 
ATOM     26  C   UNL     1       4.755   6.706  16.672  0.00  0.00    +0.000 C 
ATOM     27  C   UNL     1       5.898   5.989  15.945  0.00  0.00    +0.000 C 
ATOM     28  N   UNL     1       5.436   4.723  15.367  0.00  0.00    +0.000 NA
ATOM     29  C   UNL     1       6.467   4.115  14.520  0.00  0.00    +0.000 C 
ATOM     30  C   UNL     1       5.045   3.810  16.443  0.00  0.00    +0.000 C 
ATOM     31  C   UNL     1       3.891   4.387  17.262  0.00  0.00    +0.000 C 
ENDBRANCH  23  25
ENDBRANCH   6  23
TORSDOF 5
ENDMDL
MODEL 7
REMARK VINA RESULT:      -7.1      4.779      9.838
REMARK  Name = 
REMARK  7 active torsions:
REMARK  status: ('A' for Active; 'I' for Inactive)
REMARK    1  A    between atoms: C_1  and  O_2
REMARK    2  A    between atoms: O_2  and  C_3
REMARK    3  A    between atoms: C_6  and  S_7
REMARK    4  A    between atoms: S_7  and  N_10
REMARK    5  A    between atoms: C_22  and  N_23
REMARK    6  A    between atoms: N_23  and  C_24
REMARK    7  A    between atoms: N_27  and  C_28
REMARK                            x       y       z     vdW  Elec       q    Type
REMARK                         _______ _______ _______ _____ _____    ______ ____
ROOT
ATOM      1  C   UNL     1       0.503  11.861  19.437  0.00  0.00    +0.000 A 
ATOM      2  C   UNL     1      -0.265  12.807  18.729  0.00  0.00    +0.000 A 
ATOM      3  C   UNL     1      -1.456  12.451  18.055  0.00  0.00    +0.000 A 
ATOM      4  C   UNL     1      -1.929  11.132  18.071  0.00  0.00    +0.000 A 
ATOM      5  C   UNL     1      -1.165  10.185  18.761  0.00  0.00    +0.000 A 
ATOM      6  C   UNL     1       0.071  10.509  19.431  0.00  0.00    +0.000 A 
ENDROOT
BRANCH   4   7
ATOM      7  S   UNL     1      -3.521  10.761  17.250  0.00  0.00    +0.000 S 
ATOM      8  O   UNL     1      -3.371  11.195  15.875  0.00  0.00    +0.000 OA
ATOM      9  O   UNL     1      -3.789   9.363  17.558  0.00  0.00    +0.000 OA
BRANCH   7  10
ATOM     10  N   UNL     1      -4.747  11.650  17.968  0.00  0.00    +0.000 N 
ATOM     11  C   UNL     1      -5.642  12.419  17.099  0.00  0.00    +0.000 C 
ATOM     12  C   UNL     1      -7.076  12.366  17.658  0.00  0.00    +0.000 C 
ATOM     13  O   UNL     1      -7.253  11.511  18.807  0.00  0.00    +0.000 OA
ATOM     14  C   UNL     1      -6.318  11.856  19.758  0.00  0.00    +0.000 A 
ATOM     15  C   UNL     1      -6.793  12.236  21.014  0.00  0.00    +0.000 A 
ATOM     16  C   UNL     1      -5.912  12.832  21.908  0.00  0.00    +0.000 A 
ATOM     17  C   UNL     1      -4.578  12.994  21.526  0.00  0.00    +0.000 A 
ATOM     18  F   UNL     1      -3.768  13.665  22.363  0.00  0.00    +0.000 F 
ATOM     19  C   UNL     1      -4.084  12.542  20.280  0.00  0.00    +0.000 A 
ATOM     20  C   UNL     1      -4.959  11.924  19.375  0.00  0.00    +0.000 A 
ENDBRANCH   7  10
ENDBRANCH   4   7
BRANCH   1  22
ATOM     21  C   UNL     1       2.445  13.274  19.738  0.00  0.00    +0.000 C 
ATOM     22  O   UNL     1       1.613  12.198  20.181  0.00  0.00    +0.000 OA
ENDBRANCH   1  22
BRANCH   6  23
ATOM     23  N   UNL     1       0.654   9.462  20.146  0.00  0.00    +0.000 N 
ATOM     24  H   UNL     1      -0.058   8.887  20.581  0.00  0.00    +0.000 HD
BRANCH  23  25
ATOM     25  C   UNL     1       1.854   8.635  19.865  0.00  0.00    +0.000 C 
ATOM     26  C   UNL     1       2.108   8.538  18.356  0.00  0.00    +0.000 C 
ATOM     27  C   UNL     1       2.948   7.326  17.940  0.00  0.00    +0.000 C 
ATOM     28  N   UNL     1       2.349   6.081  18.432  0.00  0.00    +0.000 NA
ATOM     29  C   UNL     1       3.039   4.906  17.893  0.00  0.00    +0.000 C 
ATOM     30  C   UNL     1       2.377   6.073  19.897  0.00  0.00    +0.000 C 
ATOM     31  C   UNL     1       1.562   7.232  20.469  0.00  0.00    +0.000 C 
ENDBRANCH  23  25
ENDBRANCH   6  23
TORSDOF 5
ENDMDL
MODEL 8
REMARK VINA RESULT:      -7.0      1.931      2.677
REMARK  Name = 
REMARK  7 active torsions:
REMARK  status: ('A' for Active; 'I' for Inactive)
REMARK    1  A    between atoms: C_1  and  O_2
REMARK    2  A    between atoms: O_2  and  C_3
REMARK    3  A    between atoms: C_6  and  S_7
REMARK    4  A    between atoms: S_7  and  N_10
REMARK    5  A    between atoms: C_22  and  N_23
REMARK    6  A    between atoms: N_23  and  C_24
REMARK    7  A    between atoms: N_27  and  C_28
REMARK                            x       y       z     vdW  Elec       q    Type
REMARK                         _______ _______ _______ _____ _____    ______ ____
ROOT
ATOM      1  C   UNL     1       1.804   9.295  18.481  0.00  0.00    +0.000 A 
ATOM      2  C   UNL     1       2.386   8.250  17.735  0.00  0.00    +0.000 A 
ATOM      3  C   UNL     1       2.534   6.947  18.263  0.00  0.00    +0.000 A 
ATOM      4  C   UNL     1       2.096   6.637  19.557  0.00  0.00    +0.000 A 
ATOM      5  C   UNL     1       1.530   7.672  20.308  0.00  0.00    +0.000 A 
ATOM      6  C   UNL     1       1.394   9.020  19.811  0.00  0.00    +0.000 A 
ENDROOT
BRANCH   4   7
ATOM      7  S   UNL     1       2.242   4.910  20.142  0.00  0.00    +0.000 S 
ATOM      8  O   UNL     1       2.670   4.991  21.525  0.00  0.00    +0.000 OA
ATOM      9  O   UNL     1       0.972   4.285  19.798  0.00  0.00    +0.000 OA
BRANCH   7  10
ATOM     10  N   UNL     1       3.420   4.112  19.258  0.00  0.00    +0.000 N 
ATOM     11  C   UNL     1       3.325   2.654  19.138  0.00  0.00    +0.000 C 
ATOM     12  C   UNL     1       3.766   2.222  17.727  0.00  0.00    +0.000 C 
ATOM     13  O   UNL     1       4.057   3.306  16.819  0.00  0.00    +0.000 OA
ATOM     14  C   UNL     1       4.955   4.156  17.426  0.00  0.00    +0.000 A 
ATOM     15  C   UNL     1       6.162   4.388  16.765  0.00  0.00    +0.000 A 
ATOM     16  C   UNL     1       7.187   5.025  17.455  0.00  0.00    +0.000 A 
ATOM     17  C   UNL     1       6.955   5.438  18.768  0.00  0.00    +0.000 A 
ATOM     18  F   UNL     1       7.991   5.957  19.450  0.00  0.00    +0.000 F 
ATOM     19  C   UNL     1       5.706   5.265  19.410  0.00  0.00    +0.000 A 
ATOM     20  C   UNL     1       4.658   4.640  18.720  0.00  0.00    +0.000 A 
ENDBRANCH   7  10
ENDBRANCH   4   7
BRANCH   1  22
ATOM     21  C   UNL     1       2.619  11.508  17.937  0.00  0.00    +0.000 C 
ATOM     22  O   UNL     1       1.561  10.547  17.959  0.00  0.00    +0.000 OA
ENDBRANCH   1  22
BRANCH   6  23
ATOM     23  N   UNL     1       0.722   9.903  20.659  0.00  0.00    +0.000 N 
ATOM     24  H   UNL     1       1.139   9.899  21.582  0.00  0.00    +0.000 HD
BRANCH  23  25
ATOM     25  C   UNL     1       0.106  11.228  20.400  0.00  0.00    +0.000 C 
ATOM     26  C   UNL     1      -0.185  11.960  21.714  0.00  0.00    +0.000 C 
ATOM     27  C   UNL     1      -1.265  13.042  21.602  0.00  0.00    +0.000 C 
ATOM     28  N   UNL     1      -2.504  12.487  21.046  0.00  0.00    +0.000 NA
ATOM     29  C   UNL     1      -3.596  13.463  21.099  0.00  0.00    +0.000 C 
ATOM     30  C   UNL     1      -2.266  12.048  19.669  0.00  0.00    +0.000 C 
ATOM     31  C   UNL     1      -1.208  10.947  19.618  0.00  0.00    +0.000 C 
ENDBRANCH  23  25
ENDBRANCH   6  23
TORSDOF 5
ENDMDL
MODEL 9
REMARK VINA RESULT:      -7.0      6.547     10.353
REMARK  Name = 
REMARK  7 active torsions:
REMARK  status: ('A' for Active; 'I' for Inactive)
REMARK    1  A    between atoms: C_1  and  O_2
REMARK    2  A    between atoms: O_2  and  C_3
REMARK    3  A    between atoms: C_6  and  S_7
REMARK    4  A    between atoms: S_7  and  N_10
REMARK    5  A    between atoms: C_22  and  N_23
REMARK    6  A    between atoms: N_23  and  C_24
REMARK    7  A    between atoms: N_27  and  C_28
REMARK                            x       y       z     vdW  Elec       q    Type
REMARK                         _______ _______ _______ _____ _____    ______ ____
ROOT
ATOM      1  C   UNL     1      -3.531  11.364  17.108  0.00  0.00    +0.000 A 
ATOM      2  C   UNL     1      -4.906  11.087  17.244  0.00  0.00    +0.000 A 
ATOM      3  C   UNL     1      -5.629  11.445  18.406  0.00  0.00    +0.000 A 
ATOM      4  C   UNL     1      -5.004  12.103  19.473  0.00  0.00    +0.000 A 
ATOM      5  C   UNL     1      -3.636  12.368  19.350  0.00  0.00    +0.000 A 
ATOM      6  C   UNL     1      -2.862  11.987  18.193  0.00  0.00    +0.000 A 
ENDROOT
BRANCH   4   7
ATOM      7  S   UNL     1      -6.020  12.611  20.907  0.00  0.00    +0.000 S 
ATOM      8  O   UNL     1      -6.705  13.822  20.501  0.00  0.00    +0.000 OA
ATOM      9  O   UNL     1      -6.776  11.422  21.275  0.00  0.00    +0.000 OA
BRANCH   7  10
ATOM     10  N   UNL     1      -5.024  12.964  22.208  0.00  0.00    +0.000 N 
ATOM     11  C   UNL     1      -5.595  12.885  23.555  0.00  0.00    +0.000 C 
ATOM     12  C   UNL     1      -4.544  12.319  24.529  0.00  0.00    +0.000 C 
ATOM     13  O   UNL     1      -3.309  11.893  23.915  0.00  0.00    +0.000 OA
ATOM     14  C   UNL     1      -2.825  12.926  23.143  0.00  0.00    +0.000 A 
ATOM     15  C   UNL     1      -1.544  13.396  23.436  0.00  0.00    +0.000 A 
ATOM     16  C   UNL     1      -1.125  14.590  22.860  0.00  0.00    +0.000 A 
ATOM     17  C   UNL     1      -1.989  15.251  21.986  0.00  0.00    +0.000 A 
ATOM     18  F   UNL     1      -1.606  16.454  21.522  0.00  0.00    +0.000 F 
ATOM     19  C   UNL     1      -3.259  14.734  21.636  0.00  0.00    +0.000 A 
ATOM     20  C   UNL     1      -3.687  13.522  22.196  0.00  0.00    +0.000 A 
ENDBRANCH   7  10
ENDBRANCH   4   7
BRANCH   1  22
ATOM     21  C   UNL     1      -3.395  10.252  14.962  0.00  0.00    +0.000 C 
ATOM     22  O   UNL     1      -2.825  11.114  15.951  0.00  0.00    +0.000 OA
ENDBRANCH   1  22
BRANCH   6  23
ATOM     23  N   UNL     1      -1.533  12.414  18.199  0.00  0.00    +0.000 N 
ATOM     24  H   UNL     1      -1.479  13.413  18.356  0.00  0.00    +0.000 HD
BRANCH  23  25
ATOM     25  C   UNL     1      -0.301  11.765  18.712  0.00  0.00    +0.000 C 
ATOM     26  C   UNL     1      -0.468  10.242  18.764  0.00  0.00    +0.000 C 
ATOM     27  C   UNL     1       0.483   9.541  19.740  0.00  0.00    +0.000 C 
ATOM     28  N   UNL     1       0.360  10.109  21.087  0.00  0.00    +0.000 NA
ATOM     29  C   UNL     1       1.128   9.334  22.065  0.00  0.00    +0.000 C 
ATOM     30  C   UNL     1       0.801  11.505  21.069  0.00  0.00    +0.000 C 
ATOM     31  C   UNL     1      -0.070  12.346  20.136  0.00  0.00    +0.000 C 
ENDBRANCH  23  25
ENDBRANCH   6  23
TORSDOF 5
ENDMDL
