MODEL 1
REMARK VINA RESULT:      -8.4      0.000      0.000
REMARK  Name = 
REMARK  7 active torsions:
REMARK  status: ('A' for Active; 'I' for Inactive)
REMARK    1  A    between atoms: C_1  and  C_2
REMARK    2  A    between atoms: C_2  and  N_3
REMARK    3  A    between atoms: N_3  and  C_4
REMARK    4  A    between atoms: N_3  and  C_14
REMARK    5  A    between atoms: C_20  and  C_21
REMARK    6  A    between atoms: C_31  and  O_32
REMARK    7  A    between atoms: O_32  and  C_33
REMARK                            x       y       z     vdW  Elec       q    Type
REMARK                         _______ _______ _______ _____ _____    ______ ____
ROOT
ATOM      1  C   UNL     1       0.892  11.802  20.260  0.00  0.00    +0.000 C 
ATOM      2  C   UNL     1       0.974  12.373  18.810  0.00  0.00    +0.000 C 
ATOM      3  C   UNL     1       2.254  11.936  18.125  0.00  0.00    +0.000 C 
ATOM      4  C   UNL     1       2.149  10.450  17.864  0.00  0.00    +0.000 C 
ATOM      5  C   UNL     1       1.763   9.674  19.087  0.00  0.00    +0.000 A 
ATOM      6  N   UNL     1       1.951   8.337  18.953  0.00  0.00    +0.000 NA
ATOM      7  C   UNL     1       1.677   7.535  19.996  0.00  0.00    +0.000 A 
ATOM      8  C   UNL     1       1.298   8.076  21.215  0.00  0.00    +0.000 A 
ATOM      9  C   UNL     1       1.167   9.456  21.381  0.00  0.00    +0.000 A 
ATOM     10  C   UNL     1       1.266  10.298  20.262  0.00  0.00    +0.000 A 
ENDROOT
BRANCH   7  11
ATOM     11  C   UNL     1       1.905   6.088  19.834  0.00  0.00    +0.000 A 
ATOM     12  C   UNL     1       1.546   5.173  20.857  0.00  0.00    +0.000 A 
ATOM     13  C   UNL     1       1.626   3.786  20.665  0.00  0.00    +0.000 A 
ATOM     14  C   UNL     1       2.076   3.332  19.446  0.00  0.00    +0.000 A 
ATOM     15  C   UNL     1       2.463   4.200  18.456  0.00  0.00    +0.000 A 
ATOM     16  C   UNL     1       2.408   5.565  18.624  0.00  0.00    +0.000 A 
ATOM     17  O   UNL     1       2.866   3.562  17.326  0.00  0.00    +0.000 OA
ATOM     18  C   UNL     1       2.717   2.187  17.729  0.00  0.00    +0.000 C 
ATOM     19  O   UNL     1       2.188   2.032  19.064  0.00  0.00    +0.000 OA
ENDBRANCH   7  11
BRANCH   9  20
ATOM     20  O   UNL     1       0.965  10.004  22.625  0.00  0.00    +0.000 OA
ATOM     21  C   UNL     1      -0.195   9.521  23.318  0.00  0.00    +0.000 C 
ENDBRANCH   9  20
BRANCH   1  22
ATOM     22  N   UNL     1      -0.484  12.102  20.800  0.00  0.00    +0.000 N 
BRANCH  22  23
ATOM     23  C   UNL     1      -0.672  13.126  21.759  0.00  0.00    +0.000 A 
ATOM     24  C   UNL     1       0.241  14.214  21.801  0.00  0.00    +0.000 A 
ATOM     25  C   UNL     1       0.123  15.312  22.653  0.00  0.00    +0.000 A 
ATOM     26  C   UNL     1      -0.914  15.367  23.562  0.00  0.00    +0.000 A 
ATOM     27  C   UNL     1      -1.832  14.320  23.628  0.00  0.00    +0.000 A 
ATOM     28  C   UNL     1      -2.834  14.425  24.607  0.00  0.00    +0.000 A 
ATOM     29  C   UNL     1      -3.783  13.431  24.768  0.00  0.00    +0.000 A 
ATOM     30  C   UNL     1      -3.722  12.307  23.959  0.00  0.00    +0.000 A 
ATOM     31  C   UNL     1      -2.713  12.191  22.992  0.00  0.00    +0.000 A 
ATOM     32  C   UNL     1      -1.736  13.187  22.750  0.00  0.00    +0.000 A 
ENDBRANCH  22  23
BRANCH  22  34
ATOM     33  C   UNL     1      -2.523  12.251  19.294  0.00  0.00    +0.000 C 
ATOM     34  C   UNL     1      -1.595  11.391  20.133  0.00  0.00    +0.000 C 
ENDBRANCH  22  34
ENDBRANCH   1  22
TORSDOF 5
ENDMDL
MODEL 2
REMARK VINA RESULT:      -8.2      2.145      4.057
REMARK  Name = 
REMARK  7 active torsions:
REMARK  status: ('A' for Active; 'I' for Inactive)
REMARK    1  A    between atoms: C_1  and  C_2
REMARK    2  A    between atoms: C_2  and  N_3
REMARK    3  A    between atoms: N_3  and  C_4
REMARK    4  A    between atoms: N_3  and  C_14
REMARK    5  A    between atoms: C_20  and  C_21
REMARK    6  A    between atoms: C_31  and  O_32
REMARK    7  A    between atoms: O_32  and  C_33
REMARK                            x       y       z     vdW  Elec       q    Type
REMARK                         _______ _______ _______ _____ _____    ______ ____
ROOT
ATOM      1  C   UNL     1       0.268  11.765  19.895  0.00  0.00    +0.000 C 
ATOM      2  C   UNL     1       0.499  12.825  18.773  0.00  0.00    +0.000 C 
ATOM      3  C   UNL     1       1.969  12.926  18.415  0.00  0.00    +0.000 C 
ATOM      4  C   UNL     1       2.357  11.645  17.711  0.00  0.00    +0.000 C 
ATOM      5  C   UNL     1       1.952  10.420  18.474  0.00  0.00    +0.000 A 
ATOM      6  N   UNL     1       2.543   9.287  18.019  0.00  0.00    +0.000 NA
ATOM      7  C   UNL     1       2.289   8.125  18.646  0.00  0.00    +0.000 A 
ATOM      8  C   UNL     1       1.511   8.104  19.793  0.00  0.00    +0.000 A 
ATOM      9  C   UNL     1       0.954   9.276  20.307  0.00  0.00    +0.000 A 
ATOM     10  C   UNL     1       1.051  10.467  19.570  0.00  0.00    +0.000 A 
ENDROOT
BRANCH   7  11
ATOM     11  C   UNL     1       2.955   6.910  18.145  0.00  0.00    +0.000 A 
ATOM     12  C   UNL     1       2.360   5.632  18.305  0.00  0.00    +0.000 A 
ATOM     13  C   UNL     1       2.909   4.485  17.715  0.00  0.00    +0.000 A 
ATOM     14  C   UNL     1       4.059   4.633  16.973  0.00  0.00    +0.000 A 
ATOM     15  C   UNL     1       4.671   5.853  16.836  0.00  0.00    +0.000 A 
ATOM     16  C   UNL     1       4.161   6.991  17.417  0.00  0.00    +0.000 A 
ATOM     17  O   UNL     1       5.786   5.798  16.060  0.00  0.00    +0.000 OA
ATOM     18  C   UNL     1       5.823   4.392  15.749  0.00  0.00    +0.000 C 
ATOM     19  O   UNL     1       4.714   3.650  16.301  0.00  0.00    +0.000 OA
ENDBRANCH   7  11
BRANCH   9  20
ATOM     20  O   UNL     1       0.334   9.287  21.534  0.00  0.00    +0.000 OA
ATOM     21  C   UNL     1       1.220   9.239  22.661  0.00  0.00    +0.000 C 
ENDBRANCH   9  20
BRANCH   1  22
ATOM     22  N   UNL     1      -1.219  11.573  20.053  0.00  0.00    +0.000 N 
BRANCH  22  23
ATOM     23  C   UNL     1      -2.024  11.240  18.937  0.00  0.00    +0.000 A 
ATOM     24  C   UNL     1      -1.477  10.432  17.904  0.00  0.00    +0.000 A 
ATOM     25  C   UNL     1      -2.189   9.983  16.792  0.00  0.00    +0.000 A 
ATOM     26  C   UNL     1      -3.507  10.359  16.623  0.00  0.00    +0.000 A 
ATOM     27  C   UNL     1      -4.114  11.192  17.561  0.00  0.00    +0.000 A 
ATOM     28  C   UNL     1      -5.442  11.569  17.300  0.00  0.00    +0.000 A 
ATOM     29  C   UNL     1      -6.129  12.407  18.159  0.00  0.00    +0.000 A 
ATOM     30  C   UNL     1      -5.481  12.897  19.282  0.00  0.00    +0.000 A 
ATOM     31  C   UNL     1      -4.149  12.537  19.537  0.00  0.00    +0.000 A 
ATOM     32  C   UNL     1      -3.402  11.653  18.720  0.00  0.00    +0.000 A 
ENDBRANCH  22  23
BRANCH  22  34
ATOM     33  C   UNL     1      -0.946  12.458  22.417  0.00  0.00    +0.000 C 
ATOM     34  C   UNL     1      -1.714  11.580  21.447  0.00  0.00    +0.000 C 
ENDBRANCH  22  34
ENDBRANCH   1  22
TORSDOF 5
ENDMDL
MODEL 3
REMARK VINA RESULT:      -8.2      1.907      3.955
REMARK  Name = 
REMARK  7 active torsions:
REMARK  status: ('A' for Active; 'I' for Inactive)
REMARK    1  A    between atoms: C_1  and  C_2
REMARK    2  A    between atoms: C_2  and  N_3
REMARK    3  A    between atoms: N_3  and  C_4
REMARK    4  A    between atoms: N_3  and  C_14
REMARK    5  A    between atoms: C_20  and  C_21
REMARK    6  A    between atoms: C_31  and  O_32
REMARK    7  A    between atoms: O_32  and  C_33
REMARK                            x       y       z     vdW  Elec       q    Type
REMARK                         _______ _______ _______ _____ _____    ______ ____
ROOT
ATOM      1  C   UNL     1       0.221  11.961  19.956  0.00  0.00    +0.000 C 
ATOM      2  C   UNL     1       0.458  13.041  18.855  0.00  0.00    +0.000 C 
ATOM      3  C   UNL     1       1.926  13.126  18.485  0.00  0.00    +0.000 C 
ATOM      4  C   UNL     1       2.286  11.854  17.750  0.00  0.00    +0.000 C 
ATOM      5  C   UNL     1       1.869  10.620  18.491  0.00  0.00    +0.000 A 
ATOM      6  N   UNL     1       2.437   9.487  18.007  0.00  0.00    +0.000 NA
ATOM      7  C   UNL     1       2.170   8.317  18.611  0.00  0.00    +0.000 A 
ATOM      8  C   UNL     1       1.404   8.284  19.766  0.00  0.00    +0.000 A 
ATOM      9  C   UNL     1       0.871   9.453  20.310  0.00  0.00    +0.000 A 
ATOM     10  C   UNL     1       0.979  10.658  19.597  0.00  0.00    +0.000 A 
ENDROOT
BRANCH   7  11
ATOM     11  C   UNL     1       2.812   7.102  18.078  0.00  0.00    +0.000 A 
ATOM     12  C   UNL     1       4.009   7.180  17.321  0.00  0.00    +0.000 A 
ATOM     13  C   UNL     1       4.706   6.029  16.927  0.00  0.00    +0.000 A 
ATOM     14  C   UNL     1       4.188   4.807  17.292  0.00  0.00    +0.000 A 
ATOM     15  C   UNL     1       3.012   4.708  17.992  0.00  0.00    +0.000 A 
ATOM     16  C   UNL     1       2.301   5.822  18.378  0.00  0.00    +0.000 A 
ATOM     17  O   UNL     1       2.670   3.422  18.266  0.00  0.00    +0.000 OA
ATOM     18  C   UNL     1       3.754   2.718  17.629  0.00  0.00    +0.000 C 
ATOM     19  O   UNL     1       4.737   3.591  17.033  0.00  0.00    +0.000 OA
ENDBRANCH   7  11
BRANCH   9  20
ATOM     20  O   UNL     1       0.262   9.448  21.543  0.00  0.00    +0.000 OA
ATOM     21  C   UNL     1       1.146   9.235  22.653  0.00  0.00    +0.000 C 
ENDBRANCH   9  20
BRANCH   1  22
ATOM     22  N   UNL     1      -1.268  11.789  20.125  0.00  0.00    +0.000 N 
BRANCH  22  23
ATOM     23  C   UNL     1      -2.076  11.400  19.030  0.00  0.00    +0.000 A 
ATOM     24  C   UNL     1      -1.516  10.581  18.013  0.00  0.00    +0.000 A 
ATOM     25  C   UNL     1      -2.228  10.079  16.923  0.00  0.00    +0.000 A 
ATOM     26  C   UNL     1      -3.558  10.407  16.762  0.00  0.00    +0.000 A 
ATOM     27  C   UNL     1      -4.181  11.247  17.685  0.00  0.00    +0.000 A 
ATOM     28  C   UNL     1      -5.523  11.573  17.432  0.00  0.00    +0.000 A 
ATOM     29  C   UNL     1      -6.226  12.413  18.276  0.00  0.00    +0.000 A 
ATOM     30  C   UNL     1      -5.580  12.954  19.376  0.00  0.00    +0.000 A 
ATOM     31  C   UNL     1      -4.234  12.645  19.623  0.00  0.00    +0.000 A 
ATOM     32  C   UNL     1      -3.469  11.763  18.821  0.00  0.00    +0.000 A 
ENDBRANCH  22  23
BRANCH  22  34
ATOM     33  C   UNL     1      -0.891  12.666  22.479  0.00  0.00    +0.000 C 
ATOM     34  C   UNL     1      -1.762  11.879  21.517  0.00  0.00    +0.000 C 
ENDBRANCH  22  34
ENDBRANCH   1  22
TORSDOF 5
ENDMDL
MODEL 4
REMARK VINA RESULT:      -8.0      2.218      3.100
REMARK  Name = 
REMARK  7 active torsions:
REMARK  status: ('A' for Active; 'I' for Inactive)
REMARK    1  A    between atoms: C_1  and  C_2
REMARK    2  A    between atoms: C_2  and  N_3
REMARK    3  A    between atoms: N_3  and  C_4
REMARK    4  A    between atoms: N_3  and  C_14
REMARK    5  A    between atoms: C_20  and  C_21
REMARK    6  A    between atoms: C_31  and  O_32
REMARK    7  A    between atoms: O_32  and  C_33
REMARK                            x       y       z     vdW  Elec       q    Type
REMARK                         _______ _______ _______ _____ _____    ______ ____
ROOT
ATOM      1  C   UNL     1      -0.111  12.149  19.561  0.00  0.00    +0.000 C 
ATOM      2  C   UNL     1       0.302  13.270  18.558  0.00  0.00    +0.000 C 
ATOM      3  C   UNL     1       1.811  13.396  18.474  0.00  0.00    +0.000 C 
ATOM      4  C   UNL     1       2.334  12.157  17.782  0.00  0.00    +0.000 C 
ATOM      5  C   UNL     1       1.816  10.890  18.393  0.00  0.00    +0.000 A 
ATOM      6  N   UNL     1       2.492   9.786  17.990  0.00  0.00    +0.000 NA
ATOM      7  C   UNL     1       2.146   8.591  18.497  0.00  0.00    +0.000 A 
ATOM      8  C   UNL     1       1.177   8.503  19.485  0.00  0.00    +0.000 A 
ATOM      9  C   UNL     1       0.522   9.643  19.954  0.00  0.00    +0.000 A 
ATOM     10  C   UNL     1       0.733  10.874  19.311  0.00  0.00    +0.000 A 
ENDROOT
BRANCH   7  11
ATOM     11  C   UNL     1       2.906   7.407  18.058  0.00  0.00    +0.000 A 
ATOM     12  C   UNL     1       2.451   6.096  18.352  0.00  0.00    +0.000 A 
ATOM     13  C   UNL     1       3.084   4.961  17.824  0.00  0.00    +0.000 A 
ATOM     14  C   UNL     1       4.176   5.156  17.010  0.00  0.00    +0.000 A 
ATOM     15  C   UNL     1       4.656   6.413  16.743  0.00  0.00    +0.000 A 
ATOM     16  C   UNL     1       4.062   7.543  17.260  0.00  0.00    +0.000 A 
ATOM     17  O   UNL     1       5.733   6.401  15.914  0.00  0.00    +0.000 OA
ATOM     18  C   UNL     1       5.896   4.983  15.713  0.00  0.00    +0.000 C 
ATOM     19  O   UNL     1       4.895   4.187  16.383  0.00  0.00    +0.000 OA
ENDBRANCH   7  11
BRANCH   9  20
ATOM     20  O   UNL     1      -0.306   9.584  21.049  0.00  0.00    +0.000 OA
ATOM     21  C   UNL     1       0.340   9.228  22.279  0.00  0.00    +0.000 C 
ENDBRANCH   9  20
BRANCH   1  22
ATOM     22  N   UNL     1      -1.601  11.944  19.441  0.00  0.00    +0.000 N 
BRANCH  22  23
ATOM     23  C   UNL     1      -2.455  12.222  20.534  0.00  0.00    +0.000 A 
ATOM     24  C   UNL     1      -1.908  12.288  21.843  0.00  0.00    +0.000 A 
ATOM     25  C   UNL     1      -2.634  12.619  22.987  0.00  0.00    +0.000 A 
ATOM     26  C   UNL     1      -3.988  12.869  22.893  0.00  0.00    +0.000 A 
ATOM     27  C   UNL     1      -4.623  12.779  21.655  0.00  0.00    +0.000 A 
ATOM     28  C   UNL     1      -6.009  13.004  21.642  0.00  0.00    +0.000 A 
ATOM     29  C   UNL     1      -6.737  12.921  20.469  0.00  0.00    +0.000 A 
ATOM     30  C   UNL     1      -6.080  12.589  19.294  0.00  0.00    +0.000 A 
ATOM     31  C   UNL     1      -4.699  12.348  19.304  0.00  0.00    +0.000 A 
ATOM     32  C   UNL     1      -3.890  12.454  20.463  0.00  0.00    +0.000 A 
ENDBRANCH  22  23
BRANCH  22  34
ATOM     33  C   UNL     1      -2.371  10.152  17.814  0.00  0.00    +0.000 C 
ATOM     34  C   UNL     1      -2.087  11.619  18.083  0.00  0.00    +0.000 C 
ENDBRANCH  22  34
ENDBRANCH   1  22
TORSDOF 5
ENDMDL
MODEL 5
REMARK VINA RESULT:      -7.9      2.201      3.790
REMARK  Name = 
REMARK  7 active torsions:
REMARK  status: ('A' for Active; 'I' for Inactive)
REMARK    1  A    between atoms: C_1  and  C_2
REMARK    2  A    between atoms: C_2  and  N_3
REMARK    3  A    between atoms: N_3  and  C_4
REMARK    4  A    between atoms: N_3  and  C_14
REMARK    5  A    between atoms: C_20  and  C_21
REMARK    6  A    between atoms: C_31  and  O_32
REMARK    7  A    between atoms: O_32  and  C_33
REMARK                            x       y       z     vdW  Elec       q    Type
REMARK                         _______ _______ _______ _____ _____    ______ ____
ROOT
ATOM      1  C   UNL     1      -1.083  11.493  21.211  0.00  0.00    +0.000 C 
ATOM      2  C   UNL     1      -0.788  11.483  22.743  0.00  0.00    +0.000 C 
ATOM      3  C   UNL     1      -0.827  10.071  23.295  0.00  0.00    +0.000 C 
ATOM      4  C   UNL     1       0.374   9.333  22.747  0.00  0.00    +0.000 C 
ATOM      5  C   UNL     1       0.495   9.450  21.258  0.00  0.00    +0.000 A 
ATOM      6  N   UNL     1       1.374   8.568  20.721  0.00  0.00    +0.000 NA
ATOM      7  C   UNL     1       1.544   8.548  19.388  0.00  0.00    +0.000 A 
ATOM      8  C   UNL     1       0.764   9.352  18.571  0.00  0.00    +0.000 A 
ATOM      9  C   UNL     1      -0.191  10.216  19.110  0.00  0.00    +0.000 A 
ATOM     10  C   UNL     1      -0.256  10.389  20.502  0.00  0.00    +0.000 A 
ENDROOT
BRANCH   7  11
ATOM     11  C   UNL     1       2.491   7.569  18.826  0.00  0.00    +0.000 A 
ATOM     12  C   UNL     1       3.229   7.859  17.649  0.00  0.00    +0.000 A 
ATOM     13  C   UNL     1       4.233   7.000  17.180  0.00  0.00    +0.000 A 
ATOM     14  C   UNL     1       4.481   5.852  17.896  0.00  0.00    +0.000 A 
ATOM     15  C   UNL     1       3.755   5.534  19.016  0.00  0.00    +0.000 A 
ATOM     16  C   UNL     1       2.754   6.352  19.489  0.00  0.00    +0.000 A 
ATOM     17  O   UNL     1       4.154   4.368  19.588  0.00  0.00    +0.000 OA
ATOM     18  C   UNL     1       5.199   3.970  18.680  0.00  0.00    +0.000 C 
ATOM     19  O   UNL     1       5.433   4.921  17.619  0.00  0.00    +0.000 OA
ENDBRANCH   7  11
BRANCH   9  20
ATOM     20  O   UNL     1      -1.082  10.881  18.302  0.00  0.00    +0.000 OA
ATOM     21  C   UNL     1      -2.236  10.119  17.919  0.00  0.00    +0.000 C 
ENDBRANCH   9  20
BRANCH   1  22
ATOM     22  N   UNL     1      -0.828  12.888  20.698  0.00  0.00    +0.000 N 
BRANCH  22  23
ATOM     23  C   UNL     1       0.417  13.521  20.925  0.00  0.00    +0.000 A 
ATOM     24  C   UNL     1       1.575  13.031  20.265  0.00  0.00    +0.000 A 
ATOM     25  C   UNL     1       2.841  13.610  20.357  0.00  0.00    +0.000 A 
ATOM     26  C   UNL     1       3.035  14.713  21.164  0.00  0.00    +0.000 A 
ATOM     27  C   UNL     1       1.965  15.235  21.890  0.00  0.00    +0.000 A 
ATOM     28  C   UNL     1       2.247  16.330  22.723  0.00  0.00    +0.000 A 
ATOM     29  C   UNL     1       1.260  16.911  23.499  0.00  0.00    +0.000 A 
ATOM     30  C   UNL     1      -0.021  16.382  23.463  0.00  0.00    +0.000 A 
ATOM     31  C   UNL     1      -0.303  15.278  22.645  0.00  0.00    +0.000 A 
ATOM     32  C   UNL     1       0.651  14.661  21.798  0.00  0.00    +0.000 A 
ENDBRANCH  22  23
BRANCH  22  34
ATOM     33  C   UNL     1      -3.303  13.035  20.148  0.00  0.00    +0.000 C 
ATOM     34  C   UNL     1      -1.879  13.440  19.815  0.00  0.00    +0.000 C 
ENDBRANCH  22  34
ENDBRANCH   1  22
TORSDOF 5
ENDMDL
MODEL 6
REMARK VINA RESULT:      -7.9      1.216      1.618
REMARK  Name = 
REMARK  7 active torsions:
REMARK  status: ('A' for Active; 'I' for Inactive)
REMARK    1  A    between atoms: C_1  and  C_2
REMARK    2  A    between atoms: C_2  and  N_3
REMARK    3  A    between atoms: N_3  and  C_4
REMARK    4  A    between atoms: N_3  and  C_14
REMARK    5  A    between atoms: C_20  and  C_21
REMARK    6  A    between atoms: C_31  and  O_32
REMARK    7  A    between atoms: O_32  and  C_33
REMARK                            x       y       z     vdW  Elec       q    Type
REMARK                         _______ _______ _______ _____ _____    ______ ____
ROOT
ATOM      1  C   UNL     1       0.401  12.382  19.991  0.00  0.00    +0.000 C 
ATOM      2  C   UNL     1       0.651  12.956  18.561  0.00  0.00    +0.000 C 
ATOM      3  C   UNL     1       2.063  12.659  18.096  0.00  0.00    +0.000 C 
ATOM      4  C   UNL     1       2.160  11.170  17.849  0.00  0.00    +0.000 C 
ATOM      5  C   UNL     1       1.669  10.358  19.010  0.00  0.00    +0.000 A 
ATOM      6  N   UNL     1       2.017   9.050  18.933  0.00  0.00    +0.000 NA
ATOM      7  C   UNL     1       1.668   8.225  19.935  0.00  0.00    +0.000 A 
ATOM      8  C   UNL     1       1.045   8.723  21.068  0.00  0.00    +0.000 A 
ATOM      9  C   UNL     1       0.742  10.081  21.185  0.00  0.00    +0.000 A 
ATOM     10  C   UNL     1       0.928  10.927  20.080  0.00  0.00    +0.000 A 
ENDROOT
BRANCH   7  11
ATOM     11  C   UNL     1       2.072   6.811  19.838  0.00  0.00    +0.000 A 
ATOM     12  C   UNL     1       2.916   6.362  18.790  0.00  0.00    +0.000 A 
ATOM     13  C   UNL     1       3.423   5.055  18.761  0.00  0.00    +0.000 A 
ATOM     14  C   UNL     1       3.068   4.206  19.786  0.00  0.00    +0.000 A 
ATOM     15  C   UNL     1       2.224   4.609  20.789  0.00  0.00    +0.000 A 
ATOM     16  C   UNL     1       1.701   5.881  20.833  0.00  0.00    +0.000 A 
ATOM     17  O   UNL     1       2.001   3.635  21.711  0.00  0.00    +0.000 OA
ATOM     18  C   UNL     1       2.781   2.559  21.155  0.00  0.00    +0.000 C 
ATOM     19  O   UNL     1       3.484   2.922  19.947  0.00  0.00    +0.000 OA
ENDBRANCH   7  11
BRANCH   9  20
ATOM     20  O   UNL     1       0.288  10.606  22.371  0.00  0.00    +0.000 OA
ATOM     21  C   UNL     1      -0.307   9.655  23.266  0.00  0.00    +0.000 C 
ENDBRANCH   9  20
BRANCH   1  22
ATOM     22  N   UNL     1      -1.068  12.532  20.301  0.00  0.00    +0.000 N 
BRANCH  22  23
ATOM     23  C   UNL     1      -1.524  13.592  21.121  0.00  0.00    +0.000 A 
ATOM     24  C   UNL     1      -1.139  14.924  20.811  0.00  0.00    +0.000 A 
ATOM     25  C   UNL     1      -1.577  16.053  21.502  0.00  0.00    +0.000 A 
ATOM     26  C   UNL     1      -2.412  15.911  22.592  0.00  0.00    +0.000 A 
ATOM     27  C   UNL     1      -2.803  14.637  23.001  0.00  0.00    +0.000 A 
ATOM     28  C   UNL     1      -3.617  14.567  24.144  0.00  0.00    +0.000 A 
ATOM     29  C   UNL     1      -4.045  13.350  24.643  0.00  0.00    +0.000 A 
ATOM     30  C   UNL     1      -3.642  12.185  24.010  0.00  0.00    +0.000 A 
ATOM     31  C   UNL     1      -2.816  12.249  22.878  0.00  0.00    +0.000 A 
ATOM     32  C   UNL     1      -2.374  13.462  22.294  0.00  0.00    +0.000 A 
ENDBRANCH  22  23
BRANCH  22  34
ATOM     33  C   UNL     1      -3.281  12.231  19.093  0.00  0.00    +0.000 C 
ATOM     34  C   UNL     1      -1.968  11.626  19.556  0.00  0.00    +0.000 C 
ENDBRANCH  22  34
ENDBRANCH   1  22
TORSDOF 5
ENDMDL
MODEL 7
REMARK VINA RESULT:      -7.9      1.767      2.805
REMARK  Name = 
REMARK  7 active torsions:
REMARK  status: ('A' for Active; 'I' for Inactive)
REMARK    1  A    between atoms: C_1  and  C_2
REMARK    2  A    between atoms: C_2  and  N_3
REMARK    3  A    between atoms: N_3  and  C_4
REMARK    4  A    between atoms: N_3  and  C_14
REMARK    5  A    between atoms: C_20  and  C_21
REMARK    6  A    between atoms: C_31  and  O_32
REMARK    7  A    between atoms: O_32  and  C_33
REMARK                            x       y       z     vdW  Elec       q    Type
REMARK                         _______ _______ _______ _____ _____    ______ ____
ROOT
ATOM      1  C   UNL     1      -0.412  12.319  19.412  0.00  0.00    +0.000 C 
ATOM      2  C   UNL     1       0.099  13.353  18.360  0.00  0.00    +0.000 C 
ATOM      3  C   UNL     1       1.610  13.468  18.401  0.00  0.00    +0.000 C 
ATOM      4  C   UNL     1       2.182  12.176  17.862  0.00  0.00    +0.000 C 
ATOM      5  C   UNL     1       1.600  10.965  18.526  0.00  0.00    +0.000 A 
ATOM      6  N   UNL     1       2.300   9.830  18.277  0.00  0.00    +0.000 NA
ATOM      7  C   UNL     1       1.900   8.681  18.848  0.00  0.00    +0.000 A 
ATOM      8  C   UNL     1       0.846   8.677  19.749  0.00  0.00    +0.000 A 
ATOM      9  C   UNL     1       0.163   9.852  20.064  0.00  0.00    +0.000 A 
ATOM     10  C   UNL     1       0.440  11.026  19.343  0.00  0.00    +0.000 A 
ENDROOT
BRANCH   7  11
ATOM     11  C   UNL     1       2.685   7.464  18.577  0.00  0.00    +0.000 A 
ATOM     12  C   UNL     1       3.633   7.426  17.522  0.00  0.00    +0.000 A 
ATOM     13  C   UNL     1       4.485   6.328  17.338  0.00  0.00    +0.000 A 
ATOM     14  C   UNL     1       4.372   5.273  18.214  0.00  0.00    +0.000 A 
ATOM     15  C   UNL     1       3.437   5.274  19.218  0.00  0.00    +0.000 A 
ATOM     16  C   UNL     1       2.578   6.332  19.412  0.00  0.00    +0.000 A 
ATOM     17  O   UNL     1       3.486   4.151  19.983  0.00  0.00    +0.000 OA
ATOM     18  C   UNL     1       4.543   3.426  19.323  0.00  0.00    +0.000 C 
ATOM     19  O   UNL     1       5.130   4.144  18.217  0.00  0.00    +0.000 OA
ENDBRANCH   7  11
BRANCH   9  20
ATOM     20  O   UNL     1      -0.760   9.885  21.082  0.00  0.00    +0.000 OA
ATOM     21  C   UNL     1      -0.221   9.674  22.394  0.00  0.00    +0.000 C 
ENDBRANCH   9  20
BRANCH   1  22
ATOM     22  N   UNL     1      -1.886  12.107  19.177  0.00  0.00    +0.000 N 
BRANCH  22  23
ATOM     23  C   UNL     1      -2.836  12.541  20.131  0.00  0.00    +0.000 A 
ATOM     24  C   UNL     1      -4.219  12.473  19.815  0.00  0.00    +0.000 A 
ATOM     25  C   UNL     1      -5.248  12.807  20.695  0.00  0.00    +0.000 A 
ATOM     26  C   UNL     1      -4.947  13.280  21.956  0.00  0.00    +0.000 A 
ATOM     27  C   UNL     1      -3.615  13.429  22.339  0.00  0.00    +0.000 A 
ATOM     28  C   UNL     1      -3.384  13.956  23.620  0.00  0.00    +0.000 A 
ATOM     29  C   UNL     1      -2.099  14.160  24.089  0.00  0.00    +0.000 A 
ATOM     30  C   UNL     1      -1.027  13.856  23.264  0.00  0.00    +0.000 A 
ATOM     31  C   UNL     1      -1.253  13.344  21.978  0.00  0.00    +0.000 A 
ATOM     32  C   UNL     1      -2.541  13.076  21.452  0.00  0.00    +0.000 A 
ENDBRANCH  22  23
BRANCH  22  34
ATOM     33  C   UNL     1      -2.593  10.120  17.762  0.00  0.00    +0.000 C 
ATOM     34  C   UNL     1      -2.247  11.595  17.837  0.00  0.00    +0.000 C 
ENDBRANCH  22  34
ENDBRANCH   1  22
TORSDOF 5
ENDMDL
MODEL 8
REMARK VINA RESULT:      -7.9      2.454      4.161
REMARK  Name = 
REMARK  7 active torsions:
REMARK  status: ('A' for Active; 'I' for Inactive)
REMARK    1  A    between atoms: C_1  and  C_2
REMARK    2  A    between atoms: C_2  and  N_3
REMARK    3  A    between atoms: N_3  and  C_4
REMARK    4  A    between atoms: N_3  and  C_14
REMARK    5  A    between atoms: C_20  and  C_21
REMARK    6  A    between atoms: C_31  and  O_32
REMARK    7  A    between atoms: O_32  and  C_33
REMARK                            x       y       z     vdW  Elec       q    Type
REMARK                         _______ _______ _______ _____ _____    ______ ____
ROOT
ATOM      1  C   UNL     1      -0.774  11.155  20.644  0.00  0.00    +0.000 C 
ATOM      2  C   UNL     1      -0.379  11.269  22.149  0.00  0.00    +0.000 C 
ATOM      3  C   UNL     1      -0.329   9.903  22.804  0.00  0.00    +0.000 C 
ATOM      4  C   UNL     1       0.859   9.164  22.230  0.00  0.00    +0.000 C 
ATOM      5  C   UNL     1       0.878   9.173  20.732  0.00  0.00    +0.000 A 
ATOM      6  N   UNL     1       1.751   8.281  20.202  0.00  0.00    +0.000 NA
ATOM      7  C   UNL     1       1.833   8.167  18.866  0.00  0.00    +0.000 A 
ATOM      8  C   UNL     1       0.973   8.882  18.047  0.00  0.00    +0.000 A 
ATOM      9  C   UNL     1       0.025   9.753  18.586  0.00  0.00    +0.000 A 
ATOM     10  C   UNL     1       0.045  10.028  19.963  0.00  0.00    +0.000 A 
ENDROOT
BRANCH   7  11
ATOM     11  C   UNL     1       2.777   7.179  18.313  0.00  0.00    +0.000 A 
ATOM     12  C   UNL     1       2.612   5.792  18.562  0.00  0.00    +0.000 A 
ATOM     13  C   UNL     1       3.415   4.830  17.933  0.00  0.00    +0.000 A 
ATOM     14  C   UNL     1       4.383   5.274  17.061  0.00  0.00    +0.000 A 
ATOM     15  C   UNL     1       4.584   6.612  16.833  0.00  0.00    +0.000 A 
ATOM     16  C   UNL     1       3.820   7.576  17.450  0.00  0.00    +0.000 A 
ATOM     17  O   UNL     1       5.576   6.849  15.935  0.00  0.00    +0.000 OA
ATOM     18  C   UNL     1       6.001   5.503  15.646  0.00  0.00    +0.000 C 
ATOM     19  O   UNL     1       5.229   4.496  16.335  0.00  0.00    +0.000 OA
ENDBRANCH   7  11
BRANCH   9  20
ATOM     20  O   UNL     1      -0.942  10.327  17.795  0.00  0.00    +0.000 OA
ATOM     21  C   UNL     1      -2.197   9.632  17.772  0.00  0.00    +0.000 C 
ENDBRANCH   9  20
BRANCH   1  22
ATOM     22  N   UNL     1      -0.604  12.516  20.015  0.00  0.00    +0.000 N 
BRANCH  22  23
ATOM     23  C   UNL     1       0.685  13.076  19.852  0.00  0.00    +0.000 A 
ATOM     24  C   UNL     1       1.529  12.586  18.820  0.00  0.00    +0.000 A 
ATOM     25  C   UNL     1       2.790  13.102  18.519  0.00  0.00    +0.000 A 
ATOM     26  C   UNL     1       3.308  14.134  19.275  0.00  0.00    +0.000 A 
ATOM     27  C   UNL     1       2.571  14.648  20.341  0.00  0.00    +0.000 A 
ATOM     28  C   UNL     1       3.180  15.666  21.092  0.00  0.00    +0.000 A 
ATOM     29  C   UNL     1       2.541  16.231  22.181  0.00  0.00    +0.000 A 
ATOM     30  C   UNL     1       1.287  15.762  22.542  0.00  0.00    +0.000 A 
ATOM     31  C   UNL     1       0.682  14.733  21.805  0.00  0.00    +0.000 A 
ATOM     32  C   UNL     1       1.265  14.139  20.658  0.00  0.00    +0.000 A 
ENDBRANCH  22  23
BRANCH  22  34
ATOM     33  C   UNL     1      -3.139  12.656  20.069  0.00  0.00    +0.000 C 
ATOM     34  C   UNL     1      -1.833  13.104  19.440  0.00  0.00    +0.000 C 
ENDBRANCH  22  34
ENDBRANCH   1  22
TORSDOF 5
ENDMDL
MODEL 9
REMARK VINA RESULT:      -7.9      2.797      5.008
REMARK  Name = 
REMARK  7 active torsions:
REMARK  status: ('A' for Active; 'I' for Inactive)
REMARK    1  A    between atoms: C_1  and  C_2
REMARK    2  A    between atoms: C_2  and  N_3
REMARK    3  A    between atoms: N_3  and  C_4
REMARK    4  A    between atoms: N_3  and  C_14
REMARK    5  A    between atoms: C_20  and  C_21
REMARK    6  A    between atoms: C_31  and  O_32
REMARK    7  A    between atoms: O_32  and  C_33
REMARK                            x       y       z     vdW  Elec       q    Type
REMARK                         _______ _______ _______ _____ _____    ______ ____
ROOT
ATOM      1  C   UNL     1      -0.492  13.237  21.142  0.00  0.00    +0.000 C 
ATOM      2  C   UNL     1      -0.750  13.182  22.680  0.00  0.00    +0.000 C 
ATOM      3  C   UNL     1      -1.555  11.953  23.053  0.00  0.00    +0.000 C 
ATOM      4  C   UNL     1      -0.667  10.746  22.848  0.00  0.00    +0.000 C 
ATOM      5  C   UNL     1      -0.026  10.722  21.494  0.00  0.00    +0.000 A 
ATOM      6  N   UNL     1       0.525   9.522  21.183  0.00  0.00    +0.000 NA
ATOM      7  C   UNL     1       1.098   9.363  19.978  0.00  0.00    +0.000 A 
ATOM      8  C   UNL     1       1.043  10.379  19.036  0.00  0.00    +0.000 A 
ATOM      9  C   UNL     1       0.419  11.593  19.323  0.00  0.00    +0.000 A 
ATOM     10  C   UNL     1      -0.021  11.851  20.632  0.00  0.00    +0.000 A 
ENDROOT
BRANCH   7  11
ATOM     11  C   UNL     1       1.675   8.045  19.656  0.00  0.00    +0.000 A 
ATOM     12  C   UNL     1       2.433   7.849  18.473  0.00  0.00    +0.000 A 
ATOM     13  C   UNL     1       3.104   6.644  18.220  0.00  0.00    +0.000 A 
ATOM     14  C   UNL     1       3.000   5.643  19.158  0.00  0.00    +0.000 A 
ATOM     15  C   UNL     1       2.242   5.798  20.291  0.00  0.00    +0.000 A 
ATOM     16  C   UNL     1       1.561   6.965  20.556  0.00  0.00    +0.000 A 
ATOM     17  O   UNL     1       2.272   4.704  21.097  0.00  0.00    +0.000 OA
ATOM     18  C   UNL     1       3.114   3.827  20.325  0.00  0.00    +0.000 C 
ATOM     19  O   UNL     1       3.604   4.426  19.106  0.00  0.00    +0.000 OA
ENDBRANCH   7  11
BRANCH   9  20
ATOM     20  O   UNL     1       0.208  12.532  18.341  0.00  0.00    +0.000 OA
ATOM     21  C   UNL     1      -1.114  12.537  17.783  0.00  0.00    +0.000 C 
ENDBRANCH   9  20
BRANCH   1  22
ATOM     22  N   UNL     1       0.477  14.362  20.873  0.00  0.00    +0.000 N 
BRANCH  22  23
ATOM     23  C   UNL     1       0.110  15.440  20.034  0.00  0.00    +0.000 A 
ATOM     24  C   UNL     1      -1.182  16.016  20.169  0.00  0.00    +0.000 A 
ATOM     25  C   UNL     1      -1.632  17.122  19.448  0.00  0.00    +0.000 A 
ATOM     26  C   UNL     1      -0.815  17.704  18.501  0.00  0.00    +0.000 A 
ATOM     27  C   UNL     1       0.454  17.176  18.264  0.00  0.00    +0.000 A 
ATOM     28  C   UNL     1       1.212  17.793  17.255  0.00  0.00    +0.000 A 
ATOM     29  C   UNL     1       2.476  17.335  16.929  0.00  0.00    +0.000 A 
ATOM     30  C   UNL     1       2.985  16.234  17.601  0.00  0.00    +0.000 A 
ATOM     31  C   UNL     1       2.224  15.605  18.597  0.00  0.00    +0.000 A 
ATOM     32  C   UNL     1       0.942  16.047  19.005  0.00  0.00    +0.000 A 
ENDBRANCH  22  23
BRANCH  22  34
ATOM     33  C   UNL     1       2.107  15.639  22.342  0.00  0.00    +0.000 C 
ATOM     34  C   UNL     1       1.719  14.333  21.675  0.00  0.00    +0.000 C 
ENDBRANCH  22  34
ENDBRANCH   1  22
TORSDOF 5
ENDMDL
