MODEL 1
REMARK VINA RESULT:      -8.8      0.000      0.000
REMARK  Name = 
REMARK  4 active torsions:
REMARK  status: ('A' for Active; 'I' for Inactive)
REMARK    1  A    between atoms: C_11  and  C_12
REMARK    2  A    between atoms: C_12  and  C_13
REMARK    3  A    between atoms: C_16  and  O_17
REMARK    4  A    between atoms: C_21  and  C_22
REMARK                            x       y       z     vdW  Elec       q    Type
REMARK                         _______ _______ _______ _____ _____    ______ ____
ROOT
ATOM      1  O   UNL     1       0.649   6.507  21.104  0.00  0.00    +0.000 OA
ATOM      2  C   UNL     1       1.595   6.184  20.394  0.00  0.00    +0.000 A 
ATOM      3  C   UNL     1       2.224   4.851  20.533  0.00  0.00    +0.000 A 
ATOM      4  C   UNL     1       1.779   3.983  21.538  0.00  0.00    +0.000 A 
ATOM      5  C   UNL     1       2.350   2.719  21.660  0.00  0.00    +0.000 A 
ATOM      6  C   UNL     1       3.368   2.325  20.787  0.00  0.00    +0.000 A 
ATOM      7  C   UNL     1       3.822   3.195  19.788  0.00  0.00    +0.000 A 
ATOM      8  C   UNL     1       3.249   4.459  19.656  0.00  0.00    +0.000 A 
ATOM      9  O   UNL     1       3.725   5.267  18.637  0.00  0.00    +0.000 OA
ATOM     10  C   UNL     1       3.189   6.502  18.522  0.00  0.00    +0.000 A 
ATOM     11  C   UNL     1       3.516   7.445  17.579  0.00  0.00    +0.000 A 
ATOM     12  N   UNL     1       2.724   8.543  17.857  0.00  0.00    +0.000 N 
ATOM     13  C   UNL     1       1.928   8.316  18.971  0.00  0.00    +0.000 A 
ATOM     14  C   UNL     1       2.178   7.009  19.363  0.00  0.00    +0.000 A 
ATOM     15  H   UNL     1       2.715   9.417  17.344  0.00  0.00    +0.000 HD
ENDROOT
BRANCH  13  16
ATOM     16  C   UNL     1       1.029   9.348  19.482  0.00  0.00    +0.000 A 
ATOM     17  C   UNL     1       0.796   9.546  20.832  0.00  0.00    +0.000 A 
ATOM     18  C   UNL     1      -0.137  10.501  21.205  0.00  0.00    +0.000 A 
ATOM     19 CL   UNL     1      -0.499  10.737  22.872  0.00  0.00    +0.000 Cl
ATOM     20  C   UNL     1      -0.789  11.257  20.245  0.00  0.00    +0.000 A 
ATOM     21  C   UNL     1      -0.457  11.027  18.923  0.00  0.00    +0.000 A 
ATOM     22  N   UNL     1       0.440  10.099  18.517  0.00  0.00    +0.000 NA
ENDBRANCH  13  16
BRANCH  11  23
ATOM     23  C   UNL     1       4.492   7.421  16.443  0.00  0.00    +0.000 C 
BRANCH  23  24
ATOM     24  C   UNL     1       5.661   6.497  16.701  0.00  0.00    +0.000 A 
ATOM     25  C   UNL     1       5.787   5.295  15.985  0.00  0.00    +0.000 A 
ATOM     26  C   UNL     1       6.800   4.385  16.288  0.00  0.00    +0.000 A 
ATOM     27  C   UNL     1       7.706   4.688  17.298  0.00  0.00    +0.000 A 
ATOM     28  C   UNL     1       7.644   5.902  17.970  0.00  0.00    +0.000 A 
ATOM     29  C   UNL     1       6.622   6.806  17.676  0.00  0.00    +0.000 A 
BRANCH  27  30
ATOM     30  O   UNL     1       8.671   3.799  17.671  0.00  0.00    +0.000 OA
ATOM     31  H   UNL     1       8.299   3.220  18.356  0.00  0.00    +0.000 HD
ENDBRANCH  27  30
ENDBRANCH  23  24
ENDBRANCH  11  23
TORSDOF 4
ENDMDL
MODEL 2
REMARK VINA RESULT:      -8.7      1.057      1.268
REMARK  Name = 
REMARK  4 active torsions:
REMARK  status: ('A' for Active; 'I' for Inactive)
REMARK    1  A    between atoms: C_11  and  C_12
REMARK    2  A    between atoms: C_12  and  C_13
REMARK    3  A    between atoms: C_16  and  O_17
REMARK    4  A    between atoms: C_21  and  C_22
REMARK                            x       y       z     vdW  Elec       q    Type
REMARK                         _______ _______ _______ _____ _____    ______ ____
ROOT
ATOM      1  O   UNL     1       0.642   6.557  21.101  0.00  0.00    +0.000 OA
ATOM      2  C   UNL     1       1.580   6.224  20.385  0.00  0.00    +0.000 A 
ATOM      3  C   UNL     1       2.200   4.886  20.526  0.00  0.00    +0.000 A 
ATOM      4  C   UNL     1       1.756   4.027  21.538  0.00  0.00    +0.000 A 
ATOM      5  C   UNL     1       2.319   2.759  21.662  0.00  0.00    +0.000 A 
ATOM      6  C   UNL     1       3.327   2.354  20.783  0.00  0.00    +0.000 A 
ATOM      7  C   UNL     1       3.779   3.214  19.777  0.00  0.00    +0.000 A 
ATOM      8  C   UNL     1       3.215   4.482  19.643  0.00  0.00    +0.000 A 
ATOM      9  O   UNL     1       3.688   5.281  18.616  0.00  0.00    +0.000 OA
ATOM     10  C   UNL     1       3.161   6.520  18.499  0.00  0.00    +0.000 A 
ATOM     11  C   UNL     1       3.489   7.456  17.549  0.00  0.00    +0.000 A 
ATOM     12  N   UNL     1       2.707   8.561  17.828  0.00  0.00    +0.000 N 
ATOM     13  C   UNL     1       1.918   8.346  18.949  0.00  0.00    +0.000 A 
ATOM     14  C   UNL     1       2.161   7.039  19.345  0.00  0.00    +0.000 A 
ATOM     15  H   UNL     1       2.700   9.433  17.310  0.00  0.00    +0.000 HD
ENDROOT
BRANCH  13  16
ATOM     16  C   UNL     1       1.030   9.387  19.461  0.00  0.00    +0.000 A 
ATOM     17  C   UNL     1       0.082  10.024  18.678  0.00  0.00    +0.000 A 
ATOM     18  C   UNL     1      -0.653  11.054  19.243  0.00  0.00    +0.000 A 
ATOM     19 CL   UNL     1      -1.800  11.910  18.287  0.00  0.00    +0.000 Cl
ATOM     20  C   UNL     1      -0.463  11.405  20.569  0.00  0.00    +0.000 A 
ATOM     21  C   UNL     1       0.469  10.682  21.290  0.00  0.00    +0.000 A 
ATOM     22  N   UNL     1       1.214   9.677  20.773  0.00  0.00    +0.000 NA
ENDBRANCH  13  16
BRANCH  11  23
ATOM     23  C   UNL     1       4.454   7.418  16.405  0.00  0.00    +0.000 C 
BRANCH  23  24
ATOM     24  C   UNL     1       5.625   6.496  16.664  0.00  0.00    +0.000 A 
ATOM     25  C   UNL     1       5.733   5.277  15.975  0.00  0.00    +0.000 A 
ATOM     26  C   UNL     1       6.748   4.370  16.282  0.00  0.00    +0.000 A 
ATOM     27  C   UNL     1       7.674   4.693  17.266  0.00  0.00    +0.000 A 
ATOM     28  C   UNL     1       7.630   5.923  17.910  0.00  0.00    +0.000 A 
ATOM     29  C   UNL     1       6.605   6.825  17.613  0.00  0.00    +0.000 A 
BRANCH  27  30
ATOM     30  O   UNL     1       8.643   3.810  17.642  0.00  0.00    +0.000 OA
ATOM     31  H   UNL     1       8.257   3.199  18.292  0.00  0.00    +0.000 HD
ENDBRANCH  27  30
ENDBRANCH  23  24
ENDBRANCH  11  23
TORSDOF 4
ENDMDL
MODEL 3
REMARK VINA RESULT:      -8.3      4.687      7.143
REMARK  Name = 
REMARK  4 active torsions:
REMARK  status: ('A' for Active; 'I' for Inactive)
REMARK    1  A    between atoms: C_11  and  C_12
REMARK    2  A    between atoms: C_12  and  C_13
REMARK    3  A    between atoms: C_16  and  O_17
REMARK    4  A    between atoms: C_21  and  C_22
REMARK                            x       y       z     vdW  Elec       q    Type
REMARK                         _______ _______ _______ _____ _____    ______ ____
ROOT
ATOM      1  O   UNL     1       3.938   3.710  15.758  0.00  0.00    +0.000 OA
ATOM      2  C   UNL     1       4.326   4.330  16.741  0.00  0.00    +0.000 A 
ATOM      3  C   UNL     1       3.480   4.432  17.952  0.00  0.00    +0.000 A 
ATOM      4  C   UNL     1       2.196   3.876  17.941  0.00  0.00    +0.000 A 
ATOM      5  C   UNL     1       1.403   3.947  19.084  0.00  0.00    +0.000 A 
ATOM      6  C   UNL     1       1.889   4.579  20.232  0.00  0.00    +0.000 A 
ATOM      7  C   UNL     1       3.169   5.145  20.243  0.00  0.00    +0.000 A 
ATOM      8  C   UNL     1       3.970   5.070  19.104  0.00  0.00    +0.000 A 
ATOM      9  O   UNL     1       5.234   5.630  19.181  0.00  0.00    +0.000 OA
ATOM     10  C   UNL     1       6.003   5.581  18.071  0.00  0.00    +0.000 A 
ATOM     11  C   UNL     1       7.281   6.069  17.946  0.00  0.00    +0.000 A 
ATOM     12  N   UNL     1       7.658   5.803  16.643  0.00  0.00    +0.000 N 
ATOM     13  C   UNL     1       6.632   5.184  15.943  0.00  0.00    +0.000 A 
ATOM     14  C   UNL     1       5.604   4.993  16.855  0.00  0.00    +0.000 A 
ATOM     15  H   UNL     1       8.550   6.032  16.222  0.00  0.00    +0.000 HD
ENDROOT
BRANCH  13  16
ATOM     16  C   UNL     1       6.782   4.835  14.532  0.00  0.00    +0.000 A 
ATOM     17  C   UNL     1       5.992   3.889  13.900  0.00  0.00    +0.000 A 
ATOM     18  C   UNL     1       6.271   3.577  12.579  0.00  0.00    +0.000 A 
ATOM     19 CL   UNL     1       5.351   2.364  11.774  0.00  0.00    +0.000 Cl
ATOM     20  C   UNL     1       7.292   4.227  11.906  0.00  0.00    +0.000 A 
ATOM     21  C   UNL     1       7.996   5.193  12.600  0.00  0.00    +0.000 A 
ATOM     22  N   UNL     1       7.762   5.519  13.892  0.00  0.00    +0.000 NA
ENDBRANCH  13  16
BRANCH  11  23
ATOM     23  C   UNL     1       8.186   6.754  18.924  0.00  0.00    +0.000 C 
BRANCH  23  24
ATOM     24  C   UNL     1       8.316   8.237  18.653  0.00  0.00    +0.000 A 
ATOM     25  C   UNL     1       7.603   8.831  17.599  0.00  0.00    +0.000 A 
ATOM     26  C   UNL     1       7.797  10.174  17.273  0.00  0.00    +0.000 A 
ATOM     27  C   UNL     1       8.691  10.933  18.018  0.00  0.00    +0.000 A 
ATOM     28  C   UNL     1       9.353  10.385  19.110  0.00  0.00    +0.000 A 
ATOM     29  C   UNL     1       9.170   9.037  19.428  0.00  0.00    +0.000 A 
BRANCH  27  30
ATOM     30  O   UNL     1       8.959  12.230  17.693  0.00  0.00    +0.000 OA
ATOM     31  H   UNL     1       8.698  12.788  18.444  0.00  0.00    +0.000 HD
ENDBRANCH  27  30
ENDBRANCH  23  24
ENDBRANCH  11  23
TORSDOF 4
ENDMDL
MODEL 4
REMARK VINA RESULT:      -8.2      3.778      7.250
REMARK  Name = 
REMARK  4 active torsions:
REMARK  status: ('A' for Active; 'I' for Inactive)
REMARK    1  A    between atoms: C_11  and  C_12
REMARK    2  A    between atoms: C_12  and  C_13
REMARK    3  A    between atoms: C_16  and  O_17
REMARK    4  A    between atoms: C_21  and  C_22
REMARK                            x       y       z     vdW  Elec       q    Type
REMARK                         _______ _______ _______ _____ _____    ______ ____
ROOT
ATOM      1  O   UNL     1      -0.772  13.940  18.362  0.00  0.00    +0.000 OA
ATOM      2  C   UNL     1       0.038  13.301  19.024  0.00  0.00    +0.000 A 
ATOM      3  C   UNL     1       1.224  13.964  19.613  0.00  0.00    +0.000 A 
ATOM      4  C   UNL     1       1.457  15.318  19.345  0.00  0.00    +0.000 A 
ATOM      5  C   UNL     1       2.557  15.955  19.914  0.00  0.00    +0.000 A 
ATOM      6  C   UNL     1       3.427  15.239  20.741  0.00  0.00    +0.000 A 
ATOM      7  C   UNL     1       3.202  13.882  21.003  0.00  0.00    +0.000 A 
ATOM      8  C   UNL     1       2.098  13.241  20.442  0.00  0.00    +0.000 A 
ATOM      9  O   UNL     1       1.916  11.905  20.752  0.00  0.00    +0.000 OA
ATOM     10  C   UNL     1       0.861  11.275  20.191  0.00  0.00    +0.000 A 
ATOM     11  C   UNL     1       0.505   9.961  20.378  0.00  0.00    +0.000 A 
ATOM     12  N   UNL     1      -0.623   9.765  19.604  0.00  0.00    +0.000 N 
ATOM     13  C   UNL     1      -0.964  10.920  18.915  0.00  0.00    +0.000 A 
ATOM     14  C   UNL     1      -0.062  11.892  19.324  0.00  0.00    +0.000 A 
ATOM     15  H   UNL     1      -1.144   8.900  19.517  0.00  0.00    +0.000 HD
ENDROOT
BRANCH  13  16
ATOM     16  C   UNL     1      -2.103  10.949  18.001  0.00  0.00    +0.000 A 
ATOM     17  C   UNL     1      -2.045  10.462  16.706  0.00  0.00    +0.000 A 
ATOM     18  C   UNL     1      -3.161  10.611  15.898  0.00  0.00    +0.000 A 
ATOM     19 CL   UNL     1      -3.110  10.074  14.263  0.00  0.00    +0.000 Cl
ATOM     20  C   UNL     1      -4.313  11.199  16.394  0.00  0.00    +0.000 A 
ATOM     21  C   UNL     1      -4.298  11.610  17.713  0.00  0.00    +0.000 A 
ATOM     22  N   UNL     1      -3.227  11.492  18.532  0.00  0.00    +0.000 NA
ENDBRANCH  13  16
BRANCH  11  23
ATOM     23  C   UNL     1       1.112   8.874  21.211  0.00  0.00    +0.000 C 
BRANCH  23  24
ATOM     24  C   UNL     1       1.654   7.736  20.375  0.00  0.00    +0.000 A 
ATOM     25  C   UNL     1       2.179   7.983  19.096  0.00  0.00    +0.000 A 
ATOM     26  C   UNL     1       2.583   6.930  18.274  0.00  0.00    +0.000 A 
ATOM     27  C   UNL     1       2.482   5.625  18.741  0.00  0.00    +0.000 A 
ATOM     28  C   UNL     1       2.033   5.362  20.029  0.00  0.00    +0.000 A 
ATOM     29  C   UNL     1       1.616   6.415  20.846  0.00  0.00    +0.000 A 
BRANCH  27  30
ATOM     30  O   UNL     1       2.804   4.564  17.947  0.00  0.00    +0.000 OA
ATOM     31  H   UNL     1       2.088   4.443  17.301  0.00  0.00    +0.000 HD
ENDBRANCH  27  30
ENDBRANCH  23  24
ENDBRANCH  11  23
TORSDOF 4
ENDMDL
MODEL 5
REMARK VINA RESULT:      -7.9      3.624      7.157
REMARK  Name = 
REMARK  4 active torsions:
REMARK  status: ('A' for Active; 'I' for Inactive)
REMARK    1  A    between atoms: C_11  and  C_12
REMARK    2  A    between atoms: C_12  and  C_13
REMARK    3  A    between atoms: C_16  and  O_17
REMARK    4  A    between atoms: C_21  and  C_22
REMARK                            x       y       z     vdW  Elec       q    Type
REMARK                         _______ _______ _______ _____ _____    ______ ____
ROOT
ATOM      1  O   UNL     1      -0.736  13.888  18.291  0.00  0.00    +0.000 OA
ATOM      2  C   UNL     1       0.049  13.253  18.987  0.00  0.00    +0.000 A 
ATOM      3  C   UNL     1       1.193  13.927  19.642  0.00  0.00    +0.000 A 
ATOM      4  C   UNL     1       1.419  15.287  19.401  0.00  0.00    +0.000 A 
ATOM      5  C   UNL     1       2.480  15.932  20.032  0.00  0.00    +0.000 A 
ATOM      6  C   UNL     1       3.317  15.220  20.895  0.00  0.00    +0.000 A 
ATOM      7  C   UNL     1       3.099  13.857  21.130  0.00  0.00    +0.000 A 
ATOM      8  C   UNL     1       2.034  13.207  20.507  0.00  0.00    +0.000 A 
ATOM      9  O   UNL     1       1.857  11.865  20.794  0.00  0.00    +0.000 OA
ATOM     10  C   UNL     1       0.841  11.226  20.173  0.00  0.00    +0.000 A 
ATOM     11  C   UNL     1       0.496   9.906  20.327  0.00  0.00    +0.000 A 
ATOM     12  N   UNL     1      -0.589   9.702  19.494  0.00  0.00    +0.000 N 
ATOM     13  C   UNL     1      -0.911  10.860  18.802  0.00  0.00    +0.000 A 
ATOM     14  C   UNL     1      -0.045  11.840  19.266  0.00  0.00    +0.000 A 
ATOM     15  H   UNL     1      -1.091   8.831  19.373  0.00  0.00    +0.000 HD
ENDROOT
BRANCH  13  16
ATOM     16  C   UNL     1      -2.003  10.883  17.832  0.00  0.00    +0.000 A 
ATOM     17  C   UNL     1      -3.174  11.595  18.030  0.00  0.00    +0.000 A 
ATOM     18  C   UNL     1      -4.179  11.483  17.082  0.00  0.00    +0.000 A 
ATOM     19 CL   UNL     1      -5.674  12.305  17.319  0.00  0.00    +0.000 Cl
ATOM     20  C   UNL     1      -3.993  10.705  15.951  0.00  0.00    +0.000 A 
ATOM     21  C   UNL     1      -2.774  10.070  15.811  0.00  0.00    +0.000 A 
ATOM     22  N   UNL     1      -1.771  10.145  16.717  0.00  0.00    +0.000 NA
ENDBRANCH  13  16
BRANCH  11  23
ATOM     23  C   UNL     1       1.075   8.818  21.178  0.00  0.00    +0.000 C 
BRANCH  23  24
ATOM     24  C   UNL     1       1.645   7.681  20.359  0.00  0.00    +0.000 A 
ATOM     25  C   UNL     1       2.234   7.933  19.110  0.00  0.00    +0.000 A 
ATOM     26  C   UNL     1       2.666   6.883  18.299  0.00  0.00    +0.000 A 
ATOM     27  C   UNL     1       2.529   5.575  18.748  0.00  0.00    +0.000 A 
ATOM     28  C   UNL     1       2.016   5.306  20.011  0.00  0.00    +0.000 A 
ATOM     29  C   UNL     1       1.571   6.357  20.817  0.00  0.00    +0.000 A 
BRANCH  27  30
ATOM     30  O   UNL     1       2.878   4.518  17.962  0.00  0.00    +0.000 OA
ATOM     31  H   UNL     1       2.911   4.825  17.040  0.00  0.00    +0.000 HD
ENDBRANCH  27  30
ENDBRANCH  23  24
ENDBRANCH  11  23
TORSDOF 4
ENDMDL
MODEL 6
REMARK VINA RESULT:      -7.8      5.713      9.211
REMARK  Name = 
REMARK  4 active torsions:
REMARK  status: ('A' for Active; 'I' for Inactive)
REMARK    1  A    between atoms: C_11  and  C_12
REMARK    2  A    between atoms: C_12  and  C_13
REMARK    3  A    between atoms: C_16  and  O_17
REMARK    4  A    between atoms: C_21  and  C_22
REMARK                            x       y       z     vdW  Elec       q    Type
REMARK                         _______ _______ _______ _____ _____    ______ ____
ROOT
ATOM      1  O   UNL     1      -6.001  12.758  19.116  0.00  0.00    +0.000 OA
ATOM      2  C   UNL     1      -4.823  12.432  19.218  0.00  0.00    +0.000 A 
ATOM      3  C   UNL     1      -4.103  11.834  18.071  0.00  0.00    +0.000 A 
ATOM      4  C   UNL     1      -4.798  11.573  16.884  0.00  0.00    +0.000 A 
ATOM      5  C   UNL     1      -4.121  11.032  15.794  0.00  0.00    +0.000 A 
ATOM      6  C   UNL     1      -2.756  10.747  15.890  0.00  0.00    +0.000 A 
ATOM      7  C   UNL     1      -2.061  10.998  17.079  0.00  0.00    +0.000 A 
ATOM      8  C   UNL     1      -2.731  11.545  18.172  0.00  0.00    +0.000 A 
ATOM      9  O   UNL     1      -1.987  11.791  19.313  0.00  0.00    +0.000 OA
ATOM     10  C   UNL     1      -2.639  12.298  20.382  0.00  0.00    +0.000 A 
ATOM     11  C   UNL     1      -2.083  12.617  21.597  0.00  0.00    +0.000 A 
ATOM     12  N   UNL     1      -3.124  13.090  22.374  0.00  0.00    +0.000 N 
ATOM     13  C   UNL     1      -4.325  13.047  21.679  0.00  0.00    +0.000 A 
ATOM     14  C   UNL     1      -4.015  12.599  20.403  0.00  0.00    +0.000 A 
ATOM     15  H   UNL     1      -3.054  13.415  23.330  0.00  0.00    +0.000 HD
ENDROOT
BRANCH  13  16
ATOM     16  C   UNL     1      -5.577  13.464  22.306  0.00  0.00    +0.000 A 
ATOM     17  C   UNL     1      -5.929  14.792  22.479  0.00  0.00    +0.000 A 
ATOM     18  C   UNL     1      -7.103  15.077  23.158  0.00  0.00    +0.000 A 
ATOM     19 CL   UNL     1      -7.548  16.715  23.447  0.00  0.00    +0.000 Cl
ATOM     20  C   UNL     1      -7.916  14.052  23.615  0.00  0.00    +0.000 A 
ATOM     21  C   UNL     1      -7.511  12.757  23.353  0.00  0.00    +0.000 A 
ATOM     22  N   UNL     1      -6.368  12.436  22.703  0.00  0.00    +0.000 NA
ENDBRANCH  13  16
BRANCH  11  23
ATOM     23  C   UNL     1      -0.676  12.528  22.102  0.00  0.00    +0.000 C 
BRANCH  23  24
ATOM     24  C   UNL     1      -0.080  11.149  21.921  0.00  0.00    +0.000 A 
ATOM     25  C   UNL     1       0.767  10.880  20.834  0.00  0.00    +0.000 A 
ATOM     26  C   UNL     1       1.236   9.588  20.596  0.00  0.00    +0.000 A 
ATOM     27  C   UNL     1       0.876   8.563  21.463  0.00  0.00    +0.000 A 
ATOM     28  C   UNL     1       0.098   8.820  22.586  0.00  0.00    +0.000 A 
ATOM     29  C   UNL     1      -0.383  10.111  22.815  0.00  0.00    +0.000 A 
BRANCH  27  30
ATOM     30  O   UNL     1       1.258   7.275  21.232  0.00  0.00    +0.000 OA
ATOM     31  H   UNL     1       0.500   6.799  20.854  0.00  0.00    +0.000 HD
ENDBRANCH  27  30
ENDBRANCH  23  24
ENDBRANCH  11  23
TORSDOF 4
ENDMDL
MODEL 7
REMARK VINA RESULT:      -7.7      3.336      6.772
REMARK  Name = 
REMARK  4 active torsions:
REMARK  status: ('A' for Active; 'I' for Inactive)
REMARK    1  A    between atoms: C_11  and  C_12
REMARK    2  A    between atoms: C_12  and  C_13
REMARK    3  A    between atoms: C_16  and  O_17
REMARK    4  A    between atoms: C_21  and  C_22
REMARK                            x       y       z     vdW  Elec       q    Type
REMARK                         _______ _______ _______ _____ _____    ______ ____
ROOT
ATOM      1  O   UNL     1      -3.480  12.463  19.419  0.00  0.00    +0.000 OA
ATOM      2  C   UNL     1      -2.677  11.728  18.854  0.00  0.00    +0.000 A 
ATOM      3  C   UNL     1      -2.999  11.128  17.539  0.00  0.00    +0.000 A 
ATOM      4  C   UNL     1      -4.261  11.345  16.976  0.00  0.00    +0.000 A 
ATOM      5  C   UNL     1      -4.562  10.803  15.729  0.00  0.00    +0.000 A 
ATOM      6  C   UNL     1      -3.608  10.040  15.050  0.00  0.00    +0.000 A 
ATOM      7  C   UNL     1      -2.348   9.814  15.616  0.00  0.00    +0.000 A 
ATOM      8  C   UNL     1      -2.038  10.359  16.861  0.00  0.00    +0.000 A 
ATOM      9  O   UNL     1      -0.770  10.118  17.360  0.00  0.00    +0.000 OA
ATOM     10  C   UNL     1      -0.475  10.625  18.577  0.00  0.00    +0.000 A 
ATOM     11  C   UNL     1       0.723  10.504  19.239  0.00  0.00    +0.000 A 
ATOM     12  N   UNL     1       0.555  11.169  20.440  0.00  0.00    +0.000 N 
ATOM     13  C   UNL     1      -0.730  11.679  20.554  0.00  0.00    +0.000 A 
ATOM     14  C   UNL     1      -1.368  11.385  19.357  0.00  0.00    +0.000 A 
ATOM     15  H   UNL     1       1.254  11.273  21.166  0.00  0.00    +0.000 HD
ENDROOT
BRANCH  13  16
ATOM     16  C   UNL     1      -1.157  12.394  21.754  0.00  0.00    +0.000 A 
ATOM     17  C   UNL     1      -2.250  12.010  22.513  0.00  0.00    +0.000 A 
ATOM     18  C   UNL     1      -2.616  12.806  23.588  0.00  0.00    +0.000 A 
ATOM     19 CL   UNL     1      -4.003  12.397  24.521  0.00  0.00    +0.000 Cl
ATOM     20  C   UNL     1      -1.878  13.934  23.908  0.00  0.00    +0.000 A 
ATOM     21  C   UNL     1      -0.773  14.213  23.126  0.00  0.00    +0.000 A 
ATOM     22  N   UNL     1      -0.389  13.468  22.064  0.00  0.00    +0.000 NA
ENDBRANCH  13  16
BRANCH  11  23
ATOM     23  C   UNL     1       2.007   9.834  18.860  0.00  0.00    +0.000 C 
BRANCH  23  24
ATOM     24  C   UNL     1       1.982   8.343  19.116  0.00  0.00    +0.000 A 
ATOM     25  C   UNL     1       1.621   7.847  20.379  0.00  0.00    +0.000 A 
ATOM     26  C   UNL     1       1.698   6.482  20.659  0.00  0.00    +0.000 A 
ATOM     27  C   UNL     1       2.115   5.606  19.664  0.00  0.00    +0.000 A 
ATOM     28  C   UNL     1       2.408   6.066  18.386  0.00  0.00    +0.000 A 
ATOM     29  C   UNL     1       2.344   7.434  18.111  0.00  0.00    +0.000 A 
BRANCH  27  30
ATOM     30  O   UNL     1       2.266   4.274  19.913  0.00  0.00    +0.000 OA
ATOM     31  H   UNL     1       1.781   3.783  19.229  0.00  0.00    +0.000 HD
ENDBRANCH  27  30
ENDBRANCH  23  24
ENDBRANCH  11  23
TORSDOF 4
ENDMDL
MODEL 8
REMARK VINA RESULT:      -7.7      4.553     10.355
REMARK  Name = 
REMARK  4 active torsions:
REMARK  status: ('A' for Active; 'I' for Inactive)
REMARK    1  A    between atoms: C_11  and  C_12
REMARK    2  A    between atoms: C_12  and  C_13
REMARK    3  A    between atoms: C_16  and  O_17
REMARK    4  A    between atoms: C_21  and  C_22
REMARK                            x       y       z     vdW  Elec       q    Type
REMARK                         _______ _______ _______ _____ _____    ______ ____
ROOT
ATOM      1  O   UNL     1       2.658  12.376  18.457  0.00  0.00    +0.000 OA
ATOM      2  C   UNL     1       1.630  12.987  18.728  0.00  0.00    +0.000 A 
ATOM      3  C   UNL     1       1.566  14.460  18.582  0.00  0.00    +0.000 A 
ATOM      4  C   UNL     1       2.715  15.162  18.202  0.00  0.00    +0.000 A 
ATOM      5  C   UNL     1       2.656  16.544  18.040  0.00  0.00    +0.000 A 
ATOM      6  C   UNL     1       1.456  17.223  18.265  0.00  0.00    +0.000 A 
ATOM      7  C   UNL     1       0.307  16.524  18.655  0.00  0.00    +0.000 A 
ATOM      8  C   UNL     1       0.358  15.139  18.811  0.00  0.00    +0.000 A 
ATOM      9  O   UNL     1      -0.814  14.500  19.178  0.00  0.00    +0.000 OA
ATOM     10  C   UNL     1      -0.762  13.162  19.354  0.00  0.00    +0.000 A 
ATOM     11  C   UNL     1      -1.810  12.348  19.709  0.00  0.00    +0.000 A 
ATOM     12  N   UNL     1      -1.286  11.070  19.777  0.00  0.00    +0.000 N 
ATOM     13  C   UNL     1       0.074  11.073  19.501  0.00  0.00    +0.000 A 
ATOM     14  C   UNL     1       0.399  12.383  19.181  0.00  0.00    +0.000 A 
ATOM     15  H   UNL     1      -1.797  10.228  20.011  0.00  0.00    +0.000 HD
ENDROOT
BRANCH  13  16
ATOM     16  C   UNL     1       0.858   9.841  19.547  0.00  0.00    +0.000 A 
ATOM     17  C   UNL     1       1.606   9.382  18.476  0.00  0.00    +0.000 A 
ATOM     18  C   UNL     1       2.249   8.160  18.600  0.00  0.00    +0.000 A 
ATOM     19 CL   UNL     1       3.140   7.524  17.271  0.00  0.00    +0.000 Cl
ATOM     20  C   UNL     1       2.169   7.442  19.782  0.00  0.00    +0.000 A 
ATOM     21  C   UNL     1       1.442   8.001  20.816  0.00  0.00    +0.000 A 
ATOM     22  N   UNL     1       0.792   9.185  20.732  0.00  0.00    +0.000 NA
ENDBRANCH  13  16
BRANCH  11  23
ATOM     23  C   UNL     1      -3.252  12.644  19.984  0.00  0.00    +0.000 C 
BRANCH  23  24
ATOM     24  C   UNL     1      -3.562  12.695  21.464  0.00  0.00    +0.000 A 
ATOM     25  C   UNL     1      -2.587  12.328  22.405  0.00  0.00    +0.000 A 
ATOM     26  C   UNL     1      -2.894  12.268  23.765  0.00  0.00    +0.000 A 
ATOM     27  C   UNL     1      -4.176  12.598  24.189  0.00  0.00    +0.000 A 
ATOM     28  C   UNL     1      -5.136  13.033  23.283  0.00  0.00    +0.000 A 
ATOM     29  C   UNL     1      -4.832  13.079  21.920  0.00  0.00    +0.000 A 
BRANCH  27  30
ATOM     30  O   UNL     1      -4.537  12.491  25.499  0.00  0.00    +0.000 OA
ATOM     31  H   UNL     1      -4.856  11.586  25.651  0.00  0.00    +0.000 HD
ENDBRANCH  27  30
ENDBRANCH  23  24
ENDBRANCH  11  23
TORSDOF 4
ENDMDL
MODEL 9
REMARK VINA RESULT:      -7.6      6.984      9.392
REMARK  Name = 
REMARK  4 active torsions:
REMARK  status: ('A' for Active; 'I' for Inactive)
REMARK    1  A    between atoms: C_11  and  C_12
REMARK    2  A    between atoms: C_12  and  C_13
REMARK    3  A    between atoms: C_16  and  O_17
REMARK    4  A    between atoms: C_21  and  C_22
REMARK                            x       y       z     vdW  Elec       q    Type
REMARK                         _______ _______ _______ _____ _____    ______ ____
ROOT
ATOM      1  O   UNL     1       0.490  15.136  22.727  0.00  0.00    +0.000 OA
ATOM      2  C   UNL     1      -0.161  14.121  22.507  0.00  0.00    +0.000 A 
ATOM      3  C   UNL     1      -1.419  13.857  23.244  0.00  0.00    +0.000 A 
ATOM      4  C   UNL     1      -1.823  14.741  24.251  0.00  0.00    +0.000 A 
ATOM      5  C   UNL     1      -3.017  14.511  24.931  0.00  0.00    +0.000 A 
ATOM      6  C   UNL     1      -3.799  13.398  24.612  0.00  0.00    +0.000 A 
ATOM      7  C   UNL     1      -3.392  12.508  23.612  0.00  0.00    +0.000 A 
ATOM      8  C   UNL     1      -2.202  12.736  22.922  0.00  0.00    +0.000 A 
ATOM      9  O   UNL     1      -1.861  11.833  21.930  0.00  0.00    +0.000 OA
ATOM     10  C   UNL     1      -0.697  12.038  21.277  0.00  0.00    +0.000 A 
ATOM     11  C   UNL     1      -0.187  11.264  20.262  0.00  0.00    +0.000 A 
ATOM     12  N   UNL     1       1.016  11.849  19.915  0.00  0.00    +0.000 N 
ATOM     13  C   UNL     1       1.283  12.954  20.710  0.00  0.00    +0.000 A 
ATOM     14  C   UNL     1       0.179  13.110  21.536  0.00  0.00    +0.000 A 
ATOM     15  H   UNL     1       1.649  11.526  19.191  0.00  0.00    +0.000 HD
ENDROOT
BRANCH  13  16
ATOM     16  C   UNL     1       2.519  13.718  20.553  0.00  0.00    +0.000 A 
ATOM     17  C   UNL     1       2.887  14.323  19.364  0.00  0.00    +0.000 A 
ATOM     18  C   UNL     1       4.119  14.956  19.302  0.00  0.00    +0.000 A 
ATOM     19 CL   UNL     1       4.640  15.669  17.824  0.00  0.00    +0.000 Cl
ATOM     20  C   UNL     1       4.937  15.008  20.418  0.00  0.00    +0.000 A 
ATOM     21  C   UNL     1       4.467  14.421  21.578  0.00  0.00    +0.000 A 
ATOM     22  N   UNL     1       3.276  13.785  21.677  0.00  0.00    +0.000 NA
ENDBRANCH  13  16
BRANCH  11  23
ATOM     23  C   UNL     1      -0.715  10.039  19.583  0.00  0.00    +0.000 C 
BRANCH  23  24
ATOM     24  C   UNL     1      -1.682  10.365  18.466  0.00  0.00    +0.000 A 
ATOM     25  C   UNL     1      -2.744  11.257  18.685  0.00  0.00    +0.000 A 
ATOM     26  C   UNL     1      -3.703  11.483  17.696  0.00  0.00    +0.000 A 
ATOM     27  C   UNL     1      -3.586  10.831  16.474  0.00  0.00    +0.000 A 
ATOM     28  C   UNL     1      -2.505  10.001  16.210  0.00  0.00    +0.000 A 
ATOM     29  C   UNL     1      -1.553   9.764  17.204  0.00  0.00    +0.000 A 
BRANCH  27  30
ATOM     30  O   UNL     1      -4.535  10.973  15.505  0.00  0.00    +0.000 OA
ATOM     31  H   UNL     1      -4.333  10.345  14.792  0.00  0.00    +0.000 HD
ENDBRANCH  27  30
ENDBRANCH  23  24
ENDBRANCH  11  23
TORSDOF 4
ENDMDL
