MODEL 1
REMARK VINA RESULT:      -7.3      0.000      0.000
REMARK  Name = 
REMARK  5 active torsions:
REMARK  status: ('A' for Active; 'I' for Inactive)
REMARK    1  A    between atoms: C_2  and  O_3
REMARK    2  A    between atoms: C_2  and  C_4
REMARK    3  A    between atoms: C_4  and  O_5
REMARK    4  A    between atoms: O_5  and  C_6
REMARK    5  A    between atoms: C_17  and  C_18
REMARK                            x       y       z     vdW  Elec       q    Type
REMARK                         _______ _______ _______ _____ _____    ______ ____
ROOT
ATOM      1  C   UNL     1       5.844   3.965  14.963  0.00  0.00    +0.000 A 
ATOM      2  C   UNL     1       4.632   3.511  15.492  0.00  0.00    +0.000 A 
ATOM      3  C   UNL     1       4.086   4.184  16.571  0.00  0.00    +0.000 A 
ATOM      4  C   UNL     1       4.722   5.311  17.080  0.00  0.00    +0.000 A 
ATOM      5  C   UNL     1       5.894   5.823  16.562  0.00  0.00    +0.000 A 
ATOM      6 CL   UNL     1       6.629   7.224  17.246  0.00  0.00    +0.000 Cl
ATOM      7  C   UNL     1       6.460   5.138  15.475  0.00  0.00    +0.000 A 
ATOM      8 CL   UNL     1       7.941   5.682  14.747  0.00  0.00    +0.000 Cl
ATOM      9  S   UNL     1       3.838   5.892  18.465  0.00  0.00    +0.000 S 
ATOM     10  O   UNL     1       3.252   7.168  18.123  0.00  0.00    +0.000 OA
ATOM     11  O   UNL     1       4.673   5.672  19.628  0.00  0.00    +0.000 OA
ATOM     12  C   UNL     1       2.618   4.628  18.342  0.00  0.00    +0.000 C 
ATOM     13  C   UNL     1       2.871   3.828  17.290  0.00  0.00    +0.000 C 
ENDROOT
BRANCH  12  14
ATOM     14  C   UNL     1       1.445   4.617  19.295  0.00  0.00    +0.000 C 
ATOM     15  C   UNL     1       0.713   3.260  19.381  0.00  0.00    +0.000 C 
ATOM     16  C   UNL     1       1.513   2.188  20.128  0.00  0.00    +0.000 C 
ATOM     17  C   UNL     1       1.977   2.659  21.502  0.00  0.00    +0.000 C 
ATOM     18  C   UNL     1       2.650   4.027  21.468  0.00  0.00    +0.000 C 
ATOM     19  C   UNL     1       1.803   5.060  20.726  0.00  0.00    +0.000 C 
ENDBRANCH  12  14
BRANCH   1  20
ATOM     20  O   UNL     1       6.478   3.320  13.927  0.00  0.00    +0.000 OA
BRANCH  20  21
ATOM     21  C   UNL     1       6.181   3.828  12.620  0.00  0.00    +0.000 C 
BRANCH  21  23
ATOM     22  O   UNL     1       4.277   3.014  11.373  0.00  0.00    +0.000 OA
ATOM     23  C   UNL     1       5.383   2.794  11.844  0.00  0.00    +0.000 C 
BRANCH  23  24
ATOM     24  O   UNL     1       6.002   1.596  11.738  0.00  0.00    +0.000 OA
ATOM     25  H   UNL     1       6.878   1.694  11.302  0.00  0.00    +0.000 HD
ENDBRANCH  23  24
ENDBRANCH  21  23
ENDBRANCH  20  21
ENDBRANCH   1  20
TORSDOF 5
ENDMDL
MODEL 2
REMARK VINA RESULT:      -7.1      1.062      1.677
REMARK  Name = 
REMARK  5 active torsions:
REMARK  status: ('A' for Active; 'I' for Inactive)
REMARK    1  A    between atoms: C_2  and  O_3
REMARK    2  A    between atoms: C_2  and  C_4
REMARK    3  A    between atoms: C_4  and  O_5
REMARK    4  A    between atoms: O_5  and  C_6
REMARK    5  A    between atoms: C_17  and  C_18
REMARK                            x       y       z     vdW  Elec       q    Type
REMARK                         _______ _______ _______ _____ _____    ______ ____
ROOT
ATOM      1  C   UNL     1       6.163   3.872  14.707  0.00  0.00    +0.000 A 
ATOM      2  C   UNL     1       5.231   3.241  15.538  0.00  0.00    +0.000 A 
ATOM      3  C   UNL     1       5.058   3.720  16.824  0.00  0.00    +0.000 A 
ATOM      4  C   UNL     1       5.775   4.833  17.253  0.00  0.00    +0.000 A 
ATOM      5  C   UNL     1       6.670   5.515  16.454  0.00  0.00    +0.000 A 
ATOM      6 CL   UNL     1       7.526   6.886  17.053  0.00  0.00    +0.000 Cl
ATOM      7  C   UNL     1       6.858   5.027  15.152  0.00  0.00    +0.000 A 
ATOM      8 CL   UNL     1       7.970   5.796  14.059  0.00  0.00    +0.000 Cl
ATOM      9  S   UNL     1       5.395   5.151  18.924  0.00  0.00    +0.000 S 
ATOM     10  O   UNL     1       4.665   6.397  18.990  0.00  0.00    +0.000 OA
ATOM     11  O   UNL     1       6.589   4.872  19.693  0.00  0.00    +0.000 OA
ATOM     12  C   UNL     1       4.271   3.800  19.029  0.00  0.00    +0.000 C 
ATOM     13  C   UNL     1       4.185   3.163  17.847  0.00  0.00    +0.000 C 
ENDROOT
BRANCH  12  14
ATOM     14  C   UNL     1       3.500   3.559  20.307  0.00  0.00    +0.000 C 
ATOM     15  C   UNL     1       2.493   4.676  20.657  0.00  0.00    +0.000 C 
ATOM     16  C   UNL     1       1.260   4.684  19.747  0.00  0.00    +0.000 C 
ATOM     17  C   UNL     1       0.579   3.322  19.675  0.00  0.00    +0.000 C 
ATOM     18  C   UNL     1       1.553   2.182  19.394  0.00  0.00    +0.000 C 
ATOM     19  C   UNL     1       2.754   2.213  20.338  0.00  0.00    +0.000 C 
ENDBRANCH  12  14
BRANCH   1  20
ATOM     20  O   UNL     1       6.431   3.423  13.435  0.00  0.00    +0.000 OA
BRANCH  20  21
ATOM     21  C   UNL     1       5.541   3.901  12.419  0.00  0.00    +0.000 C 
BRANCH  21  23
ATOM     22  O   UNL     1       3.953   2.745  11.010  0.00  0.00    +0.000 OA
ATOM     23  C   UNL     1       5.016   2.726  11.612  0.00  0.00    +0.000 C 
BRANCH  23  24
ATOM     24  O   UNL     1       5.828   1.644  11.635  0.00  0.00    +0.000 OA
ATOM     25  H   UNL     1       5.337   0.834  11.370  0.00  0.00    +0.000 HD
ENDBRANCH  23  24
ENDBRANCH  21  23
ENDBRANCH  20  21
ENDBRANCH   1  20
TORSDOF 5
ENDMDL
MODEL 3
REMARK VINA RESULT:      -6.8      3.768      7.299
REMARK  Name = 
REMARK  5 active torsions:
REMARK  status: ('A' for Active; 'I' for Inactive)
REMARK    1  A    between atoms: C_2  and  O_3
REMARK    2  A    between atoms: C_2  and  C_4
REMARK    3  A    between atoms: C_4  and  O_5
REMARK    4  A    between atoms: O_5  and  C_6
REMARK    5  A    between atoms: C_17  and  C_18
REMARK                            x       y       z     vdW  Elec       q    Type
REMARK                         _______ _______ _______ _____ _____    ______ ____
ROOT
ATOM      1  C   UNL     1       2.229   8.038  18.936  0.00  0.00    +0.000 A 
ATOM      2  C   UNL     1       3.072   7.660  17.886  0.00  0.00    +0.000 A 
ATOM      3  C   UNL     1       3.650   6.404  17.920  0.00  0.00    +0.000 A 
ATOM      4  C   UNL     1       3.357   5.532  18.964  0.00  0.00    +0.000 A 
ATOM      5  C   UNL     1       2.496   5.844  19.996  0.00  0.00    +0.000 A 
ATOM      6 CL   UNL     1       2.180   4.715  21.260  0.00  0.00    +0.000 Cl
ATOM      7  C   UNL     1       1.915   7.122  19.974  0.00  0.00    +0.000 A 
ATOM      8 CL   UNL     1       0.825   7.632  21.228  0.00  0.00    +0.000 Cl
ATOM      9  S   UNL     1       4.281   4.068  18.765  0.00  0.00    +0.000 S 
ATOM     10  O   UNL     1       3.362   2.993  18.464  0.00  0.00    +0.000 OA
ATOM     11  O   UNL     1       5.249   4.025  19.840  0.00  0.00    +0.000 OA
ATOM     12  C   UNL     1       5.041   4.630  17.280  0.00  0.00    +0.000 C 
ATOM     13  C   UNL     1       4.593   5.857  16.955  0.00  0.00    +0.000 C 
ENDROOT
BRANCH  12  14
ATOM     14  C   UNL     1       5.978   3.719  16.521  0.00  0.00    +0.000 C 
ATOM     15  C   UNL     1       5.461   3.299  15.128  0.00  0.00    +0.000 C 
ATOM     16  C   UNL     1       5.504   4.435  14.100  0.00  0.00    +0.000 C 
ATOM     17  C   UNL     1       6.879   5.089  14.011  0.00  0.00    +0.000 C 
ATOM     18  C   UNL     1       7.453   5.460  15.375  0.00  0.00    +0.000 C 
ATOM     19  C   UNL     1       7.399   4.289  16.354  0.00  0.00    +0.000 C 
ENDBRANCH  12  14
BRANCH   1  20
ATOM     20  O   UNL     1       1.659   9.289  19.003  0.00  0.00    +0.000 OA
BRANCH  20  21
ATOM     21  C   UNL     1       0.826   9.639  17.891  0.00  0.00    +0.000 C 
BRANCH  21  23
ATOM     22  O   UNL     1      -0.753  10.339  19.581  0.00  0.00    +0.000 OA
ATOM     23  C   UNL     1      -0.449  10.292  18.399  0.00  0.00    +0.000 C 
BRANCH  23  24
ATOM     24  O   UNL     1      -1.228  10.802  17.418  0.00  0.00    +0.000 OA
ATOM     25  H   UNL     1      -1.556  10.088  16.828  0.00  0.00    +0.000 HD
ENDBRANCH  23  24
ENDBRANCH  21  23
ENDBRANCH  20  21
ENDBRANCH   1  20
TORSDOF 5
ENDMDL
MODEL 4
REMARK VINA RESULT:      -6.7      3.777      7.282
REMARK  Name = 
REMARK  5 active torsions:
REMARK  status: ('A' for Active; 'I' for Inactive)
REMARK    1  A    between atoms: C_2  and  O_3
REMARK    2  A    between atoms: C_2  and  C_4
REMARK    3  A    between atoms: C_4  and  O_5
REMARK    4  A    between atoms: O_5  and  C_6
REMARK    5  A    between atoms: C_17  and  C_18
REMARK                            x       y       z     vdW  Elec       q    Type
REMARK                         _______ _______ _______ _____ _____    ______ ____
ROOT
ATOM      1  C   UNL     1       2.204   8.056  18.902  0.00  0.00    +0.000 A 
ATOM      2  C   UNL     1       3.045   7.671  17.853  0.00  0.00    +0.000 A 
ATOM      3  C   UNL     1       3.637   6.421  17.903  0.00  0.00    +0.000 A 
ATOM      4  C   UNL     1       3.358   5.563  18.961  0.00  0.00    +0.000 A 
ATOM      5  C   UNL     1       2.499   5.881  19.994  0.00  0.00    +0.000 A 
ATOM      6 CL   UNL     1       2.202   4.768  21.276  0.00  0.00    +0.000 Cl
ATOM      7  C   UNL     1       1.904   7.152  19.955  0.00  0.00    +0.000 A 
ATOM      8 CL   UNL     1       0.815   7.670  21.207  0.00  0.00    +0.000 Cl
ATOM      9  S   UNL     1       4.297   4.106  18.780  0.00  0.00    +0.000 S 
ATOM     10  O   UNL     1       3.388   3.017  18.500  0.00  0.00    +0.000 OA
ATOM     11  O   UNL     1       5.271   4.090  19.851  0.00  0.00    +0.000 OA
ATOM     12  C   UNL     1       5.044   4.654  17.283  0.00  0.00    +0.000 C 
ATOM     13  C   UNL     1       4.581   5.871  16.942  0.00  0.00    +0.000 C 
ENDROOT
BRANCH  12  14
ATOM     14  C   UNL     1       5.987   3.741  16.534  0.00  0.00    +0.000 C 
ATOM     15  C   UNL     1       5.478   3.315  15.139  0.00  0.00    +0.000 C 
ATOM     16  C   UNL     1       5.525   4.446  14.107  0.00  0.00    +0.000 C 
ATOM     17  C   UNL     1       6.899   5.102  14.023  0.00  0.00    +0.000 C 
ATOM     18  C   UNL     1       7.464   5.480  15.388  0.00  0.00    +0.000 C 
ATOM     19  C   UNL     1       7.407   4.313  16.371  0.00  0.00    +0.000 C 
ENDBRANCH  12  14
BRANCH   1  20
ATOM     20  O   UNL     1       1.621   9.301  18.953  0.00  0.00    +0.000 OA
BRANCH  20  21
ATOM     21  C   UNL     1       1.953  10.174  17.866  0.00  0.00    +0.000 C 
BRANCH  21  23
ATOM     22  O   UNL     1       1.573  11.950  19.461  0.00  0.00    +0.000 OA
ATOM     23  C   UNL     1       1.982  11.611  18.361  0.00  0.00    +0.000 C 
BRANCH  23  24
ATOM     24  O   UNL     1       2.487  12.487  17.462  0.00  0.00    +0.000 OA
ATOM     25  H   UNL     1       1.786  13.093  17.135  0.00  0.00    +0.000 HD
ENDBRANCH  23  24
ENDBRANCH  21  23
ENDBRANCH  20  21
ENDBRANCH   1  20
TORSDOF 5
ENDMDL
MODEL 5
REMARK VINA RESULT:      -6.6      8.761     10.868
REMARK  Name = 
REMARK  5 active torsions:
REMARK  status: ('A' for Active; 'I' for Inactive)
REMARK    1  A    between atoms: C_2  and  O_3
REMARK    2  A    between atoms: C_2  and  C_4
REMARK    3  A    between atoms: C_4  and  O_5
REMARK    4  A    between atoms: O_5  and  C_6
REMARK    5  A    between atoms: C_17  and  C_18
REMARK                            x       y       z     vdW  Elec       q    Type
REMARK                         _______ _______ _______ _____ _____    ______ ____
ROOT
ATOM      1  C   UNL     1      -1.495  10.621  18.236  0.00  0.00    +0.000 A 
ATOM      2  C   UNL     1      -2.533  11.405  18.750  0.00  0.00    +0.000 A 
ATOM      3  C   UNL     1      -2.335  12.059  19.953  0.00  0.00    +0.000 A 
ATOM      4  C   UNL     1      -1.110  11.961  20.604  0.00  0.00    +0.000 A 
ATOM      5  C   UNL     1      -0.043  11.237  20.112  0.00  0.00    +0.000 A 
ATOM      6 CL   UNL     1       1.448  11.157  20.974  0.00  0.00    +0.000 Cl
ATOM      7  C   UNL     1      -0.241  10.561  18.897  0.00  0.00    +0.000 A 
ATOM      8 CL   UNL     1       1.027   9.608  18.186  0.00  0.00    +0.000 Cl
ATOM      9  S   UNL     1      -1.190  12.830  22.112  0.00  0.00    +0.000 S 
ATOM     10  O   UNL     1      -0.319  13.980  22.017  0.00  0.00    +0.000 OA
ATOM     11  O   UNL     1      -1.119  11.849  23.174  0.00  0.00    +0.000 OA
ATOM     12  C   UNL     1      -2.859  13.328  21.852  0.00  0.00    +0.000 C 
ATOM     13  C   UNL     1      -3.311  12.867  20.670  0.00  0.00    +0.000 C 
ENDROOT
BRANCH  12  14
ATOM     14  C   UNL     1      -3.541  14.230  22.854  0.00  0.00    +0.000 C 
ATOM     15  C   UNL     1      -5.027  14.512  22.542  0.00  0.00    +0.000 C 
ATOM     16  C   UNL     1      -5.937  13.305  22.794  0.00  0.00    +0.000 C 
ATOM     17  C   UNL     1      -5.762  12.725  24.193  0.00  0.00    +0.000 C 
ATOM     18  C   UNL     1      -4.301  12.492  24.564  0.00  0.00    +0.000 C 
ATOM     19  C   UNL     1      -3.444  13.730  24.308  0.00  0.00    +0.000 C 
ENDBRANCH  12  14
BRANCH   1  20
ATOM     20  O   UNL     1      -1.632   9.897  17.074  0.00  0.00    +0.000 OA
BRANCH  20  21
ATOM     21  C   UNL     1      -2.968   9.818  16.560  0.00  0.00    +0.000 C 
BRANCH  21  23
ATOM     22  O   UNL     1      -2.678  10.008  14.167  0.00  0.00    +0.000 OA
ATOM     23  C   UNL     1      -3.034  10.524  15.215  0.00  0.00    +0.000 C 
BRANCH  23  24
ATOM     24  O   UNL     1      -3.508  11.789  15.288  0.00  0.00    +0.000 OA
ATOM     25  H   UNL     1      -3.656  12.158  14.389  0.00  0.00    +0.000 HD
ENDBRANCH  23  24
ENDBRANCH  21  23
ENDBRANCH  20  21
ENDBRANCH   1  20
TORSDOF 5
ENDMDL
MODEL 6
REMARK VINA RESULT:      -6.6      0.807      1.041
REMARK  Name = 
REMARK  5 active torsions:
REMARK  status: ('A' for Active; 'I' for Inactive)
REMARK    1  A    between atoms: C_2  and  O_3
REMARK    2  A    between atoms: C_2  and  C_4
REMARK    3  A    between atoms: C_4  and  O_5
REMARK    4  A    between atoms: O_5  and  C_6
REMARK    5  A    between atoms: C_17  and  C_18
REMARK                            x       y       z     vdW  Elec       q    Type
REMARK                         _______ _______ _______ _____ _____    ______ ____
ROOT
ATOM      1  C   UNL     1       5.734   3.946  15.186  0.00  0.00    +0.000 A 
ATOM      2  C   UNL     1       4.530   3.493  15.735  0.00  0.00    +0.000 A 
ATOM      3  C   UNL     1       3.983   4.190  16.798  0.00  0.00    +0.000 A 
ATOM      4  C   UNL     1       4.609   5.338  17.272  0.00  0.00    +0.000 A 
ATOM      5  C   UNL     1       5.773   5.848  16.733  0.00  0.00    +0.000 A 
ATOM      6 CL   UNL     1       6.496   7.275  17.374  0.00  0.00    +0.000 Cl
ATOM      7  C   UNL     1       6.340   5.139  15.662  0.00  0.00    +0.000 A 
ATOM      8 CL   UNL     1       7.811   5.679  14.910  0.00  0.00    +0.000 Cl
ATOM      9  S   UNL     1       3.726   5.947  18.646  0.00  0.00    +0.000 S 
ATOM     10  O   UNL     1       3.125   7.207  18.272  0.00  0.00    +0.000 OA
ATOM     11  O   UNL     1       4.570   5.769  19.809  0.00  0.00    +0.000 OA
ATOM     12  C   UNL     1       2.520   4.667  18.565  0.00  0.00    +0.000 C 
ATOM     13  C   UNL     1       2.776   3.841  17.533  0.00  0.00    +0.000 C 
ENDROOT
BRANCH  12  14
ATOM     14  C   UNL     1       1.353   4.670  19.524  0.00  0.00    +0.000 C 
ATOM     15  C   UNL     1       0.549   3.351  19.546  0.00  0.00    +0.000 C 
ATOM     16  C   UNL     1       1.295   2.202  20.232  0.00  0.00    +0.000 C 
ATOM     17  C   UNL     1       1.790   2.576  21.625  0.00  0.00    +0.000 C 
ATOM     18  C   UNL     1       2.534   3.907  21.656  0.00  0.00    +0.000 C 
ATOM     19  C   UNL     1       1.740   5.019  20.973  0.00  0.00    +0.000 C 
ENDBRANCH  12  14
BRANCH   1  20
ATOM     20  O   UNL     1       6.370   3.279  14.165  0.00  0.00    +0.000 OA
BRANCH  20  21
ATOM     21  C   UNL     1       5.828   3.510  12.858  0.00  0.00    +0.000 C 
BRANCH  21  23
ATOM     22  O   UNL     1       7.345   2.468  11.290  0.00  0.00    +0.000 OA
ATOM     23  C   UNL     1       6.951   3.489  11.834  0.00  0.00    +0.000 C 
BRANCH  23  24
ATOM     24  O   UNL     1       7.491   4.706  11.592  0.00  0.00    +0.000 OA
ATOM     25  H   UNL     1       8.041   4.687  10.779  0.00  0.00    +0.000 HD
ENDBRANCH  23  24
ENDBRANCH  21  23
ENDBRANCH  20  21
ENDBRANCH   1  20
TORSDOF 5
ENDMDL
MODEL 7
REMARK VINA RESULT:      -6.3      2.761      4.664
REMARK  Name = 
REMARK  5 active torsions:
REMARK  status: ('A' for Active; 'I' for Inactive)
REMARK    1  A    between atoms: C_2  and  O_3
REMARK    2  A    between atoms: C_2  and  C_4
REMARK    3  A    between atoms: C_4  and  O_5
REMARK    4  A    between atoms: O_5  and  C_6
REMARK    5  A    between atoms: C_17  and  C_18
REMARK                            x       y       z     vdW  Elec       q    Type
REMARK                         _______ _______ _______ _____ _____    ______ ____
ROOT
ATOM      1  C   UNL     1       6.455   6.529  17.008  0.00  0.00    +0.000 A 
ATOM      2  C   UNL     1       5.424   6.580  17.952  0.00  0.00    +0.000 A 
ATOM      3  C   UNL     1       4.471   5.576  17.948  0.00  0.00    +0.000 A 
ATOM      4  C   UNL     1       4.575   4.524  17.045  0.00  0.00    +0.000 A 
ATOM      5  C   UNL     1       5.599   4.407  16.127  0.00  0.00    +0.000 A 
ATOM      6 CL   UNL     1       5.664   3.075  15.035  0.00  0.00    +0.000 Cl
ATOM      7  C   UNL     1       6.562   5.428  16.117  0.00  0.00    +0.000 A 
ATOM      8 CL   UNL     1       7.891   5.395  14.998  0.00  0.00    +0.000 Cl
ATOM      9  S   UNL     1       3.205   3.465  17.239  0.00  0.00    +0.000 S 
ATOM     10  O   UNL     1       3.679   2.207  17.770  0.00  0.00    +0.000 OA
ATOM     11  O   UNL     1       2.402   3.583  16.039  0.00  0.00    +0.000 OA
ATOM     12  C   UNL     1       2.512   4.434  18.535  0.00  0.00    +0.000 C 
ATOM     13  C   UNL     1       3.300   5.490  18.808  0.00  0.00    +0.000 C 
ENDROOT
BRANCH  12  14
ATOM     14  C   UNL     1       1.249   3.975  19.227  0.00  0.00    +0.000 C 
ATOM     15  C   UNL     1       1.107   2.440  19.329  0.00  0.00    +0.000 C 
ATOM     16  C   UNL     1       2.064   1.811  20.347  0.00  0.00    +0.000 C 
ATOM     17  C   UNL     1       1.973   2.471  21.718  0.00  0.00    +0.000 C 
ATOM     18  C   UNL     1       2.045   3.994  21.653  0.00  0.00    +0.000 C 
ATOM     19  C   UNL     1       1.062   4.568  20.635  0.00  0.00    +0.000 C 
ENDBRANCH  12  14
BRANCH   1  20
ATOM     20  O   UNL     1       7.408   7.516  16.911  0.00  0.00    +0.000 OA
BRANCH  20  21
ATOM     21  C   UNL     1       8.177   7.738  18.100  0.00  0.00    +0.000 C 
BRANCH  21  23
ATOM     22  O   UNL     1       7.923  10.078  17.549  0.00  0.00    +0.000 OA
ATOM     23  C   UNL     1       8.410   9.229  18.280  0.00  0.00    +0.000 C 
BRANCH  23  24
ATOM     24  O   UNL     1       9.226   9.532  19.316  0.00  0.00    +0.000 OA
ATOM     25  H   UNL     1       9.977  10.090  19.016  0.00  0.00    +0.000 HD
ENDBRANCH  23  24
ENDBRANCH  21  23
ENDBRANCH  20  21
ENDBRANCH   1  20
TORSDOF 5
ENDMDL
MODEL 8
REMARK VINA RESULT:      -6.3      4.880      8.806
REMARK  Name = 
REMARK  5 active torsions:
REMARK  status: ('A' for Active; 'I' for Inactive)
REMARK    1  A    between atoms: C_2  and  O_3
REMARK    2  A    between atoms: C_2  and  C_4
REMARK    3  A    between atoms: C_4  and  O_5
REMARK    4  A    between atoms: O_5  and  C_6
REMARK    5  A    between atoms: C_17  and  C_18
REMARK                            x       y       z     vdW  Elec       q    Type
REMARK                         _______ _______ _______ _____ _____    ______ ____
ROOT
ATOM      1  C   UNL     1       0.778   9.966  21.756  0.00  0.00    +0.000 A 
ATOM      2  C   UNL     1       1.088   8.608  21.886  0.00  0.00    +0.000 A 
ATOM      3  C   UNL     1       1.555   7.926  20.777  0.00  0.00    +0.000 A 
ATOM      4  C   UNL     1       1.745   8.601  19.576  0.00  0.00    +0.000 A 
ATOM      5  C   UNL     1       1.497   9.948  19.412  0.00  0.00    +0.000 A 
ATOM      6 CL   UNL     1       1.753  10.720  17.892  0.00  0.00    +0.000 Cl
ATOM      7  C   UNL     1       1.011  10.644  20.531  0.00  0.00    +0.000 A 
ATOM      8 CL   UNL     1       0.650  12.342  20.441  0.00  0.00    +0.000 Cl
ATOM      9  S   UNL     1       2.272   7.469  18.360  0.00  0.00    +0.000 S 
ATOM     10  O   UNL     1       3.638   7.786  18.011  0.00  0.00    +0.000 OA
ATOM     11  O   UNL     1       1.199   7.350  17.395  0.00  0.00    +0.000 OA
ATOM     12  C   UNL     1       2.245   6.106  19.473  0.00  0.00    +0.000 C 
ATOM     13  C   UNL     1       1.873   6.507  20.703  0.00  0.00    +0.000 C 
ENDROOT
BRANCH  12  14
ATOM     14  C   UNL     1       2.695   4.741  19.005  0.00  0.00    +0.000 C 
ATOM     15  C   UNL     1       3.442   3.920  20.079  0.00  0.00    +0.000 C 
ATOM     16  C   UNL     1       2.522   3.394  21.185  0.00  0.00    +0.000 C 
ATOM     17  C   UNL     1       1.324   2.630  20.633  0.00  0.00    +0.000 C 
ATOM     18  C   UNL     1       0.596   3.383  19.524  0.00  0.00    +0.000 C 
ATOM     19  C   UNL     1       1.557   3.871  18.442  0.00  0.00    +0.000 C 
ENDBRANCH  12  14
BRANCH   1  20
ATOM     20  O   UNL     1       0.257  10.701  22.796  0.00  0.00    +0.000 OA
BRANCH  20  21
ATOM     21  C   UNL     1      -1.145  10.519  23.028  0.00  0.00    +0.000 C 
BRANCH  21  23
ATOM     22  O   UNL     1      -1.186  12.925  23.251  0.00  0.00    +0.000 OA
ATOM     23  C   UNL     1      -1.807  11.874  23.219  0.00  0.00    +0.000 C 
BRANCH  23  24
ATOM     24  O   UNL     1      -3.150  11.807  23.371  0.00  0.00    +0.000 OA
ATOM     25  H   UNL     1      -3.384  11.562  24.293  0.00  0.00    +0.000 HD
ENDBRANCH  23  24
ENDBRANCH  21  23
ENDBRANCH  20  21
ENDBRANCH   1  20
TORSDOF 5
ENDMDL
MODEL 9
REMARK VINA RESULT:      -6.3      4.600      7.793
REMARK  Name = 
REMARK  5 active torsions:
REMARK  status: ('A' for Active; 'I' for Inactive)
REMARK    1  A    between atoms: C_2  and  O_3
REMARK    2  A    between atoms: C_2  and  C_4
REMARK    3  A    between atoms: C_4  and  O_5
REMARK    4  A    between atoms: O_5  and  C_6
REMARK    5  A    between atoms: C_17  and  C_18
REMARK                            x       y       z     vdW  Elec       q    Type
REMARK                         _______ _______ _______ _____ _____    ______ ____
ROOT
ATOM      1  C   UNL     1       1.421  10.100  18.827  0.00  0.00    +0.000 A 
ATOM      2  C   UNL     1       2.230   9.537  17.834  0.00  0.00    +0.000 A 
ATOM      3  C   UNL     1       2.632   8.220  17.975  0.00  0.00    +0.000 A 
ATOM      4  C   UNL     1       2.197   7.474  19.066  0.00  0.00    +0.000 A 
ATOM      5  C   UNL     1       1.362   7.973  20.044  0.00  0.00    +0.000 A 
ATOM      6 CL   UNL     1       0.865   6.991  21.372  0.00  0.00    +0.000 Cl
ATOM      7  C   UNL     1       0.960   9.312  19.914  0.00  0.00    +0.000 A 
ATOM      8 CL   UNL     1      -0.081  10.053  21.092  0.00  0.00    +0.000 Cl
ATOM      9  S   UNL     1       2.919   5.889  19.001  0.00  0.00    +0.000 S 
ATOM     10  O   UNL     1       1.871   4.928  18.744  0.00  0.00    +0.000 OA
ATOM     11  O   UNL     1       3.846   5.797  20.109  0.00  0.00    +0.000 OA
ATOM     12  C   UNL     1       3.785   6.235  17.507  0.00  0.00    +0.000 C 
ATOM     13  C   UNL     1       3.516   7.484  17.083  0.00  0.00    +0.000 C 
ENDROOT
BRANCH  12  14
ATOM     14  C   UNL     1       4.609   5.154  16.846  0.00  0.00    +0.000 C 
ATOM     15  C   UNL     1       5.708   5.687  15.901  0.00  0.00    +0.000 C 
ATOM     16  C   UNL     1       6.885   6.328  16.643  0.00  0.00    +0.000 C 
ATOM     17  C   UNL     1       7.467   5.413  17.714  0.00  0.00    +0.000 C 
ATOM     18  C   UNL     1       6.404   4.816  18.631  0.00  0.00    +0.000 C 
ATOM     19  C   UNL     1       5.264   4.177  17.840  0.00  0.00    +0.000 C 
ENDBRANCH  12  14
BRANCH   1  20
ATOM     20  O   UNL     1       1.024  11.417  18.788  0.00  0.00    +0.000 OA
BRANCH  20  21
ATOM     21  C   UNL     1       1.902  12.337  19.448  0.00  0.00    +0.000 C 
BRANCH  21  23
ATOM     22  O   UNL     1       2.647  14.536  18.776  0.00  0.00    +0.000 OA
ATOM     23  C   UNL     1       2.369  13.390  18.457  0.00  0.00    +0.000 C 
BRANCH  23  24
ATOM     24  O   UNL     1       2.431  12.947  17.180  0.00  0.00    +0.000 OA
ATOM     25  H   UNL     1       2.312  13.690  16.548  0.00  0.00    +0.000 HD
ENDBRANCH  23  24
ENDBRANCH  21  23
ENDBRANCH  20  21
ENDBRANCH   1  20
TORSDOF 5
ENDMDL
