MODEL 1
REMARK VINA RESULT:      -6.8      0.000      0.000
REMARK  Name = 
REMARK  6 active torsions:
REMARK  status: ('A' for Active; 'I' for Inactive)
REMARK    1  A    between atoms: C_2  and  C_3
REMARK    2  A    between atoms: C_3  and  N_4
REMARK    3  A    between atoms: N_7  and  C_8
REMARK    4  A    between atoms: C_8  and  C_9
REMARK    5  A    between atoms: N_22  and  C_23
REMARK    6  A    between atoms: N_31  and  C_32
REMARK                            x       y       z     vdW  Elec       q    Type
REMARK                         _______ _______ _______ _____ _____    ______ ____
ROOT
ATOM      1  N   UNL     1       0.057  14.587  22.476  0.00  0.00    +0.000 N 
ATOM      2  C   UNL     1       0.725  14.091  21.369  0.00  0.00    +0.000 C 
ATOM      3  O   UNL     1       1.578  14.779  20.788  0.00  0.00    +0.000 OA
ATOM      4  N   UNL     1       0.324  12.898  20.826  0.00  0.00    +0.000 N 
ATOM      5  C   UNL     1       0.091  11.727  21.566  0.00  0.00    +0.000 A 
ATOM      6  C   UNL     1       0.798  10.564  21.218  0.00  0.00    +0.000 A 
ATOM      7  C   UNL     1       0.592   9.375  21.913  0.00  0.00    +0.000 A 
ATOM      8  C   UNL     1      -0.340   9.335  22.946  0.00  0.00    +0.000 A 
ATOM      9  C   UNL     1      -1.053  10.489  23.289  0.00  0.00    +0.000 A 
ATOM     10  C   UNL     1      -0.846  11.696  22.600  0.00  0.00    +0.000 A 
ATOM     11  N   UNL     1      -1.550  12.877  22.938  0.00  0.00    +0.000 N 
ATOM     12  C   UNL     1      -0.834  13.987  23.372  0.00  0.00    +0.000 C 
ATOM     13  O   UNL     1      -1.076  14.525  24.461  0.00  0.00    +0.000 OA
ENDROOT
BRANCH  11  14
ATOM     14  C   UNL     1      -2.998  12.921  22.921  0.00  0.00    +0.000 A 
ATOM     15  C   UNL     1      -3.679  12.759  21.695  0.00  0.00    +0.000 A 
ATOM     16  C   UNL     1      -5.074  12.721  21.610  0.00  0.00    +0.000 A 
ATOM     17  C   UNL     1      -5.839  12.849  22.757  0.00  0.00    +0.000 A 
ATOM     18  C   UNL     1      -5.204  12.983  23.988  0.00  0.00    +0.000 A 
ATOM     19  C   UNL     1      -3.801  12.996  24.072  0.00  0.00    +0.000 A 
ENDBRANCH  11  14
BRANCH   1  20
ATOM     20  C   UNL     1      -0.035  16.042  22.487  0.00  0.00    +0.000 C 
BRANCH  20  22
ATOM     21  O   UNL     1      -2.087  17.114  23.035  0.00  0.00    +0.000 OA
ATOM     22  C   UNL     1      -1.376  16.662  22.136  0.00  0.00    +0.000 C 
ATOM     23  N   UNL     1      -1.778  16.468  20.822  0.00  0.00    +0.000 N 
ATOM     24  H   UNL     1      -1.198  15.847  20.259  0.00  0.00    +0.000 HD
BRANCH  23  25
ATOM     25  C   UNL     1      -3.036  16.841  20.296  0.00  0.00    +0.000 A 
ATOM     26  C   UNL     1      -3.194  17.871  19.363  0.00  0.00    +0.000 A 
ATOM     27  C   UNL     1      -4.461  18.241  18.909  0.00  0.00    +0.000 A 
ATOM     28  C   UNL     1      -5.588  17.576  19.379  0.00  0.00    +0.000 A 
ATOM     29  C   UNL     1      -5.445  16.527  20.285  0.00  0.00    +0.000 A 
ATOM     30  C   UNL     1      -4.172  16.154  20.735  0.00  0.00    +0.000 A 
ENDBRANCH  23  25
ENDBRANCH  20  22
ENDBRANCH   1  20
BRANCH   4  31
ATOM     31  C   UNL     1       0.106  12.894  19.384  0.00  0.00    +0.000 C 
BRANCH  31  32
ATOM     32  C   UNL     1      -1.420  12.800  19.101  0.00  0.00    +0.000 C 
ATOM     33  O   UNL     1      -2.200  13.716  19.350  0.00  0.00    +0.000 OA
ATOM     34  N   UNL     1      -1.867  11.637  18.511  0.00  0.00    +0.000 N 
ATOM     35  C   UNL     1      -1.093  10.460  18.178  0.00  0.00    +0.000 C 
ATOM     36  C   UNL     1      -1.856   9.858  17.013  0.00  0.00    +0.000 C 
ATOM     37  C   UNL     1      -3.313  10.166  17.340  0.00  0.00    +0.000 C 
ATOM     38  C   UNL     1      -3.262  11.467  18.137  0.00  0.00    +0.000 C 
ENDBRANCH  31  32
ENDBRANCH   4  31
TORSDOF 6
ENDMDL
MODEL 2
REMARK VINA RESULT:      -6.8      2.231      6.283
REMARK  Name = 
REMARK  6 active torsions:
REMARK  status: ('A' for Active; 'I' for Inactive)
REMARK    1  A    between atoms: C_2  and  C_3
REMARK    2  A    between atoms: C_3  and  N_4
REMARK    3  A    between atoms: N_7  and  C_8
REMARK    4  A    between atoms: C_8  and  C_9
REMARK    5  A    between atoms: N_22  and  C_23
REMARK    6  A    between atoms: N_31  and  C_32
REMARK                            x       y       z     vdW  Elec       q    Type
REMARK                         _______ _______ _______ _____ _____    ______ ____
ROOT
ATOM      1  N   UNL     1       0.176  12.551  21.647  0.00  0.00    +0.000 N 
ATOM      2  C   UNL     1      -1.065  12.286  22.201  0.00  0.00    +0.000 C 
ATOM      3  O   UNL     1      -1.494  11.123  22.259  0.00  0.00    +0.000 OA
ATOM      4  N   UNL     1      -1.882  13.333  22.541  0.00  0.00    +0.000 N 
ATOM      5  C   UNL     1      -1.471  14.451  23.285  0.00  0.00    +0.000 A 
ATOM      6  C   UNL     1      -2.165  14.760  24.467  0.00  0.00    +0.000 A 
ATOM      7  C   UNL     1      -1.804  15.867  25.232  0.00  0.00    +0.000 A 
ATOM      8  C   UNL     1      -0.761  16.686  24.807  0.00  0.00    +0.000 A 
ATOM      9  C   UNL     1      -0.073  16.386  23.625  0.00  0.00    +0.000 A 
ATOM     10  C   UNL     1      -0.424  15.267  22.852  0.00  0.00    +0.000 A 
ATOM     11  N   UNL     1       0.264  14.941  21.658  0.00  0.00    +0.000 N 
ATOM     12  C   UNL     1       0.934  13.725  21.578  0.00  0.00    +0.000 C 
ATOM     13  O   UNL     1       2.141  13.670  21.306  0.00  0.00    +0.000 OA
ENDROOT
BRANCH  11  14
ATOM     14  C   UNL     1       0.354  15.882  20.560  0.00  0.00    +0.000 A 
ATOM     15  C   UNL     1      -0.703  15.958  19.628  0.00  0.00    +0.000 A 
ATOM     16  C   UNL     1      -0.719  16.887  18.584  0.00  0.00    +0.000 A 
ATOM     17  C   UNL     1       0.334  17.775  18.435  0.00  0.00    +0.000 A 
ATOM     18  C   UNL     1       1.382  17.750  19.350  0.00  0.00    +0.000 A 
ATOM     19  C   UNL     1       1.381  16.829  20.413  0.00  0.00    +0.000 A 
ENDBRANCH  11  14
BRANCH   1  20
ATOM     20  C   UNL     1       0.584  11.563  20.654  0.00  0.00    +0.000 C 
BRANCH  20  22
ATOM     21  O   UNL     1       0.200  12.455  18.483  0.00  0.00    +0.000 OA
ATOM     22  C   UNL     1      -0.114  11.594  19.306  0.00  0.00    +0.000 C 
ATOM     23  N   UNL     1      -1.216  10.757  19.205  0.00  0.00    +0.000 N 
ATOM     24  H   UNL     1      -1.511  10.292  20.064  0.00  0.00    +0.000 HD
BRANCH  23  25
ATOM     25  C   UNL     1      -2.095  10.705  18.100  0.00  0.00    +0.000 A 
ATOM     26  C   UNL     1      -1.849   9.917  16.970  0.00  0.00    +0.000 A 
ATOM     27  C   UNL     1      -2.719   9.936  15.879  0.00  0.00    +0.000 A 
ATOM     28  C   UNL     1      -3.855  10.739  15.909  0.00  0.00    +0.000 A 
ATOM     29  C   UNL     1      -4.129  11.505  17.040  0.00  0.00    +0.000 A 
ATOM     30  C   UNL     1      -3.258  11.481  18.137  0.00  0.00    +0.000 A 
ENDBRANCH  23  25
ENDBRANCH  20  22
ENDBRANCH   1  20
BRANCH   4  31
ATOM     31  C   UNL     1      -3.254  13.256  22.054  0.00  0.00    +0.000 C 
BRANCH  31  32
ATOM     32  C   UNL     1      -4.166  12.709  23.190  0.00  0.00    +0.000 C 
ATOM     33  O   UNL     1      -3.767  11.911  24.036  0.00  0.00    +0.000 OA
ATOM     34  N   UNL     1      -5.455  13.194  23.234  0.00  0.00    +0.000 N 
ATOM     35  C   UNL     1      -6.086  14.111  22.309  0.00  0.00    +0.000 C 
ATOM     36  C   UNL     1      -7.140  14.796  23.160  0.00  0.00    +0.000 C 
ATOM     37  C   UNL     1      -7.598  13.700  24.116  0.00  0.00    +0.000 C 
ATOM     38  C   UNL     1      -6.373  12.807  24.294  0.00  0.00    +0.000 C 
ENDBRANCH  31  32
ENDBRANCH   4  31
TORSDOF 6
ENDMDL
MODEL 3
REMARK VINA RESULT:      -6.8      2.916      7.236
REMARK  Name = 
REMARK  6 active torsions:
REMARK  status: ('A' for Active; 'I' for Inactive)
REMARK    1  A    between atoms: C_2  and  C_3
REMARK    2  A    between atoms: C_3  and  N_4
REMARK    3  A    between atoms: N_7  and  C_8
REMARK    4  A    between atoms: C_8  and  C_9
REMARK    5  A    between atoms: N_22  and  C_23
REMARK    6  A    between atoms: N_31  and  C_32
REMARK                            x       y       z     vdW  Elec       q    Type
REMARK                         _______ _______ _______ _____ _____    ______ ____
ROOT
ATOM      1  N   UNL     1      -0.254  10.915  21.010  0.00  0.00    +0.000 N 
ATOM      2  C   UNL     1      -0.616  11.064  19.682  0.00  0.00    +0.000 C 
ATOM      3  O   UNL     1      -0.048  10.406  18.797  0.00  0.00    +0.000 OA
ATOM      4  N   UNL     1      -1.495  12.057  19.336  0.00  0.00    +0.000 N 
ATOM      5  C   UNL     1      -2.713  12.303  19.992  0.00  0.00    +0.000 A 
ATOM      6  C   UNL     1      -3.895  12.294  19.233  0.00  0.00    +0.000 A 
ATOM      7  C   UNL     1      -5.126  12.546  19.836  0.00  0.00    +0.000 A 
ATOM      8  C   UNL     1      -5.179  12.832  21.197  0.00  0.00    +0.000 A 
ATOM      9  C   UNL     1      -4.002  12.851  21.954  0.00  0.00    +0.000 A 
ATOM     10  C   UNL     1      -2.757  12.589  21.358  0.00  0.00    +0.000 A 
ATOM     11  N   UNL     1      -1.556  12.595  22.107  0.00  0.00    +0.000 N 
ATOM     12  C   UNL     1      -0.808  11.426  22.189  0.00  0.00    +0.000 C 
ATOM     13  O   UNL     1      -0.511  10.925  23.282  0.00  0.00    +0.000 OA
ENDROOT
BRANCH  11  14
ATOM     14  C   UNL     1      -1.141  13.764  22.856  0.00  0.00    +0.000 A 
ATOM     15  C   UNL     1      -0.117  14.586  22.339  0.00  0.00    +0.000 A 
ATOM     16  C   UNL     1       0.290  15.766  22.968  0.00  0.00    +0.000 A 
ATOM     17  C   UNL     1      -0.319  16.164  24.147  0.00  0.00    +0.000 A 
ATOM     18  C   UNL     1      -1.352  15.395  24.674  0.00  0.00    +0.000 A 
ATOM     19  C   UNL     1      -1.773  14.221  24.024  0.00  0.00    +0.000 A 
ENDBRANCH  11  14
BRANCH   1  20
ATOM     20  C   UNL     1       1.128  10.483  21.184  0.00  0.00    +0.000 C 
BRANCH  20  22
ATOM     21  O   UNL     1       1.526   8.484  22.411  0.00  0.00    +0.000 OA
ATOM     22  C   UNL     1       1.386   8.991  21.296  0.00  0.00    +0.000 C 
ATOM     23  N   UNL     1       1.655   8.357  20.092  0.00  0.00    +0.000 N 
ATOM     24  H   UNL     1       1.759   8.960  19.276  0.00  0.00    +0.000 HD
BRANCH  23  25
ATOM     25  C   UNL     1       2.046   7.005  19.957  0.00  0.00    +0.000 A 
ATOM     26  C   UNL     1       1.513   5.978  20.744  0.00  0.00    +0.000 A 
ATOM     27  C   UNL     1       1.966   4.664  20.613  0.00  0.00    +0.000 A 
ATOM     28  C   UNL     1       2.955   4.360  19.683  0.00  0.00    +0.000 A 
ATOM     29  C   UNL     1       3.473   5.367  18.871  0.00  0.00    +0.000 A 
ATOM     30  C   UNL     1       3.013   6.684  19.000  0.00  0.00    +0.000 A 
ENDBRANCH  23  25
ENDBRANCH  20  22
ENDBRANCH   1  20
BRANCH   4  31
ATOM     31  C   UNL     1      -1.089  12.912  18.227  0.00  0.00    +0.000 C 
BRANCH  31  32
ATOM     32  C   UNL     1      -0.427  14.200  18.795  0.00  0.00    +0.000 C 
ATOM     33  O   UNL     1      -1.075  15.106  19.315  0.00  0.00    +0.000 OA
ATOM     34  N   UNL     1       0.948  14.269  18.726  0.00  0.00    +0.000 N 
ATOM     35  C   UNL     1       1.852  13.310  18.130  0.00  0.00    +0.000 C 
ATOM     36  C   UNL     1       3.139  13.510  18.909  0.00  0.00    +0.000 C 
ATOM     37  C   UNL     1       3.152  15.006  19.204  0.00  0.00    +0.000 C 
ATOM     38  C   UNL     1       1.678  15.394  19.290  0.00  0.00    +0.000 C 
ENDBRANCH  31  32
ENDBRANCH   4  31
TORSDOF 6
ENDMDL
MODEL 4
REMARK VINA RESULT:      -6.7      1.027      1.361
REMARK  Name = 
REMARK  6 active torsions:
REMARK  status: ('A' for Active; 'I' for Inactive)
REMARK    1  A    between atoms: C_2  and  C_3
REMARK    2  A    between atoms: C_3  and  N_4
REMARK    3  A    between atoms: N_7  and  C_8
REMARK    4  A    between atoms: C_8  and  C_9
REMARK    5  A    between atoms: N_22  and  C_23
REMARK    6  A    between atoms: N_31  and  C_32
REMARK                            x       y       z     vdW  Elec       q    Type
REMARK                         _______ _______ _______ _____ _____    ______ ____
ROOT
ATOM      1  N   UNL     1       0.138  14.186  21.741  0.00  0.00    +0.000 N 
ATOM      2  C   UNL     1       0.706  13.530  20.663  0.00  0.00    +0.000 C 
ATOM      3  O   UNL     1       1.495  14.122  19.910  0.00  0.00    +0.000 OA
ATOM      4  N   UNL     1       0.269  12.272  20.340  0.00  0.00    +0.000 N 
ATOM      5  C   UNL     1       0.117  11.223  21.263  0.00  0.00    +0.000 A 
ATOM      6  C   UNL     1       0.802  10.019  21.025  0.00  0.00    +0.000 A 
ATOM      7  C   UNL     1       0.673   8.946  21.904  0.00  0.00    +0.000 A 
ATOM      8  C   UNL     1      -0.159   9.062  23.013  0.00  0.00    +0.000 A 
ATOM      9  C   UNL     1      -0.850  10.256  23.248  0.00  0.00    +0.000 A 
ATOM     10  C   UNL     1      -0.720  11.348  22.373  0.00  0.00    +0.000 A 
ATOM     11  N   UNL     1      -1.402  12.567  22.597  0.00  0.00    +0.000 N 
ATOM     12  C   UNL     1      -0.661  13.727  22.795  0.00  0.00    +0.000 C 
ATOM     13  O   UNL     1      -0.807  14.421  23.810  0.00  0.00    +0.000 OA
ENDROOT
BRANCH  11  14
ATOM     14  C   UNL     1      -2.846  12.613  22.708  0.00  0.00    +0.000 A 
ATOM     15  C   UNL     1      -3.440  12.631  23.988  0.00  0.00    +0.000 A 
ATOM     16  C   UNL     1      -4.821  12.744  24.175  0.00  0.00    +0.000 A 
ATOM     17  C   UNL     1      -5.659  12.841  23.077  0.00  0.00    +0.000 A 
ATOM     18  C   UNL     1      -5.110  12.855  21.799  0.00  0.00    +0.000 A 
ATOM     19  C   UNL     1      -3.719  12.765  21.617  0.00  0.00    +0.000 A 
ENDBRANCH  11  14
BRANCH   1  20
ATOM     20  C   UNL     1       0.031  15.627  21.546  0.00  0.00    +0.000 C 
BRANCH  20  22
ATOM     21  O   UNL     1      -1.146  16.590  19.718  0.00  0.00    +0.000 OA
ATOM     22  C   UNL     1      -1.221  16.152  20.867  0.00  0.00    +0.000 C 
ATOM     23  N   UNL     1      -2.321  16.285  21.702  0.00  0.00    +0.000 N 
ATOM     24  H   UNL     1      -2.156  16.124  22.696  0.00  0.00    +0.000 HD
BRANCH  23  25
ATOM     25  C   UNL     1      -3.554  16.866  21.331  0.00  0.00    +0.000 A 
ATOM     26  C   UNL     1      -3.974  18.118  21.794  0.00  0.00    +0.000 A 
ATOM     27  C   UNL     1      -5.224  18.631  21.443  0.00  0.00    +0.000 A 
ATOM     28  C   UNL     1      -6.068  17.898  20.614  0.00  0.00    +0.000 A 
ATOM     29  C   UNL     1      -5.650  16.664  20.121  0.00  0.00    +0.000 A 
ATOM     30  C   UNL     1      -4.394  16.153  20.469  0.00  0.00    +0.000 A 
ENDBRANCH  23  25
ENDBRANCH  20  22
ENDBRANCH   1  20
BRANCH   4  31
ATOM     31  C   UNL     1      -0.080  12.056  18.941  0.00  0.00    +0.000 C 
BRANCH  31  32
ATOM     32  C   UNL     1      -1.609  12.281  18.758  0.00  0.00    +0.000 C 
ATOM     33  O   UNL     1      -2.203  13.238  19.250  0.00  0.00    +0.000 OA
ATOM     34  N   UNL     1      -2.277  11.365  17.975  0.00  0.00    +0.000 N 
ATOM     35  C   UNL     1      -1.738  10.177  17.347  0.00  0.00    +0.000 C 
ATOM     36  C   UNL     1      -2.639   9.979  16.142  0.00  0.00    +0.000 C 
ATOM     37  C   UNL     1      -4.005  10.446  16.633  0.00  0.00    +0.000 C 
ATOM     38  C   UNL     1      -3.693  11.515  17.678  0.00  0.00    +0.000 C 
ENDBRANCH  31  32
ENDBRANCH   4  31
TORSDOF 6
ENDMDL
MODEL 5
REMARK VINA RESULT:      -6.7      1.872      5.739
REMARK  Name = 
REMARK  6 active torsions:
REMARK  status: ('A' for Active; 'I' for Inactive)
REMARK    1  A    between atoms: C_2  and  C_3
REMARK    2  A    between atoms: C_3  and  N_4
REMARK    3  A    between atoms: N_7  and  C_8
REMARK    4  A    between atoms: C_8  and  C_9
REMARK    5  A    between atoms: N_22  and  C_23
REMARK    6  A    between atoms: N_31  and  C_32
REMARK                            x       y       z     vdW  Elec       q    Type
REMARK                         _______ _______ _______ _____ _____    ______ ____
ROOT
ATOM      1  N   UNL     1      -0.079  12.653  21.874  0.00  0.00    +0.000 N 
ATOM      2  C   UNL     1      -1.128  12.197  22.654  0.00  0.00    +0.000 C 
ATOM      3  O   UNL     1      -1.292  10.983  22.843  0.00  0.00    +0.000 OA
ATOM      4  N   UNL     1      -2.077  13.089  23.084  0.00  0.00    +0.000 N 
ATOM      5  C   UNL     1      -1.790  14.324  23.688  0.00  0.00    +0.000 A 
ATOM      6  C   UNL     1      -2.328  14.589  24.958  0.00  0.00    +0.000 A 
ATOM      7  C   UNL     1      -2.083  15.805  25.592  0.00  0.00    +0.000 A 
ATOM      8  C   UNL     1      -1.318  16.773  24.949  0.00  0.00    +0.000 A 
ATOM      9  C   UNL     1      -0.788  16.517  23.679  0.00  0.00    +0.000 A 
ATOM     10  C   UNL     1      -1.022  15.290  23.035  0.00  0.00    +0.000 A 
ATOM     11  N   UNL     1      -0.488  15.007  21.755  0.00  0.00    +0.000 N 
ATOM     12  C   UNL     1       0.396  13.944  21.614  0.00  0.00    +0.000 C 
ATOM     13  O   UNL     1       1.526  14.103  21.134  0.00  0.00    +0.000 OA
ENDROOT
BRANCH  11  14
ATOM     14  C   UNL     1      -0.778  15.853  20.614  0.00  0.00    +0.000 A 
ATOM     15  C   UNL     1      -1.960  16.624  20.610  0.00  0.00    +0.000 A 
ATOM     16  C   UNL     1      -2.274  17.514  19.578  0.00  0.00    +0.000 A 
ATOM     17  C   UNL     1      -1.408  17.658  18.506  0.00  0.00    +0.000 A 
ATOM     18  C   UNL     1      -0.219  16.935  18.487  0.00  0.00    +0.000 A 
ATOM     19  C   UNL     1       0.102  16.060  19.540  0.00  0.00    +0.000 A 
ENDBRANCH  11  14
BRANCH   1  20
ATOM     20  C   UNL     1       0.355  11.686  20.873  0.00  0.00    +0.000 C 
BRANCH  20  22
ATOM     21  O   UNL     1      -0.090  12.687  18.762  0.00  0.00    +0.000 OA
ATOM     22  C   UNL     1      -0.316  11.736  19.512  0.00  0.00    +0.000 C 
ATOM     23  N   UNL     1      -1.309  10.786  19.321  0.00  0.00    +0.000 N 
ATOM     24  H   UNL     1      -1.564  10.227  20.135  0.00  0.00    +0.000 HD
BRANCH  23  25
ATOM     25  C   UNL     1      -2.155  10.715  18.191  0.00  0.00    +0.000 A 
ATOM     26  C   UNL     1      -1.860   9.932  17.069  0.00  0.00    +0.000 A 
ATOM     27  C   UNL     1      -2.699   9.932  15.953  0.00  0.00    +0.000 A 
ATOM     28  C   UNL     1      -3.851  10.711  15.950  0.00  0.00    +0.000 A 
ATOM     29  C   UNL     1      -4.174  11.472  17.072  0.00  0.00    +0.000 A 
ATOM     30  C   UNL     1      -3.334  11.466  18.193  0.00  0.00    +0.000 A 
ENDBRANCH  23  25
ENDBRANCH  20  22
ENDBRANCH   1  20
BRANCH   4  31
ATOM     31  C   UNL     1      -3.465  12.704  22.855  0.00  0.00    +0.000 C 
BRANCH  31  32
ATOM     32  C   UNL     1      -3.890  13.163  21.430  0.00  0.00    +0.000 C 
ATOM     33  O   UNL     1      -3.077  13.449  20.555  0.00  0.00    +0.000 OA
ATOM     34  N   UNL     1      -5.244  13.199  21.173  0.00  0.00    +0.000 N 
ATOM     35  C   UNL     1      -6.327  12.919  22.091  0.00  0.00    +0.000 C 
ATOM     36  C   UNL     1      -7.443  12.441  21.181  0.00  0.00    +0.000 C 
ATOM     37  C   UNL     1      -7.254  13.269  19.915  0.00  0.00    +0.000 C 
ATOM     38  C   UNL     1      -5.753  13.544  19.855  0.00  0.00    +0.000 C 
ENDBRANCH  31  32
ENDBRANCH   4  31
TORSDOF 6
ENDMDL
MODEL 6
REMARK VINA RESULT:      -6.7      8.310     10.700
REMARK  Name = 
REMARK  6 active torsions:
REMARK  status: ('A' for Active; 'I' for Inactive)
REMARK    1  A    between atoms: C_2  and  C_3
REMARK    2  A    between atoms: C_3  and  N_4
REMARK    3  A    between atoms: N_7  and  C_8
REMARK    4  A    between atoms: C_8  and  C_9
REMARK    5  A    between atoms: N_22  and  C_23
REMARK    6  A    between atoms: N_31  and  C_32
REMARK                            x       y       z     vdW  Elec       q    Type
REMARK                         _______ _______ _______ _____ _____    ______ ____
ROOT
ATOM      1  N   UNL     1       7.703  15.911  19.841  0.00  0.00    +0.000 N 
ATOM      2  C   UNL     1       8.817  16.127  19.048  0.00  0.00    +0.000 C 
ATOM      3  O   UNL     1       8.690  16.409  17.847  0.00  0.00    +0.000 OA
ATOM      4  N   UNL     1      10.062  15.871  19.562  0.00  0.00    +0.000 N 
ATOM      5  C   UNL     1      10.512  16.322  20.813  0.00  0.00    +0.000 A 
ATOM      6  C   UNL     1      11.688  17.091  20.864  0.00  0.00    +0.000 A 
ATOM      7  C   UNL     1      12.182  17.550  22.083  0.00  0.00    +0.000 A 
ATOM      8  C   UNL     1      11.517  17.223  23.261  0.00  0.00    +0.000 A 
ATOM      9  C   UNL     1      10.351  16.450  23.216  0.00  0.00    +0.000 A 
ATOM     10  C   UNL     1       9.840  15.990  21.990  0.00  0.00    +0.000 A 
ATOM     11  N   UNL     1       8.657  15.215  21.921  0.00  0.00    +0.000 N 
ATOM     12  C   UNL     1       7.565  15.713  21.220  0.00  0.00    +0.000 C 
ATOM     13  O   UNL     1       6.457  15.842  21.757  0.00  0.00    +0.000 OA
ENDROOT
BRANCH  11  14
ATOM     14  C   UNL     1       8.537  13.959  22.635  0.00  0.00    +0.000 A 
ATOM     15  C   UNL     1       8.367  13.975  24.036  0.00  0.00    +0.000 A 
ATOM     16  C   UNL     1       8.176  12.809  24.783  0.00  0.00    +0.000 A 
ATOM     17  C   UNL     1       8.151  11.579  24.147  0.00  0.00    +0.000 A 
ATOM     18  C   UNL     1       8.287  11.524  22.763  0.00  0.00    +0.000 A 
ATOM     19  C   UNL     1       8.456  12.702  22.014  0.00  0.00    +0.000 A 
ENDBRANCH  11  14
BRANCH   1  20
ATOM     20  C   UNL     1       6.546  15.438  19.091  0.00  0.00    +0.000 C 
BRANCH  20  22
ATOM     21  O   UNL     1       5.670  17.646  18.978  0.00  0.00    +0.000 OA
ATOM     22  C   UNL     1       5.470  16.453  18.747  0.00  0.00    +0.000 C 
ATOM     23  N   UNL     1       4.248  15.902  18.389  0.00  0.00    +0.000 N 
ATOM     24  H   UNL     1       4.159  14.892  18.493  0.00  0.00    +0.000 HD
BRANCH  23  25
ATOM     25  C   UNL     1       3.067  16.640  18.148  0.00  0.00    +0.000 A 
ATOM     26  C   UNL     1       2.751  17.181  16.897  0.00  0.00    +0.000 A 
ATOM     27  C   UNL     1       1.598  17.947  16.717  0.00  0.00    +0.000 A 
ATOM     28  C   UNL     1       0.740  18.174  17.789  0.00  0.00    +0.000 A 
ATOM     29  C   UNL     1       1.026  17.615  19.033  0.00  0.00    +0.000 A 
ATOM     30  C   UNL     1       2.180  16.842  19.210  0.00  0.00    +0.000 A 
ENDBRANCH  23  25
ENDBRANCH  20  22
ENDBRANCH   1  20
BRANCH   4  31
ATOM     31  C   UNL     1      10.937  15.048  18.735  0.00  0.00    +0.000 C 
BRANCH  31  32
ATOM     32  C   UNL     1      10.997  13.613  19.333  0.00  0.00    +0.000 C 
ATOM     33  O   UNL     1      11.664  13.335  20.327  0.00  0.00    +0.000 OA
ATOM     34  N   UNL     1      10.227  12.654  18.712  0.00  0.00    +0.000 N 
ATOM     35  C   UNL     1       9.411  12.806  17.526  0.00  0.00    +0.000 C 
ATOM     36  C   UNL     1       8.332  11.754  17.707  0.00  0.00    +0.000 C 
ATOM     37  C   UNL     1       9.057  10.612  18.410  0.00  0.00    +0.000 C 
ATOM     38  C   UNL     1      10.151  11.296  19.227  0.00  0.00    +0.000 C 
ENDBRANCH  31  32
ENDBRANCH   4  31
TORSDOF 6
ENDMDL
MODEL 7
REMARK VINA RESULT:      -6.6      3.118      8.209
REMARK  Name = 
REMARK  6 active torsions:
REMARK  status: ('A' for Active; 'I' for Inactive)
REMARK    1  A    between atoms: C_2  and  C_3
REMARK    2  A    between atoms: C_3  and  N_4
REMARK    3  A    between atoms: N_7  and  C_8
REMARK    4  A    between atoms: C_8  and  C_9
REMARK    5  A    between atoms: N_22  and  C_23
REMARK    6  A    between atoms: N_31  and  C_32
REMARK                            x       y       z     vdW  Elec       q    Type
REMARK                         _______ _______ _______ _____ _____    ______ ____
ROOT
ATOM      1  N   UNL     1      -0.284  10.400  21.153  0.00  0.00    +0.000 N 
ATOM      2  C   UNL     1      -0.614  11.301  22.152  0.00  0.00    +0.000 C 
ATOM      3  O   UNL     1      -0.460  11.002  23.345  0.00  0.00    +0.000 OA
ATOM      4  N   UNL     1      -1.260  12.462  21.816  0.00  0.00    +0.000 N 
ATOM      5  C   UNL     1      -0.862  13.321  20.779  0.00  0.00    +0.000 A 
ATOM      6  C   UNL     1      -0.603  14.667  21.087  0.00  0.00    +0.000 A 
ATOM      7  C   UNL     1      -0.218  15.561  20.090  0.00  0.00    +0.000 A 
ATOM      8  C   UNL     1      -0.113  15.120  18.774  0.00  0.00    +0.000 A 
ATOM      9  C   UNL     1      -0.380  13.782  18.462  0.00  0.00    +0.000 A 
ATOM     10  C   UNL     1      -0.759  12.870  19.462  0.00  0.00    +0.000 A 
ATOM     11  N   UNL     1      -1.024  11.511  19.168  0.00  0.00    +0.000 N 
ATOM     12  C   UNL     1      -0.238  10.529  19.760  0.00  0.00    +0.000 C 
ATOM     13  O   UNL     1       0.372   9.693  19.080  0.00  0.00    +0.000 OA
ENDROOT
BRANCH  11  14
ATOM     14  C   UNL     1      -2.037  11.132  18.203  0.00  0.00    +0.000 A 
ATOM     15  C   UNL     1      -3.359  11.596  18.372  0.00  0.00    +0.000 A 
ATOM     16  C   UNL     1      -4.373  11.330  17.448  0.00  0.00    +0.000 A 
ATOM     17  C   UNL     1      -4.095  10.582  16.316  0.00  0.00    +0.000 A 
ATOM     18  C   UNL     1      -2.796  10.130  16.099  0.00  0.00    +0.000 A 
ATOM     19  C   UNL     1      -1.775  10.420  17.021  0.00  0.00    +0.000 A 
ENDBRANCH  11  14
BRANCH   1  20
ATOM     20  C   UNL     1      -0.369   9.009  21.583  0.00  0.00    +0.000 C 
BRANCH  20  22
ATOM     21  O   UNL     1       1.942   8.574  21.938  0.00  0.00    +0.000 OA
ATOM     22  C   UNL     1       0.884   8.160  21.462  0.00  0.00    +0.000 C 
ATOM     23  N   UNL     1       0.761   7.063  20.622  0.00  0.00    +0.000 N 
ATOM     24  H   UNL     1      -0.107   6.994  20.092  0.00  0.00    +0.000 HD
BRANCH  23  25
ATOM     25  C   UNL     1       1.820   6.201  20.256  0.00  0.00    +0.000 A 
ATOM     26  C   UNL     1       1.987   4.926  20.807  0.00  0.00    +0.000 A 
ATOM     27  C   UNL     1       3.077   4.129  20.453  0.00  0.00    +0.000 A 
ATOM     28  C   UNL     1       4.011   4.597  19.534  0.00  0.00    +0.000 A 
ATOM     29  C   UNL     1       3.841   5.852  18.954  0.00  0.00    +0.000 A 
ATOM     30  C   UNL     1       2.743   6.648  19.306  0.00  0.00    +0.000 A 
ENDBRANCH  23  25
ENDBRANCH  20  22
ENDBRANCH   1  20
BRANCH   4  31
ATOM     31  C   UNL     1      -2.454  12.777  22.594  0.00  0.00    +0.000 C 
BRANCH  31  32
ATOM     32  C   UNL     1      -2.101  13.865  23.648  0.00  0.00    +0.000 C 
ATOM     33  O   UNL     1      -0.965  14.013  24.094  0.00  0.00    +0.000 OA
ATOM     34  N   UNL     1      -3.125  14.698  24.041  0.00  0.00    +0.000 N 
ATOM     35  C   UNL     1      -4.514  14.644  23.635  0.00  0.00    +0.000 C 
ATOM     36  C   UNL     1      -4.976  16.083  23.777  0.00  0.00    +0.000 C 
ATOM     37  C   UNL     1      -4.196  16.593  24.984  0.00  0.00    +0.000 C 
ATOM     38  C   UNL     1      -2.894  15.796  24.967  0.00  0.00    +0.000 C 
ENDBRANCH  31  32
ENDBRANCH   4  31
TORSDOF 6
ENDMDL
MODEL 8
REMARK VINA RESULT:      -6.5      3.110      8.151
REMARK  Name = 
REMARK  6 active torsions:
REMARK  status: ('A' for Active; 'I' for Inactive)
REMARK    1  A    between atoms: C_2  and  C_3
REMARK    2  A    between atoms: C_3  and  N_4
REMARK    3  A    between atoms: N_7  and  C_8
REMARK    4  A    between atoms: C_8  and  C_9
REMARK    5  A    between atoms: N_22  and  C_23
REMARK    6  A    between atoms: N_31  and  C_32
REMARK                            x       y       z     vdW  Elec       q    Type
REMARK                         _______ _______ _______ _____ _____    ______ ____
ROOT
ATOM      1  N   UNL     1      -0.293  10.455  21.137  0.00  0.00    +0.000 N 
ATOM      2  C   UNL     1      -0.613  11.346  22.147  0.00  0.00    +0.000 C 
ATOM      3  O   UNL     1      -0.460  11.031  23.337  0.00  0.00    +0.000 OA
ATOM      4  N   UNL     1      -1.250  12.518  21.827  0.00  0.00    +0.000 N 
ATOM      5  C   UNL     1      -0.845  13.386  20.800  0.00  0.00    +0.000 A 
ATOM      6  C   UNL     1      -0.574  14.726  21.125  0.00  0.00    +0.000 A 
ATOM      7  C   UNL     1      -0.182  15.629  20.138  0.00  0.00    +0.000 A 
ATOM      8  C   UNL     1      -0.084  15.203  18.817  0.00  0.00    +0.000 A 
ATOM      9  C   UNL     1      -0.363  13.871  18.488  0.00  0.00    +0.000 A 
ATOM     10  C   UNL     1      -0.749  12.951  19.477  0.00  0.00    +0.000 A 
ATOM     11  N   UNL     1      -1.027  11.598  19.167  0.00  0.00    +0.000 N 
ATOM     12  C   UNL     1      -0.249  10.601  19.745  0.00  0.00    +0.000 C 
ATOM     13  O   UNL     1       0.352   9.769  19.053  0.00  0.00    +0.000 OA
ENDROOT
BRANCH  11  14
ATOM     14  C   UNL     1      -2.045  11.240  18.200  0.00  0.00    +0.000 A 
ATOM     15  C   UNL     1      -1.706  10.394  17.123  0.00  0.00    +0.000 A 
ATOM     16  C   UNL     1      -2.647   9.950  16.189  0.00  0.00    +0.000 A 
ATOM     17  C   UNL     1      -3.970  10.346  16.303  0.00  0.00    +0.000 A 
ATOM     18  C   UNL     1      -4.349  11.158  17.368  0.00  0.00    +0.000 A 
ATOM     19  C   UNL     1      -3.402  11.582  18.317  0.00  0.00    +0.000 A 
ENDBRANCH  11  14
BRANCH   1  20
ATOM     20  C   UNL     1      -0.390   9.060  21.549  0.00  0.00    +0.000 C 
BRANCH  20  22
ATOM     21  O   UNL     1       1.904   8.615  21.992  0.00  0.00    +0.000 OA
ATOM     22  C   UNL     1       0.867   8.214  21.460  0.00  0.00    +0.000 C 
ATOM     23  N   UNL     1       0.782   7.139  20.588  0.00  0.00    +0.000 N 
ATOM     24  H   UNL     1      -0.063   7.084  20.019  0.00  0.00    +0.000 HD
BRANCH  23  25
ATOM     25  C   UNL     1       1.856   6.287  20.244  0.00  0.00    +0.000 A 
ATOM     26  C   UNL     1       2.850   6.648  19.329  0.00  0.00    +0.000 A 
ATOM     27  C   UNL     1       3.864   5.754  18.981  0.00  0.00    +0.000 A 
ATOM     28  C   UNL     1       3.900   4.487  19.552  0.00  0.00    +0.000 A 
ATOM     29  C   UNL     1       2.933   4.123  20.488  0.00  0.00    +0.000 A 
ATOM     30  C   UNL     1       1.920   5.024  20.841  0.00  0.00    +0.000 A 
ENDBRANCH  23  25
ENDBRANCH  20  22
ENDBRANCH   1  20
BRANCH   4  31
ATOM     31  C   UNL     1      -2.439  12.833  22.611  0.00  0.00    +0.000 C 
BRANCH  31  32
ATOM     32  C   UNL     1      -2.076  13.912  23.671  0.00  0.00    +0.000 C 
ATOM     33  O   UNL     1      -0.940  14.048  24.119  0.00  0.00    +0.000 OA
ATOM     34  N   UNL     1      -3.093  14.753  24.067  0.00  0.00    +0.000 N 
ATOM     35  C   UNL     1      -4.482  14.714  23.660  0.00  0.00    +0.000 C 
ATOM     36  C   UNL     1      -4.931  16.156  23.809  0.00  0.00    +0.000 C 
ATOM     37  C   UNL     1      -4.147  16.654  25.020  0.00  0.00    +0.000 C 
ATOM     38  C   UNL     1      -2.853  15.844  24.999  0.00  0.00    +0.000 C 
ENDBRANCH  31  32
ENDBRANCH   4  31
TORSDOF 6
ENDMDL
MODEL 9
REMARK VINA RESULT:      -6.5      3.050      7.369
REMARK  Name = 
REMARK  6 active torsions:
REMARK  status: ('A' for Active; 'I' for Inactive)
REMARK    1  A    between atoms: C_2  and  C_3
REMARK    2  A    between atoms: C_3  and  N_4
REMARK    3  A    between atoms: N_7  and  C_8
REMARK    4  A    between atoms: C_8  and  C_9
REMARK    5  A    between atoms: N_22  and  C_23
REMARK    6  A    between atoms: N_31  and  C_32
REMARK                            x       y       z     vdW  Elec       q    Type
REMARK                         _______ _______ _______ _____ _____    ______ ____
ROOT
ATOM      1  N   UNL     1      -0.289  10.800  20.994  0.00  0.00    +0.000 N 
ATOM      2  C   UNL     1      -0.668  10.916  19.668  0.00  0.00    +0.000 C 
ATOM      3  O   UNL     1      -0.153  10.196  18.800  0.00  0.00    +0.000 OA
ATOM      4  N   UNL     1      -1.502  11.940  19.299  0.00  0.00    +0.000 N 
ATOM      5  C   UNL     1      -2.692  12.274  19.965  0.00  0.00    +0.000 A 
ATOM      6  C   UNL     1      -3.888  12.298  19.227  0.00  0.00    +0.000 A 
ATOM      7  C   UNL     1      -5.092  12.637  19.840  0.00  0.00    +0.000 A 
ATOM      8  C   UNL     1      -5.104  12.977  21.190  0.00  0.00    +0.000 A 
ATOM      9  C   UNL     1      -3.914  12.964  21.926  0.00  0.00    +0.000 A 
ATOM     10  C   UNL     1      -2.696  12.615  21.319  0.00  0.00    +0.000 A 
ATOM     11  N   UNL     1      -1.482  12.587  22.047  0.00  0.00    +0.000 N 
ATOM     12  C   UNL     1      -0.794  11.384  22.162  0.00  0.00    +0.000 C 
ATOM     13  O   UNL     1      -0.501  10.911  23.269  0.00  0.00    +0.000 OA
ENDROOT
BRANCH  11  14
ATOM     14  C   UNL     1      -0.992  13.761  22.741  0.00  0.00    +0.000 A 
ATOM     15  C   UNL     1       0.045  14.523  22.161  0.00  0.00    +0.000 A 
ATOM     16  C   UNL     1       0.522  15.704  22.736  0.00  0.00    +0.000 A 
ATOM     17  C   UNL     1      -0.027  16.164  23.922  0.00  0.00    +0.000 A 
ATOM     18  C   UNL     1      -1.071  15.456  24.510  0.00  0.00    +0.000 A 
ATOM     19  C   UNL     1      -1.562  14.280  23.915  0.00  0.00    +0.000 A 
ENDBRANCH  11  14
BRANCH   1  20
ATOM     20  C   UNL     1       1.071  10.303  21.161  0.00  0.00    +0.000 C 
BRANCH  20  22
ATOM     21  O   UNL     1       1.175   8.153  22.174  0.00  0.00    +0.000 OA
ATOM     22  C   UNL     1       1.277   8.799  21.129  0.00  0.00    +0.000 C 
ATOM     23  N   UNL     1       1.779   8.308  19.933  0.00  0.00    +0.000 N 
ATOM     24  H   UNL     1       2.059   9.003  19.241  0.00  0.00    +0.000 HD
BRANCH  23  25
ATOM     25  C   UNL     1       2.167   6.968  19.706  0.00  0.00    +0.000 A 
ATOM     26  C   UNL     1       1.803   5.917  20.555  0.00  0.00    +0.000 A 
ATOM     27  C   UNL     1       2.252   4.616  20.321  0.00  0.00    +0.000 A 
ATOM     28  C   UNL     1       3.068   4.350  19.226  0.00  0.00    +0.000 A 
ATOM     29  C   UNL     1       3.414   5.381  18.355  0.00  0.00    +0.000 A 
ATOM     30  C   UNL     1       2.957   6.684  18.588  0.00  0.00    +0.000 A 
ENDBRANCH  23  25
ENDBRANCH  20  22
ENDBRANCH   1  20
BRANCH   4  31
ATOM     31  C   UNL     1      -1.073  12.729  18.149  0.00  0.00    +0.000 C 
BRANCH  31  32
ATOM     32  C   UNL     1       0.302  13.383  18.467  0.00  0.00    +0.000 C 
ATOM     33  O   UNL     1       1.363  12.766  18.399  0.00  0.00    +0.000 OA
ATOM     34  N   UNL     1       0.286  14.720  18.799  0.00  0.00    +0.000 N 
ATOM     35  C   UNL     1      -0.868  15.581  18.949  0.00  0.00    +0.000 C 
ATOM     36  C   UNL     1      -0.320  16.959  18.627  0.00  0.00    +0.000 C 
ATOM     37  C   UNL     1       1.104  16.916  19.170  0.00  0.00    +0.000 C 
ATOM     38  C   UNL     1       1.519  15.452  19.047  0.00  0.00    +0.000 C 
ENDBRANCH  31  32
ENDBRANCH   4  31
TORSDOF 6
ENDMDL
