MODEL 1
REMARK VINA RESULT:      -6.6      0.000      0.000
REMARK  Name = 
REMARK  3 active torsions:
REMARK  status: ('A' for Active; 'I' for Inactive)
REMARK    1  A    between atoms: C_1  and  N_2
REMARK    2  A    between atoms: N_2  and  N_3
REMARK    3  A    between atoms: C_4  and  C_6
REMARK                            x       y       z     vdW  Elec       q    Type
REMARK                         _______ _______ _______ _____ _____    ______ ____
ROOT
ATOM      1  C   UNL     1       6.975   5.315  18.650  0.00  0.00    +0.000 C 
ATOM      2  N   UNL     1       5.999   4.401  18.045  0.00  0.00    +0.000 N 
ATOM      3  C   UNL     1       4.655   4.573  18.404  0.00  0.00    +0.000 C 
ATOM      4  N   UNL     1       4.327   5.526  19.228  0.00  0.00    +0.000 NA
ATOM      5  C   UNL     1       2.990   5.802  19.702  0.00  0.00    +0.000 C 
ATOM      6  C   UNL     1       2.177   4.558  20.006  0.00  0.00    +0.000 C 
ATOM      7  C   UNL     1       1.534   3.974  18.756  0.00  0.00    +0.000 C 
ATOM      8  C   UNL     1       2.433   3.896  17.530  0.00  0.00    +0.000 C 
ATOM      9  N   UNL     1       3.825   3.660  17.827  0.00  0.00    +0.000 N 
ATOM     10  H   UNL     1       4.063   2.710  18.082  0.00  0.00    +0.000 HD
ENDROOT
BRANCH   2  11
ATOM     11  N   UNL     1       6.203   4.067  16.659  0.00  0.00    +0.000 N 
ATOM     12  C   UNL     1       6.169   5.027  15.643  0.00  0.00    +0.000 C 
ATOM     13  O   UNL     1       6.066   6.223  15.861  0.00  0.00    +0.000 OA
ATOM     14  H   UNL     1       6.672   3.179  16.502  0.00  0.00    +0.000 HD
BRANCH  12  15
ATOM     15  C   UNL     1       6.354   4.504  14.268  0.00  0.00    +0.000 A 
ATOM     16  C   UNL     1       5.595   3.580  13.559  0.00  0.00    +0.000 A 
ATOM     17  C   UNL     1       6.088   3.396  12.223  0.00  0.00    +0.000 A 
ATOM     18  C   UNL     1       7.208   4.154  11.976  0.00  0.00    +0.000 A 
ATOM     19  S   UNL     1       7.674   5.069  13.328  0.00  0.00    +0.000 S 
ENDBRANCH  12  15
ENDBRANCH   2  11
TORSDOF 2
ENDMDL
MODEL 2
REMARK VINA RESULT:      -6.5      0.974      1.042
REMARK  Name = 
REMARK  3 active torsions:
REMARK  status: ('A' for Active; 'I' for Inactive)
REMARK    1  A    between atoms: C_1  and  N_2
REMARK    2  A    between atoms: N_2  and  N_3
REMARK    3  A    between atoms: C_4  and  C_6
REMARK                            x       y       z     vdW  Elec       q    Type
REMARK                         _______ _______ _______ _____ _____    ______ ____
ROOT
ATOM      1  C   UNL     1       6.388   5.412  18.827  0.00  0.00    +0.000 C 
ATOM      2  N   UNL     1       5.831   4.184  18.245  0.00  0.00    +0.000 N 
ATOM      3  C   UNL     1       4.542   3.814  18.649  0.00  0.00    +0.000 C 
ATOM      4  N   UNL     1       3.892   4.564  19.491  0.00  0.00    +0.000 NA
ATOM      5  C   UNL     1       2.570   4.293  20.010  0.00  0.00    +0.000 C 
ATOM      6  C   UNL     1       2.324   2.831  20.328  0.00  0.00    +0.000 C 
ATOM      7  C   UNL     1       1.922   2.036  19.094  0.00  0.00    +0.000 C 
ATOM      8  C   UNL     1       2.739   2.313  17.840  0.00  0.00    +0.000 C 
ATOM      9  N   UNL     1       4.120   2.646  18.090  0.00  0.00    +0.000 N 
ATOM     10  H   UNL     1       4.721   1.867  18.329  0.00  0.00    +0.000 HD
ENDROOT
BRANCH   2  11
ATOM     11  N   UNL     1       6.106   3.951  16.851  0.00  0.00    +0.000 N 
ATOM     12  C   UNL     1       5.612   4.783  15.840  0.00  0.00    +0.000 C 
ATOM     13  O   UNL     1       5.003   5.816  16.067  0.00  0.00    +0.000 OA
ATOM     14  H   UNL     1       6.910   3.357  16.670  0.00  0.00    +0.000 HD
BRANCH  12  15
ATOM     15  C   UNL     1       5.952   4.372  14.457  0.00  0.00    +0.000 A 
ATOM     16  C   UNL     1       5.239   3.581  13.565  0.00  0.00    +0.000 A 
ATOM     17  C   UNL     1       5.900   3.478  12.294  0.00  0.00    +0.000 A 
ATOM     18  C   UNL     1       7.093   4.161  12.275  0.00  0.00    +0.000 A 
ATOM     19  S   UNL     1       7.427   4.910  13.763  0.00  0.00    +0.000 S 
ENDBRANCH  12  15
ENDBRANCH   2  11
TORSDOF 2
ENDMDL
MODEL 3
REMARK VINA RESULT:      -6.4      1.014      1.214
REMARK  Name = 
REMARK  3 active torsions:
REMARK  status: ('A' for Active; 'I' for Inactive)
REMARK    1  A    between atoms: C_1  and  N_2
REMARK    2  A    between atoms: N_2  and  N_3
REMARK    3  A    between atoms: C_4  and  C_6
REMARK                            x       y       z     vdW  Elec       q    Type
REMARK                         _______ _______ _______ _____ _____    ______ ____
ROOT
ATOM      1  C   UNL     1       7.436   5.603  18.621  0.00  0.00    +0.000 C 
ATOM      2  N   UNL     1       6.644   4.522  18.020  0.00  0.00    +0.000 N 
ATOM      3  C   UNL     1       5.316   4.391  18.446  0.00  0.00    +0.000 C 
ATOM      4  N   UNL     1       4.838   5.223  19.324  0.00  0.00    +0.000 NA
ATOM      5  C   UNL     1       3.499   5.191  19.869  0.00  0.00    +0.000 C 
ATOM      6  C   UNL     1       2.985   3.793  20.154  0.00  0.00    +0.000 C 
ATOM      7  C   UNL     1       2.415   3.128  18.908  0.00  0.00    +0.000 C 
ATOM      8  C   UNL     1       3.245   3.284  17.642  0.00  0.00    +0.000 C 
ATOM      9  N   UNL     1       4.669   3.341  17.866  0.00  0.00    +0.000 N 
ATOM     10  H   UNL     1       5.115   2.456  18.069  0.00  0.00    +0.000 HD
ENDROOT
BRANCH   2  11
ATOM     11  N   UNL     1       6.842   4.286  16.613  0.00  0.00    +0.000 N 
ATOM     12  C   UNL     1       6.466   5.213  15.637  0.00  0.00    +0.000 C 
ATOM     13  O   UNL     1       6.040   6.326  15.905  0.00  0.00    +0.000 OA
ATOM     14  H   UNL     1       7.533   3.574  16.396  0.00  0.00    +0.000 HD
BRANCH  12  15
ATOM     15  C   UNL     1       6.699   4.791  14.235  0.00  0.00    +0.000 A 
ATOM     16  C   UNL     1       7.676   5.200  13.335  0.00  0.00    +0.000 A 
ATOM     17  C   UNL     1       7.584   4.493  12.088  0.00  0.00    +0.000 A 
ATOM     18  C   UNL     1       6.535   3.605  12.073  0.00  0.00    +0.000 A 
ATOM     19  S   UNL     1       5.660   3.621  13.529  0.00  0.00    +0.000 S 
ENDBRANCH  12  15
ENDBRANCH   2  11
TORSDOF 2
ENDMDL
MODEL 4
REMARK VINA RESULT:      -6.3      1.397      1.594
REMARK  Name = 
REMARK  3 active torsions:
REMARK  status: ('A' for Active; 'I' for Inactive)
REMARK    1  A    between atoms: C_1  and  N_2
REMARK    2  A    between atoms: N_2  and  N_3
REMARK    3  A    between atoms: C_4  and  C_6
REMARK                            x       y       z     vdW  Elec       q    Type
REMARK                         _______ _______ _______ _____ _____    ______ ____
ROOT
ATOM      1  C   UNL     1       5.904   6.013  18.475  0.00  0.00    +0.000 C 
ATOM      2  N   UNL     1       5.496   4.724  17.903  0.00  0.00    +0.000 N 
ATOM      3  C   UNL     1       4.343   4.128  18.429  0.00  0.00    +0.000 C 
ATOM      4  N   UNL     1       3.680   4.732  19.373  0.00  0.00    +0.000 NA
ATOM      5  C   UNL     1       2.493   4.225  20.023  0.00  0.00    +0.000 C 
ATOM      6  C   UNL     1       2.534   2.734  20.298  0.00  0.00    +0.000 C 
ATOM      7  C   UNL     1       2.128   1.915  19.080  0.00  0.00    +0.000 C 
ATOM      8  C   UNL     1       2.733   2.362  17.757  0.00  0.00    +0.000 C 
ATOM      9  N   UNL     1       4.059   2.920  17.868  0.00  0.00    +0.000 N 
ATOM     10  H   UNL     1       4.806   2.249  18.002  0.00  0.00    +0.000 HD
ENDROOT
BRANCH   2  11
ATOM     11  N   UNL     1       5.639   4.580  16.477  0.00  0.00    +0.000 N 
ATOM     12  C   UNL     1       6.888   4.565  15.847  0.00  0.00    +0.000 C 
ATOM     13  O   UNL     1       7.943   4.570  16.461  0.00  0.00    +0.000 OA
ATOM     14  H   UNL     1       4.830   4.185  16.007  0.00  0.00    +0.000 HD
BRANCH  12  15
ATOM     15  C   UNL     1       6.853   4.454  14.369  0.00  0.00    +0.000 A 
ATOM     16  C   UNL     1       7.702   5.005  13.416  0.00  0.00    +0.000 A 
ATOM     17  C   UNL     1       7.348   4.599  12.085  0.00  0.00    +0.000 A 
ATOM     18  C   UNL     1       6.237   3.789  12.070  0.00  0.00    +0.000 A 
ATOM     19  S   UNL     1       5.615   3.524  13.628  0.00  0.00    +0.000 S 
ENDBRANCH  12  15
ENDBRANCH   2  11
TORSDOF 2
ENDMDL
MODEL 5
REMARK VINA RESULT:      -6.3      1.240      1.315
REMARK  Name = 
REMARK  3 active torsions:
REMARK  status: ('A' for Active; 'I' for Inactive)
REMARK    1  A    between atoms: C_1  and  N_2
REMARK    2  A    between atoms: N_2  and  N_3
REMARK    3  A    between atoms: C_4  and  C_6
REMARK                            x       y       z     vdW  Elec       q    Type
REMARK                         _______ _______ _______ _____ _____    ______ ____
ROOT
ATOM      1  C   UNL     1       4.758   6.991  17.424  0.00  0.00    +0.000 C 
ATOM      2  N   UNL     1       4.825   5.526  17.346  0.00  0.00    +0.000 N 
ATOM      3  C   UNL     1       3.878   4.803  18.083  0.00  0.00    +0.000 C 
ATOM      4  N   UNL     1       2.983   5.440  18.779  0.00  0.00    +0.000 NA
ATOM      5  C   UNL     1       1.965   4.826  19.602  0.00  0.00    +0.000 C 
ATOM      6  C   UNL     1       2.449   3.614  20.375  0.00  0.00    +0.000 C 
ATOM      7  C   UNL     1       2.426   2.348  19.529  0.00  0.00    +0.000 C 
ATOM      8  C   UNL     1       2.969   2.494  18.114  0.00  0.00    +0.000 C 
ATOM      9  N   UNL     1       4.038   3.454  17.983  0.00  0.00    +0.000 N 
ATOM     10  H   UNL     1       4.943   3.148  18.317  0.00  0.00    +0.000 HD
ENDROOT
BRANCH   2  11
ATOM     11  N   UNL     1       5.126   4.965  16.055  0.00  0.00    +0.000 N 
ATOM     12  C   UNL     1       6.353   5.172  15.414  0.00  0.00    +0.000 C 
ATOM     13  O   UNL     1       7.288   5.752  15.941  0.00  0.00    +0.000 OA
ATOM     14  H   UNL     1       4.542   4.178  15.787  0.00  0.00    +0.000 HD
BRANCH  12  15
ATOM     15  C   UNL     1       6.479   4.560  14.070  0.00  0.00    +0.000 A 
ATOM     16  C   UNL     1       5.675   3.614  13.445  0.00  0.00    +0.000 A 
ATOM     17  C   UNL     1       6.119   3.334  12.108  0.00  0.00    +0.000 A 
ATOM     18  C   UNL     1       7.248   4.045  11.779  0.00  0.00    +0.000 A 
ATOM     19  S   UNL     1       7.781   5.030  13.056  0.00  0.00    +0.000 S 
ENDBRANCH  12  15
ENDBRANCH   2  11
TORSDOF 2
ENDMDL
MODEL 6
REMARK VINA RESULT:      -6.2      4.307      6.806
REMARK  Name = 
REMARK  3 active torsions:
REMARK  status: ('A' for Active; 'I' for Inactive)
REMARK    1  A    between atoms: C_1  and  N_2
REMARK    2  A    between atoms: N_2  and  N_3
REMARK    3  A    between atoms: C_4  and  C_6
REMARK                            x       y       z     vdW  Elec       q    Type
REMARK                         _______ _______ _______ _____ _____    ______ ____
ROOT
ATOM      1  C   UNL     1       4.493   6.741  17.498  0.00  0.00    +0.000 C 
ATOM      2  N   UNL     1       3.148   6.332  17.917  0.00  0.00    +0.000 N 
ATOM      3  C   UNL     1       2.939   4.966  18.150  0.00  0.00    +0.000 C 
ATOM      4  N   UNL     1       3.928   4.132  18.007  0.00  0.00    +0.000 NA
ATOM      5  C   UNL     1       3.851   2.699  18.189  0.00  0.00    +0.000 C 
ATOM      6  C   UNL     1       2.574   2.080  17.653  0.00  0.00    +0.000 C 
ATOM      7  C   UNL     1       1.423   2.194  18.642  0.00  0.00    +0.000 C 
ATOM      8  C   UNL     1       1.269   3.549  19.318  0.00  0.00    +0.000 C 
ATOM      9  N   UNL     1       1.655   4.671  18.497  0.00  0.00    +0.000 N 
ATOM     10  H   UNL     1       0.992   4.936  17.779  0.00  0.00    +0.000 HD
ENDROOT
BRANCH   2  11
ATOM     11  N   UNL     1       2.470   7.201  18.845  0.00  0.00    +0.000 N 
ATOM     12  C   UNL     1       2.005   8.469  18.481  0.00  0.00    +0.000 C 
ATOM     13  O   UNL     1       2.046   8.889  17.336  0.00  0.00    +0.000 OA
ATOM     14  H   UNL     1       2.082   6.734  19.658  0.00  0.00    +0.000 HD
BRANCH  12  15
ATOM     15  C   UNL     1       1.372   9.250  19.570  0.00  0.00    +0.000 A 
ATOM     16  C   UNL     1       1.124   8.894  20.890  0.00  0.00    +0.000 A 
ATOM     17  C   UNL     1       0.542   9.975  21.635  0.00  0.00    +0.000 A 
ATOM     18  C   UNL     1       0.343  11.091  20.858  0.00  0.00    +0.000 A 
ATOM     19  S   UNL     1       0.835  10.849  19.250  0.00  0.00    +0.000 S 
ENDBRANCH  12  15
ENDBRANCH   2  11
TORSDOF 2
ENDMDL
MODEL 7
REMARK VINA RESULT:      -6.2      4.340      6.899
REMARK  Name = 
REMARK  3 active torsions:
REMARK  status: ('A' for Active; 'I' for Inactive)
REMARK    1  A    between atoms: C_1  and  N_2
REMARK    2  A    between atoms: N_2  and  N_3
REMARK    3  A    between atoms: C_4  and  C_6
REMARK                            x       y       z     vdW  Elec       q    Type
REMARK                         _______ _______ _______ _____ _____    ______ ____
ROOT
ATOM      1  C   UNL     1       4.429   6.877  17.475  0.00  0.00    +0.000 C 
ATOM      2  N   UNL     1       3.096   6.446  17.913  0.00  0.00    +0.000 N 
ATOM      3  C   UNL     1       2.912   5.076  18.145  0.00  0.00    +0.000 C 
ATOM      4  N   UNL     1       3.911   4.258  17.985  0.00  0.00    +0.000 NA
ATOM      5  C   UNL     1       3.859   2.824  18.164  0.00  0.00    +0.000 C 
ATOM      6  C   UNL     1       2.584   2.187  17.645  0.00  0.00    +0.000 C 
ATOM      7  C   UNL     1       1.446   2.280  18.651  0.00  0.00    +0.000 C 
ATOM      8  C   UNL     1       1.281   3.631  19.333  0.00  0.00    +0.000 C 
ATOM      9  N   UNL     1       1.638   4.761  18.510  0.00  0.00    +0.000 N 
ATOM     10  H   UNL     1       0.961   5.017  17.803  0.00  0.00    +0.000 HD
ENDROOT
BRANCH   2  11
ATOM     11  N   UNL     1       2.419   7.302  18.852  0.00  0.00    +0.000 N 
ATOM     12  C   UNL     1       1.901   8.550  18.491  0.00  0.00    +0.000 C 
ATOM     13  O   UNL     1       1.892   8.959  17.341  0.00  0.00    +0.000 OA
ATOM     14  H   UNL     1       2.073   6.831  19.683  0.00  0.00    +0.000 HD
BRANCH  12  15
ATOM     15  C   UNL     1       1.277   9.322  19.592  0.00  0.00    +0.000 A 
ATOM     16  C   UNL     1       0.763  10.614  19.592  0.00  0.00    +0.000 A 
ATOM     17  C   UNL     1       0.189  10.962  20.861  0.00  0.00    +0.000 A 
ATOM     18  C   UNL     1       0.311   9.946  21.779  0.00  0.00    +0.000 A 
ATOM     19  S   UNL     1       1.113   8.594  21.137  0.00  0.00    +0.000 S 
ENDBRANCH  12  15
ENDBRANCH   2  11
TORSDOF 2
ENDMDL
MODEL 8
REMARK VINA RESULT:      -6.1      1.190      1.190
REMARK  Name = 
REMARK  3 active torsions:
REMARK  status: ('A' for Active; 'I' for Inactive)
REMARK    1  A    between atoms: C_1  and  N_2
REMARK    2  A    between atoms: N_2  and  N_3
REMARK    3  A    between atoms: C_4  and  C_6
REMARK                            x       y       z     vdW  Elec       q    Type
REMARK                         _______ _______ _______ _____ _____    ______ ____
ROOT
ATOM      1  C   UNL     1       6.065   7.263  17.544  0.00  0.00    +0.000 C 
ATOM      2  N   UNL     1       5.445   5.955  17.299  0.00  0.00    +0.000 N 
ATOM      3  C   UNL     1       4.210   5.708  17.912  0.00  0.00    +0.000 C 
ATOM      4  N   UNL     1       3.661   6.633  18.645  0.00  0.00    +0.000 NA
ATOM      5  C   UNL     1       2.407   6.508  19.354  0.00  0.00    +0.000 C 
ATOM      6  C   UNL     1       2.198   5.151  19.998  0.00  0.00    +0.000 C 
ATOM      7  C   UNL     1       1.658   4.125  19.011  0.00  0.00    +0.000 C 
ATOM      8  C   UNL     1       2.326   4.114  17.643  0.00  0.00    +0.000 C 
ATOM      9  N   UNL     1       3.727   4.459  17.662  0.00  0.00    +0.000 N 
ATOM     10  H   UNL     1       4.351   3.733  17.991  0.00  0.00    +0.000 HD
ENDROOT
BRANCH   2  11
ATOM     11  N   UNL     1       5.559   5.430  15.963  0.00  0.00    +0.000 N 
ATOM     12  C   UNL     1       6.731   4.831  15.489  0.00  0.00    +0.000 C 
ATOM     13  O   UNL     1       7.701   4.617  16.198  0.00  0.00    +0.000 OA
ATOM     14  H   UNL     1       4.673   5.239  15.504  0.00  0.00    +0.000 HD
BRANCH  12  15
ATOM     15  C   UNL     1       6.692   4.386  14.076  0.00  0.00    +0.000 A 
ATOM     16  C   UNL     1       5.827   3.496  13.448  0.00  0.00    +0.000 A 
ATOM     17  C   UNL     1       6.099   3.389  12.042  0.00  0.00    +0.000 A 
ATOM     18  C   UNL     1       7.165   4.168  11.661  0.00  0.00    +0.000 A 
ATOM     19  S   UNL     1       7.845   5.011  12.969  0.00  0.00    +0.000 S 
ENDBRANCH  12  15
ENDBRANCH   2  11
TORSDOF 2
ENDMDL
MODEL 9
REMARK VINA RESULT:      -6.1      3.134      4.403
REMARK  Name = 
REMARK  3 active torsions:
REMARK  status: ('A' for Active; 'I' for Inactive)
REMARK    1  A    between atoms: C_1  and  N_2
REMARK    2  A    between atoms: N_2  and  N_3
REMARK    3  A    between atoms: C_4  and  C_6
REMARK                            x       y       z     vdW  Elec       q    Type
REMARK                         _______ _______ _______ _____ _____    ______ ____
ROOT
ATOM      1  C   UNL     1       2.254   5.250  20.763  0.00  0.00    +0.000 C 
ATOM      2  N   UNL     1       2.369   6.002  19.507  0.00  0.00    +0.000 N 
ATOM      3  C   UNL     1       1.970   7.344  19.527  0.00  0.00    +0.000 C 
ATOM      4  N   UNL     1       1.538   7.869  20.636  0.00  0.00    +0.000 NA
ATOM      5  C   UNL     1       1.073   9.229  20.796  0.00  0.00    +0.000 C 
ATOM      6  C   UNL     1       0.243   9.735  19.632  0.00  0.00    +0.000 C 
ATOM      7  C   UNL     1       1.111  10.244  18.489  0.00  0.00    +0.000 C 
ATOM      8  C   UNL     1       2.300   9.366  18.125  0.00  0.00    +0.000 C 
ATOM      9  N   UNL     1       2.075   7.953  18.313  0.00  0.00    +0.000 N 
ATOM     10  H   UNL     1       1.506   7.503  17.607  0.00  0.00    +0.000 HD
ENDROOT
BRANCH   2  11
ATOM     11  N   UNL     1       3.540   5.743  18.708  0.00  0.00    +0.000 N 
ATOM     12  C   UNL     1       3.576   4.740  17.734  0.00  0.00    +0.000 C 
ATOM     13  O   UNL     1       2.597   4.084  17.418  0.00  0.00    +0.000 OA
ATOM     14  H   UNL     1       4.207   6.508  18.673  0.00  0.00    +0.000 HD
BRANCH  12  15
ATOM     15  C   UNL     1       4.874   4.579  17.036  0.00  0.00    +0.000 A 
ATOM     16  C   UNL     1       5.135   4.274  15.705  0.00  0.00    +0.000 A 
ATOM     17  C   UNL     1       6.544   4.271  15.424  0.00  0.00    +0.000 A 
ATOM     18  C   UNL     1       7.295   4.541  16.543  0.00  0.00    +0.000 A 
ATOM     19  S   UNL     1       6.331   4.784  17.920  0.00  0.00    +0.000 S 
ENDBRANCH  12  15
ENDBRANCH   2  11
TORSDOF 2
ENDMDL
