MODEL 1
REMARK VINA RESULT:      -9.2      0.000      0.000
REMARK  Name = 
REMARK  8 active torsions:
REMARK  status: ('A' for Active; 'I' for Inactive)
REMARK    1  A    between atoms: C_1  and  O_2
REMARK    2  A    between atoms: O_2  and  C_3
REMARK    3  A    between atoms: C_3  and  C_4
REMARK    4  A    between atoms: N_8  and  S_9
REMARK    5  A    between atoms: S_9  and  C_12
REMARK    6  A    between atoms: N_22  and  C_23
REMARK    7  A    between atoms: C_23  and  C_24
REMARK    8  A    between atoms: N_28  and  C_29
REMARK                            x       y       z     vdW  Elec       q    Type
REMARK                         _______ _______ _______ _____ _____    ______ ____
ROOT
ATOM      1  C   UNL     1       1.570   8.938  19.411  0.00  0.00    +0.000 A 
ATOM      2  C   UNL     1       2.309   9.070  18.208  0.00  0.00    +0.000 A 
ATOM      3  C   UNL     1       3.059   7.995  17.690  0.00  0.00    +0.000 A 
ATOM      4  C   UNL     1       3.036   6.799  18.387  0.00  0.00    +0.000 A 
ATOM      5  C   UNL     1       2.341   6.714  19.592  0.00  0.00    +0.000 A 
ATOM      6  C   UNL     1       1.613   7.751  20.137  0.00  0.00    +0.000 A 
ATOM      7  C   UNL     1       2.450   5.341  20.076  0.00  0.00    +0.000 C 
ATOM      8  O   UNL     1       2.022   4.902  21.118  0.00  0.00    +0.000 OA
ATOM      9  C   UNL     1       3.237   4.584  18.989  0.00  0.00    +0.000 C 
ATOM     10  O   UNL     1       3.484   3.398  18.999  0.00  0.00    +0.000 OA
ATOM     11  N   UNL     1       3.576   5.546  18.047  0.00  0.00    +0.000 N 
ENDROOT
BRANCH   1  12
ATOM     12  S   UNL     1       0.442  10.258  19.862  0.00  0.00    +0.000 S 
ATOM     13  O   UNL     1       1.290  11.299  20.395  0.00  0.00    +0.000 OA
ATOM     14  O   UNL     1      -0.610   9.655  20.662  0.00  0.00    +0.000 OA
BRANCH  12  19
ATOM     15  C   UNL     1      -1.264  11.945  18.435  0.00  0.00    +0.000 C 
ATOM     16  C   UNL     1      -2.619  11.280  18.205  0.00  0.00    +0.000 C 
ATOM     17  C   UNL     1      -2.311  10.206  17.194  0.00  0.00    +0.000 C 
ATOM     18  C   UNL     1      -0.932   9.710  17.584  0.00  0.00    +0.000 C 
ATOM     19  N   UNL     1      -0.281  10.785  18.407  0.00  0.00    +0.000 NA
BRANCH  15  20
ATOM     20  C   UNL     1      -1.335  12.867  19.660  0.00  0.00    +0.000 C 
BRANCH  20  22
ATOM     21  C   UNL     1      -2.728  13.019  21.562  0.00  0.00    +0.000 C 
ATOM     22  O   UNL     1      -2.673  12.980  20.140  0.00  0.00    +0.000 OA
ENDBRANCH  20  22
ENDBRANCH  15  20
ENDBRANCH  12  19
ENDBRANCH   1  12
BRANCH  11  23
ATOM     23  C   UNL     1       4.408   5.246  16.915  0.00  0.00    +0.000 C 
BRANCH  23  24
ATOM     24  C   UNL     1       5.838   5.086  17.271  0.00  0.00    +0.000 A 
ATOM     25  C   UNL     1       6.519   5.171  18.467  0.00  0.00    +0.000 A 
ATOM     26  N   UNL     1       7.794   4.728  18.308  0.00  0.00    +0.000 NA
ATOM     27  N   UNL     1       7.945   4.362  17.045  0.00  0.00    +0.000 NA
ATOM     28  N   UNL     1       6.815   4.684  16.367  0.00  0.00    +0.000 N 
BRANCH  28  29
ATOM     29  C   UNL     1       6.742   4.521  14.959  0.00  0.00    +0.000 A 
ATOM     30  C   UNL     1       7.610   5.252  14.137  0.00  0.00    +0.000 A 
ATOM     31  C   UNL     1       7.605   5.043  12.754  0.00  0.00    +0.000 A 
ATOM     32  C   UNL     1       6.716   4.125  12.182  0.00  0.00    +0.000 A 
ATOM     33  C   UNL     1       5.810   3.447  12.993  0.00  0.00    +0.000 A 
ATOM     34  C   UNL     1       5.817   3.648  14.372  0.00  0.00    +0.000 A 
ENDBRANCH  28  29
ENDBRANCH  23  24
ENDBRANCH  11  23
TORSDOF 7
ENDMDL
MODEL 2
REMARK VINA RESULT:      -9.1      1.551      1.783
REMARK  Name = 
REMARK  8 active torsions:
REMARK  status: ('A' for Active; 'I' for Inactive)
REMARK    1  A    between atoms: C_1  and  O_2
REMARK    2  A    between atoms: O_2  and  C_3
REMARK    3  A    between atoms: C_3  and  C_4
REMARK    4  A    between atoms: N_8  and  S_9
REMARK    5  A    between atoms: S_9  and  C_12
REMARK    6  A    between atoms: N_22  and  C_23
REMARK    7  A    between atoms: C_23  and  C_24
REMARK    8  A    between atoms: N_28  and  C_29
REMARK                            x       y       z     vdW  Elec       q    Type
REMARK                         _______ _______ _______ _____ _____    ______ ____
ROOT
ATOM      1  C   UNL     1       1.619   8.810  19.083  0.00  0.00    +0.000 A 
ATOM      2  C   UNL     1       2.343   8.841  17.864  0.00  0.00    +0.000 A 
ATOM      3  C   UNL     1       3.095   7.729  17.434  0.00  0.00    +0.000 A 
ATOM      4  C   UNL     1       3.091   6.599  18.233  0.00  0.00    +0.000 A 
ATOM      5  C   UNL     1       2.410   6.616  19.450  0.00  0.00    +0.000 A 
ATOM      6  C   UNL     1       1.680   7.692  19.910  0.00  0.00    +0.000 A 
ATOM      7  C   UNL     1       2.536   5.291  20.051  0.00  0.00    +0.000 C 
ATOM      8  O   UNL     1       2.123   4.944  21.133  0.00  0.00    +0.000 OA
ATOM      9  C   UNL     1       3.316   4.448  19.025  0.00  0.00    +0.000 C 
ATOM     10  O   UNL     1       3.573   3.269  19.137  0.00  0.00    +0.000 OA
ATOM     11  N   UNL     1       3.636   5.325  17.998  0.00  0.00    +0.000 N 
ENDROOT
BRANCH   1  12
ATOM     12  S   UNL     1       0.485  10.157  19.430  0.00  0.00    +0.000 S 
ATOM     13  O   UNL     1      -0.135   9.800  20.684  0.00  0.00    +0.000 OA
ATOM     14  O   UNL     1      -0.303  10.360  18.227  0.00  0.00    +0.000 OA
BRANCH  12  19
ATOM     15  C   UNL     1       0.835  12.808  20.231  0.00  0.00    +0.000 C 
ATOM     16  C   UNL     1       0.714  13.756  19.041  0.00  0.00    +0.000 C 
ATOM     17  C   UNL     1       1.973  13.490  18.256  0.00  0.00    +0.000 C 
ATOM     18  C   UNL     1       2.203  11.999  18.413  0.00  0.00    +0.000 C 
ATOM     19  N   UNL     1       1.449  11.552  19.634  0.00  0.00    +0.000 NA
BRANCH  15  20
ATOM     20  C   UNL     1      -0.504  12.732  20.978  0.00  0.00    +0.000 C 
BRANCH  20  22
ATOM     21  C   UNL     1      -1.351  11.981  23.051  0.00  0.00    +0.000 C 
ATOM     22  O   UNL     1      -0.302  12.679  22.389  0.00  0.00    +0.000 OA
ENDBRANCH  20  22
ENDBRANCH  15  20
ENDBRANCH  12  19
ENDBRANCH   1  12
BRANCH  11  23
ATOM     23  C   UNL     1       4.457   4.933  16.887  0.00  0.00    +0.000 C 
BRANCH  23  24
ATOM     24  C   UNL     1       5.899   4.862  17.226  0.00  0.00    +0.000 A 
ATOM     25  C   UNL     1       6.584   4.942  18.420  0.00  0.00    +0.000 A 
ATOM     26  N   UNL     1       7.886   4.602  18.232  0.00  0.00    +0.000 NA
ATOM     27  N   UNL     1       8.051   4.308  16.952  0.00  0.00    +0.000 NA
ATOM     28  N   UNL     1       6.894   4.576  16.298  0.00  0.00    +0.000 N 
BRANCH  28  29
ATOM     29  C   UNL     1       6.819   4.474  14.884  0.00  0.00    +0.000 A 
ATOM     30  C   UNL     1       7.654   5.273  14.092  0.00  0.00    +0.000 A 
ATOM     31  C   UNL     1       7.650   5.127  12.701  0.00  0.00    +0.000 A 
ATOM     32  C   UNL     1       6.792   4.202  12.092  0.00  0.00    +0.000 A 
ATOM     33  C   UNL     1       5.916   3.456  12.875  0.00  0.00    +0.000 A 
ATOM     34  C   UNL     1       5.924   3.595  14.262  0.00  0.00    +0.000 A 
ENDBRANCH  28  29
ENDBRANCH  23  24
ENDBRANCH  11  23
TORSDOF 7
ENDMDL
MODEL 3
REMARK VINA RESULT:      -9.0      1.417      1.630
REMARK  Name = 
REMARK  8 active torsions:
REMARK  status: ('A' for Active; 'I' for Inactive)
REMARK    1  A    between atoms: C_1  and  O_2
REMARK    2  A    between atoms: O_2  and  C_3
REMARK    3  A    between atoms: C_3  and  C_4
REMARK    4  A    between atoms: N_8  and  S_9
REMARK    5  A    between atoms: S_9  and  C_12
REMARK    6  A    between atoms: N_22  and  C_23
REMARK    7  A    between atoms: C_23  and  C_24
REMARK    8  A    between atoms: N_28  and  C_29
REMARK                            x       y       z     vdW  Elec       q    Type
REMARK                         _______ _______ _______ _____ _____    ______ ____
ROOT
ATOM      1  C   UNL     1       1.773   7.441  20.230  0.00  0.00    +0.000 A 
ATOM      2  C   UNL     1       2.627   7.848  19.173  0.00  0.00    +0.000 A 
ATOM      3  C   UNL     1       3.268   6.901  18.348  0.00  0.00    +0.000 A 
ATOM      4  C   UNL     1       3.023   5.561  18.594  0.00  0.00    +0.000 A 
ATOM      5  C   UNL     1       2.219   5.191  19.671  0.00  0.00    +0.000 A 
ATOM      6  C   UNL     1       1.591   6.090  20.508  0.00  0.00    +0.000 A 
ATOM      7  C   UNL     1       2.099   3.737  19.660  0.00  0.00    +0.000 C 
ATOM      8  O   UNL     1       1.525   3.050  20.474  0.00  0.00    +0.000 OA
ATOM      9  C   UNL     1       2.870   3.270  18.412  0.00  0.00    +0.000 C 
ATOM     10  O   UNL     1       2.954   2.124  18.026  0.00  0.00    +0.000 OA
ATOM     11  N   UNL     1       3.418   4.424  17.868  0.00  0.00    +0.000 N 
ENDROOT
BRANCH   1  12
ATOM     12  S   UNL     1       0.796   8.697  21.060  0.00  0.00    +0.000 S 
ATOM     13  O   UNL     1       1.615   9.122  22.171  0.00  0.00    +0.000 OA
ATOM     14  O   UNL     1      -0.525   8.131  21.267  0.00  0.00    +0.000 OA
BRANCH  12  19
ATOM     15  C   UNL     1      -0.239  11.179  20.312  0.00  0.00    +0.000 C 
ATOM     16  C   UNL     1      -1.490  11.010  19.453  0.00  0.00    +0.000 C 
ATOM     17  C   UNL     1      -0.946  10.484  18.150  0.00  0.00    +0.000 C 
ATOM     18  C   UNL     1       0.197   9.575  18.561  0.00  0.00    +0.000 C 
ATOM     19  N   UNL     1       0.619   9.979  19.945  0.00  0.00    +0.000 NA
BRANCH  15  20
ATOM     20  C   UNL     1      -0.637  11.425  21.774  0.00  0.00    +0.000 C 
BRANCH  20  22
ATOM     21  C   UNL     1       0.400  13.492  21.294  0.00  0.00    +0.000 C 
ATOM     22  O   UNL     1       0.044  12.558  22.308  0.00  0.00    +0.000 OA
ENDBRANCH  20  22
ENDBRANCH  15  20
ENDBRANCH  12  19
ENDBRANCH   1  12
BRANCH  11  23
ATOM     23  C   UNL     1       4.299   4.390  16.735  0.00  0.00    +0.000 C 
BRANCH  23  24
ATOM     24  C   UNL     1       5.728   4.529  17.104  0.00  0.00    +0.000 A 
ATOM     25  C   UNL     1       6.371   4.663  18.317  0.00  0.00    +0.000 A 
ATOM     26  N   UNL     1       7.714   4.538  18.146  0.00  0.00    +0.000 NA
ATOM     27  N   UNL     1       7.944   4.329  16.860  0.00  0.00    +0.000 NA
ATOM     28  N   UNL     1       6.771   4.442  16.189  0.00  0.00    +0.000 N 
BRANCH  28  29
ATOM     29  C   UNL     1       6.737   4.391  14.772  0.00  0.00    +0.000 A 
ATOM     30  C   UNL     1       7.627   5.185  14.034  0.00  0.00    +0.000 A 
ATOM     31  C   UNL     1       7.661   5.086  12.639  0.00  0.00    +0.000 A 
ATOM     32  C   UNL     1       6.790   4.216  11.972  0.00  0.00    +0.000 A 
ATOM     33  C   UNL     1       5.862   3.477  12.701  0.00  0.00    +0.000 A 
ATOM     34  C   UNL     1       5.831   3.568  14.092  0.00  0.00    +0.000 A 
ENDBRANCH  28  29
ENDBRANCH  23  24
ENDBRANCH  11  23
TORSDOF 7
ENDMDL
MODEL 4
REMARK VINA RESULT:      -8.8      0.673      1.240
REMARK  Name = 
REMARK  8 active torsions:
REMARK  status: ('A' for Active; 'I' for Inactive)
REMARK    1  A    between atoms: C_1  and  O_2
REMARK    2  A    between atoms: O_2  and  C_3
REMARK    3  A    between atoms: C_3  and  C_4
REMARK    4  A    between atoms: N_8  and  S_9
REMARK    5  A    between atoms: S_9  and  C_12
REMARK    6  A    between atoms: N_22  and  C_23
REMARK    7  A    between atoms: C_23  and  C_24
REMARK    8  A    between atoms: N_28  and  C_29
REMARK                            x       y       z     vdW  Elec       q    Type
REMARK                         _______ _______ _______ _____ _____    ______ ____
ROOT
ATOM      1  C   UNL     1       1.603   8.671  19.567  0.00  0.00    +0.000 A 
ATOM      2  C   UNL     1       2.338   8.871  18.370  0.00  0.00    +0.000 A 
ATOM      3  C   UNL     1       3.093   7.828  17.796  0.00  0.00    +0.000 A 
ATOM      4  C   UNL     1       3.080   6.598  18.430  0.00  0.00    +0.000 A 
ATOM      5  C   UNL     1       2.389   6.446  19.631  0.00  0.00    +0.000 A 
ATOM      6  C   UNL     1       1.655   7.449  20.230  0.00  0.00    +0.000 A 
ATOM      7  C   UNL     1       2.508   5.051  20.043  0.00  0.00    +0.000 C 
ATOM      8  O   UNL     1       2.085   4.557  21.062  0.00  0.00    +0.000 OA
ATOM      9  C   UNL     1       3.297   4.357  18.917  0.00  0.00    +0.000 C 
ATOM     10  O   UNL     1       3.552   3.173  18.865  0.00  0.00    +0.000 OA
ATOM     11  N   UNL     1       3.627   5.368  18.025  0.00  0.00    +0.000 N 
ENDROOT
BRANCH   1  12
ATOM     12  S   UNL     1       0.467   9.960  20.087  0.00  0.00    +0.000 S 
ATOM     13  O   UNL     1       1.274  10.867  20.868  0.00  0.00    +0.000 OA
ATOM     14  O   UNL     1      -0.689   9.292  20.659  0.00  0.00    +0.000 OA
BRANCH  12  19
ATOM     15  C   UNL     1      -0.859  12.026  18.759  0.00  0.00    +0.000 C 
ATOM     16  C   UNL     1      -2.279  11.608  18.383  0.00  0.00    +0.000 C 
ATOM     17  C   UNL     1      -2.065  10.603  17.280  0.00  0.00    +0.000 C 
ATOM     18  C   UNL     1      -0.807   9.860  17.690  0.00  0.00    +0.000 C 
ATOM     19  N   UNL     1      -0.063  10.734  18.660  0.00  0.00    +0.000 NA
BRANCH  15  20
ATOM     20  C   UNL     1      -0.878  12.822  20.070  0.00  0.00    +0.000 C 
BRANCH  20  22
ATOM     21  C   UNL     1       0.354  14.280  18.678  0.00  0.00    +0.000 C 
ATOM     22  O   UNL     1      -0.422  14.158  19.865  0.00  0.00    +0.000 OA
ENDBRANCH  20  22
ENDBRANCH  15  20
ENDBRANCH  12  19
ENDBRANCH   1  12
BRANCH  11  23
ATOM     23  C   UNL     1       4.458   5.132  16.878  0.00  0.00    +0.000 C 
BRANCH  23  24
ATOM     24  C   UNL     1       5.896   5.012  17.216  0.00  0.00    +0.000 A 
ATOM     25  C   UNL     1       6.591   5.134  18.402  0.00  0.00    +0.000 A 
ATOM     26  N   UNL     1       7.874   4.718  18.232  0.00  0.00    +0.000 NA
ATOM     27  N   UNL     1       8.016   4.334  16.973  0.00  0.00    +0.000 NA
ATOM     28  N   UNL     1       6.871   4.618  16.306  0.00  0.00    +0.000 N 
BRANCH  28  29
ATOM     29  C   UNL     1       6.782   4.429  14.902  0.00  0.00    +0.000 A 
ATOM     30  C   UNL     1       5.802   3.571  14.384  0.00  0.00    +0.000 A 
ATOM     31  C   UNL     1       5.650   3.438  13.000  0.00  0.00    +0.000 A 
ATOM     32  C   UNL     1       6.492   4.138  12.127  0.00  0.00    +0.000 A 
ATOM     33  C   UNL     1       7.507   4.939  12.643  0.00  0.00    +0.000 A 
ATOM     34  C   UNL     1       7.656   5.079  14.022  0.00  0.00    +0.000 A 
ENDBRANCH  28  29
ENDBRANCH  23  24
ENDBRANCH  11  23
TORSDOF 7
ENDMDL
MODEL 5
REMARK VINA RESULT:      -8.7      1.352      1.962
REMARK  Name = 
REMARK  8 active torsions:
REMARK  status: ('A' for Active; 'I' for Inactive)
REMARK    1  A    between atoms: C_1  and  O_2
REMARK    2  A    between atoms: O_2  and  C_3
REMARK    3  A    between atoms: C_3  and  C_4
REMARK    4  A    between atoms: N_8  and  S_9
REMARK    5  A    between atoms: S_9  and  C_12
REMARK    6  A    between atoms: N_22  and  C_23
REMARK    7  A    between atoms: C_23  and  C_24
REMARK    8  A    between atoms: N_28  and  C_29
REMARK                            x       y       z     vdW  Elec       q    Type
REMARK                         _______ _______ _______ _____ _____    ______ ____
ROOT
ATOM      1  C   UNL     1       1.747   8.716  19.082  0.00  0.00    +0.000 A 
ATOM      2  C   UNL     1       2.509   8.716  17.886  0.00  0.00    +0.000 A 
ATOM      3  C   UNL     1       3.204   7.565  17.464  0.00  0.00    +0.000 A 
ATOM      4  C   UNL     1       3.104   6.428  18.247  0.00  0.00    +0.000 A 
ATOM      5  C   UNL     1       2.389   6.473  19.443  0.00  0.00    +0.000 A 
ATOM      6  C   UNL     1       1.712   7.587  19.896  0.00  0.00    +0.000 A 
ATOM      7  C   UNL     1       2.414   5.136  20.030  0.00  0.00    +0.000 C 
ATOM      8  O   UNL     1       1.947   4.802  21.094  0.00  0.00    +0.000 OA
ATOM      9  C   UNL     1       3.172   4.258  19.017  0.00  0.00    +0.000 C 
ATOM     10  O   UNL     1       3.351   3.064  19.120  0.00  0.00    +0.000 OA
ATOM     11  N   UNL     1       3.577   5.125  18.012  0.00  0.00    +0.000 N 
ENDROOT
BRANCH   1  12
ATOM     12  S   UNL     1       0.688  10.127  19.413  0.00  0.00    +0.000 S 
ATOM     13  O   UNL     1      -0.104  10.279  18.214  0.00  0.00    +0.000 OA
ATOM     14  O   UNL     1       1.550  11.194  19.890  0.00  0.00    +0.000 OA
BRANCH  12  19
ATOM     15  C   UNL     1      -1.307  10.679  21.285  0.00  0.00    +0.000 C 
ATOM     16  C   UNL     1      -0.698  11.076  22.628  0.00  0.00    +0.000 C 
ATOM     17  C   UNL     1      -0.124   9.782  23.144  0.00  0.00    +0.000 C 
ATOM     18  C   UNL     1       0.395   9.081  21.902  0.00  0.00    +0.000 C 
ATOM     19  N   UNL     1      -0.315   9.676  20.719  0.00  0.00    +0.000 NA
BRANCH  15  20
ATOM     20  C   UNL     1      -1.674  11.937  20.485  0.00  0.00    +0.000 C 
BRANCH  20  22
ATOM     21  C   UNL     1      -0.688  14.056  20.146  0.00  0.00    +0.000 C 
ATOM     22  O   UNL     1      -1.149  13.109  21.104  0.00  0.00    +0.000 OA
ENDBRANCH  20  22
ENDBRANCH  15  20
ENDBRANCH  12  19
ENDBRANCH   1  12
BRANCH  11  23
ATOM     23  C   UNL     1       4.407   4.695  16.921  0.00  0.00    +0.000 C 
BRANCH  23  24
ATOM     24  C   UNL     1       5.852   4.712  17.248  0.00  0.00    +0.000 A 
ATOM     25  C   UNL     1       6.540   4.813  18.439  0.00  0.00    +0.000 A 
ATOM     26  N   UNL     1       7.861   4.562  18.236  0.00  0.00    +0.000 NA
ATOM     27  N   UNL     1       8.033   4.304  16.949  0.00  0.00    +0.000 NA
ATOM     28  N   UNL     1       6.856   4.509  16.308  0.00  0.00    +0.000 N 
BRANCH  28  29
ATOM     29  C   UNL     1       6.776   4.429  14.893  0.00  0.00    +0.000 A 
ATOM     30  C   UNL     1       7.649   5.198  14.111  0.00  0.00    +0.000 A 
ATOM     31  C   UNL     1       7.637   5.070  12.719  0.00  0.00    +0.000 A 
ATOM     32  C   UNL     1       6.737   4.195  12.098  0.00  0.00    +0.000 A 
ATOM     33  C   UNL     1       5.826   3.481  12.872  0.00  0.00    +0.000 A 
ATOM     34  C   UNL     1       5.841   3.601  14.260  0.00  0.00    +0.000 A 
ENDBRANCH  28  29
ENDBRANCH  23  24
ENDBRANCH  11  23
TORSDOF 7
ENDMDL
MODEL 6
REMARK VINA RESULT:      -8.7      1.159      1.701
REMARK  Name = 
REMARK  8 active torsions:
REMARK  status: ('A' for Active; 'I' for Inactive)
REMARK    1  A    between atoms: C_1  and  O_2
REMARK    2  A    between atoms: O_2  and  C_3
REMARK    3  A    between atoms: C_3  and  C_4
REMARK    4  A    between atoms: N_8  and  S_9
REMARK    5  A    between atoms: S_9  and  C_12
REMARK    6  A    between atoms: N_22  and  C_23
REMARK    7  A    between atoms: C_23  and  C_24
REMARK    8  A    between atoms: N_28  and  C_29
REMARK                            x       y       z     vdW  Elec       q    Type
REMARK                         _______ _______ _______ _____ _____    ______ ____
ROOT
ATOM      1  C   UNL     1       1.569   8.418  19.906  0.00  0.00    +0.000 A 
ATOM      2  C   UNL     1       2.280   8.690  18.709  0.00  0.00    +0.000 A 
ATOM      3  C   UNL     1       3.043   7.692  18.070  0.00  0.00    +0.000 A 
ATOM      4  C   UNL     1       3.062   6.431  18.641  0.00  0.00    +0.000 A 
ATOM      5  C   UNL     1       2.393   6.206  19.844  0.00  0.00    +0.000 A 
ATOM      6  C   UNL     1       1.653   7.164  20.505  0.00  0.00    +0.000 A 
ATOM      7  C   UNL     1       2.543   4.794  20.182  0.00  0.00    +0.000 C 
ATOM      8  O   UNL     1       2.146   4.241  21.181  0.00  0.00    +0.000 OA
ATOM      9  C   UNL     1       3.324   4.172  19.009  0.00  0.00    +0.000 C 
ATOM     10  O   UNL     1       3.598   2.997  18.893  0.00  0.00    +0.000 OA
ATOM     11  N   UNL     1       3.622   5.233  18.165  0.00  0.00    +0.000 N 
ENDROOT
BRANCH   1  12
ATOM     12  S   UNL     1       0.421   9.657  20.509  0.00  0.00    +0.000 S 
ATOM     13  O   UNL     1       1.191  10.449  21.439  0.00  0.00    +0.000 OA
ATOM     14  O   UNL     1      -0.776   8.950  20.929  0.00  0.00    +0.000 OA
BRANCH  12  19
ATOM     15  C   UNL     1       0.382  12.075  19.114  0.00  0.00    +0.000 C 
ATOM     16  C   UNL     1      -0.936  12.812  19.340  0.00  0.00    +0.000 C 
ATOM     17  C   UNL     1      -1.933  11.983  18.572  0.00  0.00    +0.000 C 
ATOM     18  C   UNL     1      -1.463  10.554  18.770  0.00  0.00    +0.000 C 
ATOM     19  N   UNL     1      -0.012  10.607  19.157  0.00  0.00    +0.000 NA
BRANCH  15  20
ATOM     20  C   UNL     1       1.454  12.614  20.070  0.00  0.00    +0.000 C 
BRANCH  20  22
ATOM     21  C   UNL     1       2.639  13.253  18.129  0.00  0.00    +0.000 C 
ATOM     22  O   UNL     1       2.237  13.628  19.442  0.00  0.00    +0.000 OA
ENDBRANCH  20  22
ENDBRANCH  15  20
ENDBRANCH  12  19
ENDBRANCH   1  12
BRANCH  11  23
ATOM     23  C   UNL     1       4.437   5.070  16.994  0.00  0.00    +0.000 C 
BRANCH  23  24
ATOM     24  C   UNL     1       5.882   4.948  17.303  0.00  0.00    +0.000 A 
ATOM     25  C   UNL     1       6.596   5.025  18.481  0.00  0.00    +0.000 A 
ATOM     26  N   UNL     1       7.879   4.627  18.272  0.00  0.00    +0.000 NA
ATOM     27  N   UNL     1       8.003   4.300  16.996  0.00  0.00    +0.000 NA
ATOM     28  N   UNL     1       6.844   4.601  16.360  0.00  0.00    +0.000 N 
BRANCH  28  29
ATOM     29  C   UNL     1       6.733   4.472  14.952  0.00  0.00    +0.000 A 
ATOM     30  C   UNL     1       7.583   5.219  14.124  0.00  0.00    +0.000 A 
ATOM     31  C   UNL     1       7.542   5.043  12.738  0.00  0.00    +0.000 A 
ATOM     32  C   UNL     1       6.634   4.142  12.167  0.00  0.00    +0.000 A 
ATOM     33  C   UNL     1       5.745   3.450  12.985  0.00  0.00    +0.000 A 
ATOM     34  C   UNL     1       5.789   3.618  14.368  0.00  0.00    +0.000 A 
ENDBRANCH  28  29
ENDBRANCH  23  24
ENDBRANCH  11  23
TORSDOF 7
ENDMDL
MODEL 7
REMARK VINA RESULT:      -8.5      1.443      1.830
REMARK  Name = 
REMARK  8 active torsions:
REMARK  status: ('A' for Active; 'I' for Inactive)
REMARK    1  A    between atoms: C_1  and  O_2
REMARK    2  A    between atoms: O_2  and  C_3
REMARK    3  A    between atoms: C_3  and  C_4
REMARK    4  A    between atoms: N_8  and  S_9
REMARK    5  A    between atoms: S_9  and  C_12
REMARK    6  A    between atoms: N_22  and  C_23
REMARK    7  A    between atoms: C_23  and  C_24
REMARK    8  A    between atoms: N_28  and  C_29
REMARK                            x       y       z     vdW  Elec       q    Type
REMARK                         _______ _______ _______ _____ _____    ______ ____
ROOT
ATOM      1  C   UNL     1       1.486   8.717  19.523  0.00  0.00    +0.000 A 
ATOM      2  C   UNL     1       2.206   8.897  18.315  0.00  0.00    +0.000 A 
ATOM      3  C   UNL     1       3.006   7.866  17.782  0.00  0.00    +0.000 A 
ATOM      4  C   UNL     1       3.051   6.665  18.468  0.00  0.00    +0.000 A 
ATOM      5  C   UNL     1       2.372   6.535  19.679  0.00  0.00    +0.000 A 
ATOM      6  C   UNL     1       1.596   7.528  20.238  0.00  0.00    +0.000 A 
ATOM      7  C   UNL     1       2.555   5.165  20.149  0.00  0.00    +0.000 C 
ATOM      8  O   UNL     1       2.159   4.697  21.191  0.00  0.00    +0.000 OA
ATOM      9  C   UNL     1       3.370   4.459  19.050  0.00  0.00    +0.000 C 
ATOM     10  O   UNL     1       3.678   3.287  19.048  0.00  0.00    +0.000 OA
ATOM     11  N   UNL     1       3.651   5.445  18.113  0.00  0.00    +0.000 N 
ENDROOT
BRANCH   1  12
ATOM     12  S   UNL     1       0.295   9.974  19.994  0.00  0.00    +0.000 S 
ATOM     13  O   UNL     1      -0.191   9.552  21.287  0.00  0.00    +0.000 OA
ATOM     14  O   UNL     1      -0.604  10.143  18.866  0.00  0.00    +0.000 OA
BRANCH  12  19
ATOM     15  C   UNL     1       0.554  12.605  20.891  0.00  0.00    +0.000 C 
ATOM     16  C   UNL     1       0.210  13.595  19.780  0.00  0.00    +0.000 C 
ATOM     17  C   UNL     1       1.371  13.465  18.828  0.00  0.00    +0.000 C 
ATOM     18  C   UNL     1       1.727  11.990  18.871  0.00  0.00    +0.000 C 
ATOM     19  N   UNL     1       1.174  11.430  20.151  0.00  0.00    +0.000 NA
BRANCH  15  20
ATOM     20  C   UNL     1      -0.666  12.390  21.796  0.00  0.00    +0.000 C 
BRANCH  20  22
ATOM     21  C   UNL     1      -2.977  12.708  21.419  0.00  0.00    +0.000 C 
ATOM     22  O   UNL     1      -1.698  13.329  21.497  0.00  0.00    +0.000 OA
ENDBRANCH  20  22
ENDBRANCH  15  20
ENDBRANCH  12  19
ENDBRANCH   1  12
BRANCH  11  23
ATOM     23  C   UNL     1       4.487   5.197  16.972  0.00  0.00    +0.000 C 
BRANCH  23  24
ATOM     24  C   UNL     1       5.920   5.049  17.322  0.00  0.00    +0.000 A 
ATOM     25  C   UNL     1       6.605   5.143  18.516  0.00  0.00    +0.000 A 
ATOM     26  N   UNL     1       7.884   4.709  18.352  0.00  0.00    +0.000 NA
ATOM     27  N   UNL     1       8.032   4.342  17.089  0.00  0.00    +0.000 NA
ATOM     28  N   UNL     1       6.897   4.653  16.415  0.00  0.00    +0.000 N 
BRANCH  28  29
ATOM     29  C   UNL     1       6.819   4.487  15.008  0.00  0.00    +0.000 A 
ATOM     30  C   UNL     1       5.900   3.573  14.474  0.00  0.00    +0.000 A 
ATOM     31  C   UNL     1       5.755   3.456  13.088  0.00  0.00    +0.000 A 
ATOM     32  C   UNL     1       6.544   4.230  12.228  0.00  0.00    +0.000 A 
ATOM     33  C   UNL     1       7.502   5.090  12.759  0.00  0.00    +0.000 A 
ATOM     34  C   UNL     1       7.644   5.213  14.140  0.00  0.00    +0.000 A 
ENDBRANCH  28  29
ENDBRANCH  23  24
ENDBRANCH  11  23
TORSDOF 7
ENDMDL
MODEL 8
REMARK VINA RESULT:      -8.5      2.732      4.174
REMARK  Name = 
REMARK  8 active torsions:
REMARK  status: ('A' for Active; 'I' for Inactive)
REMARK    1  A    between atoms: C_1  and  O_2
REMARK    2  A    between atoms: O_2  and  C_3
REMARK    3  A    between atoms: C_3  and  C_4
REMARK    4  A    between atoms: N_8  and  S_9
REMARK    5  A    between atoms: S_9  and  C_12
REMARK    6  A    between atoms: N_22  and  C_23
REMARK    7  A    between atoms: C_23  and  C_24
REMARK    8  A    between atoms: N_28  and  C_29
REMARK                            x       y       z     vdW  Elec       q    Type
REMARK                         _______ _______ _______ _____ _____    ______ ____
ROOT
ATOM      1  C   UNL     1       0.259  10.024  21.098  0.00  0.00    +0.000 A 
ATOM      2  C   UNL     1       0.525   8.860  21.863  0.00  0.00    +0.000 A 
ATOM      3  C   UNL     1       1.288   7.798  21.336  0.00  0.00    +0.000 A 
ATOM      4  C   UNL     1       1.784   7.937  20.051  0.00  0.00    +0.000 A 
ATOM      5  C   UNL     1       1.465   9.071  19.306  0.00  0.00    +0.000 A 
ATOM      6  C   UNL     1       0.706  10.120  19.783  0.00  0.00    +0.000 A 
ATOM      7  C   UNL     1       2.154   8.972  18.023  0.00  0.00    +0.000 C 
ATOM      8  O   UNL     1       2.074   9.742  17.094  0.00  0.00    +0.000 OA
ATOM      9  C   UNL     1       2.983   7.676  18.102  0.00  0.00    +0.000 C 
ATOM     10  O   UNL     1       3.741   7.275  17.245  0.00  0.00    +0.000 OA
ATOM     11  N   UNL     1       2.664   7.112  19.329  0.00  0.00    +0.000 N 
ENDROOT
BRANCH   1  12
ATOM     12  S   UNL     1      -0.491  11.428  21.925  0.00  0.00    +0.000 S 
ATOM     13  O   UNL     1      -0.580  11.033  23.311  0.00  0.00    +0.000 OA
ATOM     14  O   UNL     1      -1.676  11.780  21.161  0.00  0.00    +0.000 OA
BRANCH  12  19
ATOM     15  C   UNL     1       0.174  14.131  22.135  0.00  0.00    +0.000 C 
ATOM     16  C   UNL     1       0.018  14.836  20.789  0.00  0.00    +0.000 C 
ATOM     17  C   UNL     1       1.162  14.287  19.976  0.00  0.00    +0.000 C 
ATOM     18  C   UNL     1       1.273  12.839  20.416  0.00  0.00    +0.000 C 
ATOM     19  N   UNL     1       0.609  12.724  21.759  0.00  0.00    +0.000 NA
BRANCH  15  20
ATOM     20  C   UNL     1      -1.083  14.348  22.987  0.00  0.00    +0.000 C 
BRANCH  20  22
ATOM     21  C   UNL     1      -1.899  15.055  25.089  0.00  0.00    +0.000 C 
ATOM     22  O   UNL     1      -0.745  14.823  24.289  0.00  0.00    +0.000 OA
ENDBRANCH  20  22
ENDBRANCH  15  20
ENDBRANCH  12  19
ENDBRANCH   1  12
BRANCH  11  23
ATOM     23  C   UNL     1       3.167   5.829  19.734  0.00  0.00    +0.000 C 
BRANCH  23  24
ATOM     24  C   UNL     1       2.592   4.707  18.955  0.00  0.00    +0.000 A 
ATOM     25  C   UNL     1       1.349   4.107  18.958  0.00  0.00    +0.000 A 
ATOM     26  N   UNL     1       1.243   3.256  17.904  0.00  0.00    +0.000 NA
ATOM     27  N   UNL     1       2.381   3.296  17.230  0.00  0.00    +0.000 NA
ATOM     28  N   UNL     1       3.258   4.071  17.914  0.00  0.00    +0.000 N 
BRANCH  28  29
ATOM     29  C   UNL     1       4.607   4.191  17.488  0.00  0.00    +0.000 A 
ATOM     30  C   UNL     1       4.910   4.078  16.124  0.00  0.00    +0.000 A 
ATOM     31  C   UNL     1       6.221   4.274  15.680  0.00  0.00    +0.000 A 
ATOM     32  C   UNL     1       7.242   4.557  16.597  0.00  0.00    +0.000 A 
ATOM     33  C   UNL     1       6.951   4.605  17.957  0.00  0.00    +0.000 A 
ATOM     34  C   UNL     1       5.644   4.417  18.402  0.00  0.00    +0.000 A 
ENDBRANCH  28  29
ENDBRANCH  23  24
ENDBRANCH  11  23
TORSDOF 7
ENDMDL
MODEL 9
REMARK VINA RESULT:      -8.4      2.461      3.974
REMARK  Name = 
REMARK  8 active torsions:
REMARK  status: ('A' for Active; 'I' for Inactive)
REMARK    1  A    between atoms: C_1  and  O_2
REMARK    2  A    between atoms: O_2  and  C_3
REMARK    3  A    between atoms: C_3  and  C_4
REMARK    4  A    between atoms: N_8  and  S_9
REMARK    5  A    between atoms: S_9  and  C_12
REMARK    6  A    between atoms: N_22  and  C_23
REMARK    7  A    between atoms: C_23  and  C_24
REMARK    8  A    between atoms: N_28  and  C_29
REMARK                            x       y       z     vdW  Elec       q    Type
REMARK                         _______ _______ _______ _____ _____    ______ ____
ROOT
ATOM      1  C   UNL     1       0.336  10.106  21.182  0.00  0.00    +0.000 A 
ATOM      2  C   UNL     1       0.598   8.935  21.938  0.00  0.00    +0.000 A 
ATOM      3  C   UNL     1       1.325   7.859  21.389  0.00  0.00    +0.000 A 
ATOM      4  C   UNL     1       1.789   7.991  20.092  0.00  0.00    +0.000 A 
ATOM      5  C   UNL     1       1.474   9.133  19.357  0.00  0.00    +0.000 A 
ATOM      6  C   UNL     1       0.750  10.196  19.857  0.00  0.00    +0.000 A 
ATOM      7  C   UNL     1       2.127   9.023  18.056  0.00  0.00    +0.000 C 
ATOM      8  O   UNL     1       2.037   9.797  17.131  0.00  0.00    +0.000 OA
ATOM      9  C   UNL     1       2.931   7.710  18.110  0.00  0.00    +0.000 C 
ATOM     10  O   UNL     1       3.657   7.296  17.233  0.00  0.00    +0.000 OA
ATOM     11  N   UNL     1       2.632   7.150  19.345  0.00  0.00    +0.000 N 
ENDROOT
BRANCH   1  12
ATOM     12  S   UNL     1      -0.363  11.524  22.032  0.00  0.00    +0.000 S 
ATOM     13  O   UNL     1       0.535  12.613  21.727  0.00  0.00    +0.000 OA
ATOM     14  O   UNL     1      -0.612  11.109  23.402  0.00  0.00    +0.000 OA
BRANCH  12  19
ATOM     15  C   UNL     1      -1.995  12.766  20.139  0.00  0.00    +0.000 C 
ATOM     16  C   UNL     1      -2.679  13.995  20.733  0.00  0.00    +0.000 C 
ATOM     17  C   UNL     1      -3.686  13.404  21.686  0.00  0.00    +0.000 C 
ATOM     18  C   UNL     1      -2.986  12.189  22.264  0.00  0.00    +0.000 C 
ATOM     19  N   UNL     1      -1.886  11.808  21.314  0.00  0.00    +0.000 NA
BRANCH  15  20
ATOM     20  C   UNL     1      -0.736  13.189  19.369  0.00  0.00    +0.000 C 
BRANCH  20  22
ATOM     21  C   UNL     1      -1.867  11.842  17.791  0.00  0.00    +0.000 C 
ATOM     22  O   UNL     1      -0.794  12.751  18.013  0.00  0.00    +0.000 OA
ENDBRANCH  20  22
ENDBRANCH  15  20
ENDBRANCH  12  19
ENDBRANCH   1  12
BRANCH  11  23
ATOM     23  C   UNL     1       3.120   5.856  19.733  0.00  0.00    +0.000 C 
BRANCH  23  24
ATOM     24  C   UNL     1       2.540   4.752  18.932  0.00  0.00    +0.000 A 
ATOM     25  C   UNL     1       1.289   4.170  18.910  0.00  0.00    +0.000 A 
ATOM     26  N   UNL     1       1.186   3.333  17.843  0.00  0.00    +0.000 NA
ATOM     27  N   UNL     1       2.335   3.365  17.186  0.00  0.00    +0.000 NA
ATOM     28  N   UNL     1       3.212   4.120  17.892  0.00  0.00    +0.000 N 
BRANCH  28  29
ATOM     29  C   UNL     1       4.568   4.226  17.487  0.00  0.00    +0.000 A 
ATOM     30  C   UNL     1       4.892   4.100  16.129  0.00  0.00    +0.000 A 
ATOM     31  C   UNL     1       6.212   4.283  15.705  0.00  0.00    +0.000 A 
ATOM     32  C   UNL     1       7.220   4.565  16.635  0.00  0.00    +0.000 A 
ATOM     33  C   UNL     1       6.908   4.625  17.991  0.00  0.00    +0.000 A 
ATOM     34  C   UNL     1       5.592   4.451  18.416  0.00  0.00    +0.000 A 
ENDBRANCH  28  29
ENDBRANCH  23  24
ENDBRANCH  11  23
TORSDOF 7
ENDMDL
