MODEL 1
REMARK VINA RESULT:      -9.2      0.000      0.000
REMARK  Name = 
REMARK  7 active torsions:
REMARK  status: ('A' for Active; 'I' for Inactive)
REMARK    1  A    between atoms: C_1  and  O_2
REMARK    2  A    between atoms: O_2  and  C_3
REMARK    3  A    between atoms: C_9  and  C_10
REMARK    4  A    between atoms: C_10  and  C_12
REMARK    5  A    between atoms: C_13  and  C_14
REMARK    6  A    between atoms: N_17  and  C_18
REMARK    7  A    between atoms: C_18  and  C_19
REMARK                            x       y       z     vdW  Elec       q    Type
REMARK                         _______ _______ _______ _____ _____    ______ ____
ROOT
ATOM      1  C   UNL     1       7.378   8.337  17.805  0.00  0.00    +0.000 C 
ATOM      2  C   UNL     1       8.625   8.798  18.008  0.00  0.00    +0.000 C 
ENDROOT
BRANCH   2   3
ATOM      3  C   UNL     1       8.882  10.158  18.508  0.00  0.00    +0.000 A 
ATOM      4  C   UNL     1       9.341  10.395  19.804  0.00  0.00    +0.000 A 
ATOM      5  C   UNL     1       9.447  11.697  20.276  0.00  0.00    +0.000 A 
ATOM      6  N   UNL     1       9.136  12.747  19.483  0.00  0.00    +0.000 N 
ATOM      7  C   UNL     1       8.798  12.547  18.188  0.00  0.00    +0.000 A 
ATOM      8  C   UNL     1       8.664  11.256  17.679  0.00  0.00    +0.000 A 
BRANCH   6   9
ATOM      9  C   UNL     1       9.125  14.120  20.053  0.00  0.00    +0.000 C 
BRANCH   9  10
ATOM     10  C   UNL     1      10.060  15.015  19.290  0.00  0.00    +0.000 A 
ATOM     11  C   UNL     1      11.446  14.793  19.315  0.00  0.00    +0.000 A 
ATOM     12  C   UNL     1      12.319  15.686  18.690  0.00  0.00    +0.000 A 
ATOM     13  C   UNL     1      11.819  16.807  18.032  0.00  0.00    +0.000 A 
ATOM     14  C   UNL     1      10.447  17.010  17.974  0.00  0.00    +0.000 A 
ATOM     15  F   UNL     1       9.958  18.080  17.339  0.00  0.00    +0.000 F 
ATOM     16  C   UNL     1       9.566  16.124  18.585  0.00  0.00    +0.000 A 
ENDBRANCH   9  10
ENDBRANCH   6   9
ENDBRANCH   2   3
BRANCH   1  17
ATOM     17  C   UNL     1       7.125   6.957  17.307  0.00  0.00    +0.000 C 
ATOM     18  O   UNL     1       7.733   6.529  16.334  0.00  0.00    +0.000 OA
BRANCH  17  25
ATOM     19  C   UNL     1       3.152   3.606  19.719  0.00  0.00    +0.000 A 
ATOM     20  C   UNL     1       1.867   3.600  19.171  0.00  0.00    +0.000 A 
ATOM     21  C   UNL     1       1.536   4.451  18.114  0.00  0.00    +0.000 A 
ATOM     22  C   UNL     1       2.502   5.294  17.564  0.00  0.00    +0.000 A 
ATOM     23  C   UNL     1       3.801   5.298  18.081  0.00  0.00    +0.000 A 
ATOM     24  C   UNL     1       4.857   6.112  17.488  0.00  0.00    +0.000 A 
ATOM     25  C   UNL     1       6.092   6.142  18.024  0.00  0.00    +0.000 A 
ATOM     26  C   UNL     1       6.393   5.355  19.237  0.00  0.00    +0.000 A 
ATOM     27  O   UNL     1       7.470   5.422  19.826  0.00  0.00    +0.000 OA
ATOM     28  O   UNL     1       5.404   4.501  19.698  0.00  0.00    +0.000 OA
ATOM     29  C   UNL     1       4.103   4.470  19.166  0.00  0.00    +0.000 A 
BRANCH  19  31
ATOM     30  C   UNL     1       2.350   2.616  21.740  0.00  0.00    +0.000 C 
ATOM     31  O   UNL     1       3.335   2.690  20.718  0.00  0.00    +0.000 OA
ENDBRANCH  19  31
ENDBRANCH  17  25
ENDBRANCH   1  17
TORSDOF 6
ENDMDL
MODEL 2
REMARK VINA RESULT:      -9.0      1.010      1.886
REMARK  Name = 
REMARK  7 active torsions:
REMARK  status: ('A' for Active; 'I' for Inactive)
REMARK    1  A    between atoms: C_1  and  O_2
REMARK    2  A    between atoms: O_2  and  C_3
REMARK    3  A    between atoms: C_9  and  C_10
REMARK    4  A    between atoms: C_10  and  C_12
REMARK    5  A    between atoms: C_13  and  C_14
REMARK    6  A    between atoms: N_17  and  C_18
REMARK    7  A    between atoms: C_18  and  C_19
REMARK                            x       y       z     vdW  Elec       q    Type
REMARK                         _______ _______ _______ _____ _____    ______ ____
ROOT
ATOM      1  C   UNL     1       7.542   8.347  17.541  0.00  0.00    +0.000 C 
ATOM      2  C   UNL     1       8.599   8.656  18.312  0.00  0.00    +0.000 C 
ENDROOT
BRANCH   2   3
ATOM      3  C   UNL     1       8.878  10.039  18.733  0.00  0.00    +0.000 A 
ATOM      4  C   UNL     1       8.729  11.121  17.865  0.00  0.00    +0.000 A 
ATOM      5  C   UNL     1       9.125  12.391  18.263  0.00  0.00    +0.000 A 
ATOM      6  N   UNL     1       9.632  12.601  19.499  0.00  0.00    +0.000 N 
ATOM      7  C   UNL     1       9.680  11.589  20.397  0.00  0.00    +0.000 A 
ATOM      8  C   UNL     1       9.307  10.297  20.033  0.00  0.00    +0.000 A 
BRANCH   6   9
ATOM      9  C   UNL     1      10.176  13.938  19.853  0.00  0.00    +0.000 C 
BRANCH   9  10
ATOM     10  C   UNL     1       9.086  14.972  19.834  0.00  0.00    +0.000 A 
ATOM     11  C   UNL     1       7.946  14.826  20.641  0.00  0.00    +0.000 A 
ATOM     12  C   UNL     1       6.888  15.735  20.545  0.00  0.00    +0.000 A 
ATOM     13  C   UNL     1       6.959  16.797  19.647  0.00  0.00    +0.000 A 
ATOM     14  C   UNL     1       8.100  16.964  18.875  0.00  0.00    +0.000 A 
ATOM     15  F   UNL     1       8.179  17.985  18.015  0.00  0.00    +0.000 F 
ATOM     16  C   UNL     1       9.164  16.072  18.966  0.00  0.00    +0.000 A 
ENDBRANCH   9  10
ENDBRANCH   6   9
ENDBRANCH   2   3
BRANCH   1  17
ATOM     17  C   UNL     1       7.259   6.945  17.125  0.00  0.00    +0.000 C 
ATOM     18  O   UNL     1       7.838   6.458  16.161  0.00  0.00    +0.000 OA
BRANCH  17  25
ATOM     19  C   UNL     1       3.274   3.811  19.794  0.00  0.00    +0.000 A 
ATOM     20  C   UNL     1       1.948   3.919  19.366  0.00  0.00    +0.000 A 
ATOM     21  C   UNL     1       1.590   4.829  18.369  0.00  0.00    +0.000 A 
ATOM     22  C   UNL     1       2.565   5.619  17.757  0.00  0.00    +0.000 A 
ATOM     23  C   UNL     1       3.901   5.508  18.152  0.00  0.00    +0.000 A 
ATOM     24  C   UNL     1       4.959   6.264  17.488  0.00  0.00    +0.000 A 
ATOM     25  C   UNL     1       6.235   6.184  17.909  0.00  0.00    +0.000 A 
ATOM     26  C   UNL     1       6.584   5.333  19.066  0.00  0.00    +0.000 A 
ATOM     27  O   UNL     1       7.711   5.300  19.556  0.00  0.00    +0.000 OA
ATOM     28  O   UNL     1       5.577   4.539  19.592  0.00  0.00    +0.000 OA
ATOM     29  C   UNL     1       4.235   4.622  19.181  0.00  0.00    +0.000 A 
BRANCH  19  31
ATOM     30  C   UNL     1       2.432   2.611  21.679  0.00  0.00    +0.000 C 
ATOM     31  O   UNL     1       3.476   2.849  20.744  0.00  0.00    +0.000 OA
ENDBRANCH  19  31
ENDBRANCH  17  25
ENDBRANCH   1  17
TORSDOF 6
ENDMDL
MODEL 3
REMARK VINA RESULT:      -9.0      1.259      1.967
REMARK  Name = 
REMARK  7 active torsions:
REMARK  status: ('A' for Active; 'I' for Inactive)
REMARK    1  A    between atoms: C_1  and  O_2
REMARK    2  A    between atoms: O_2  and  C_3
REMARK    3  A    between atoms: C_9  and  C_10
REMARK    4  A    between atoms: C_10  and  C_12
REMARK    5  A    between atoms: C_13  and  C_14
REMARK    6  A    between atoms: N_17  and  C_18
REMARK    7  A    between atoms: C_18  and  C_19
REMARK                            x       y       z     vdW  Elec       q    Type
REMARK                         _______ _______ _______ _____ _____    ______ ____
ROOT
ATOM      1  C   UNL     1       8.059   8.089  18.187  0.00  0.00    +0.000 C 
ATOM      2  C   UNL     1       8.171   9.311  17.637  0.00  0.00    +0.000 C 
ENDROOT
BRANCH   2   3
ATOM      3  C   UNL     1       8.779  10.439  18.360  0.00  0.00    +0.000 A 
ATOM      4  C   UNL     1       8.876  11.712  17.797  0.00  0.00    +0.000 A 
ATOM      5  C   UNL     1       9.571  12.714  18.462  0.00  0.00    +0.000 A 
ATOM      6  N   UNL     1      10.136  12.481  19.668  0.00  0.00    +0.000 N 
ATOM      7  C   UNL     1       9.958  11.289  20.285  0.00  0.00    +0.000 A 
ATOM      8  C   UNL     1       9.281  10.252  19.646  0.00  0.00    +0.000 A 
BRANCH   6   9
ATOM      9  C   UNL     1      10.989  13.525  20.294  0.00  0.00    +0.000 C 
BRANCH   9  10
ATOM     10  C   UNL     1      10.141  14.623  20.870  0.00  0.00    +0.000 A 
ATOM     11  C   UNL     1       9.776  14.610  22.226  0.00  0.00    +0.000 A 
ATOM     12  C   UNL     1       8.903  15.576  22.735  0.00  0.00    +0.000 A 
ATOM     13  C   UNL     1       8.390  16.564  21.898  0.00  0.00    +0.000 A 
ATOM     14  C   UNL     1       8.778  16.600  20.566  0.00  0.00    +0.000 A 
ATOM     15  F   UNL     1       8.295  17.549  19.756  0.00  0.00    +0.000 F 
ATOM     16  C   UNL     1       9.652  15.650  20.048  0.00  0.00    +0.000 A 
ENDBRANCH   9  10
ENDBRANCH   6   9
ENDBRANCH   2   3
BRANCH   1  17
ATOM     17  C   UNL     1       7.451   6.949  17.447  0.00  0.00    +0.000 C 
ATOM     18  O   UNL     1       7.818   6.684  16.309  0.00  0.00    +0.000 OA
BRANCH  17  25
ATOM     19  C   UNL     1       3.296   3.752  19.759  0.00  0.00    +0.000 A 
ATOM     20  C   UNL     1       2.023   3.803  19.186  0.00  0.00    +0.000 A 
ATOM     21  C   UNL     1       1.748   4.674  18.129  0.00  0.00    +0.000 A 
ATOM     22  C   UNL     1       2.759   5.480  17.604  0.00  0.00    +0.000 A 
ATOM     23  C   UNL     1       4.047   5.426  18.145  0.00  0.00    +0.000 A 
ATOM     24  C   UNL     1       5.147   6.199  17.578  0.00  0.00    +0.000 A 
ATOM     25  C   UNL     1       6.371   6.174  18.138  0.00  0.00    +0.000 A 
ATOM     26  C   UNL     1       6.617   5.367  19.351  0.00  0.00    +0.000 A 
ATOM     27  O   UNL     1       7.684   5.385  19.961  0.00  0.00    +0.000 OA
ATOM     28  O   UNL     1       5.584   4.552  19.787  0.00  0.00    +0.000 OA
ATOM     29  C   UNL     1       4.293   4.579  19.230  0.00  0.00    +0.000 A 
BRANCH  19  31
ATOM     30  C   UNL     1       2.317   2.630  21.626  0.00  0.00    +0.000 C 
ATOM     31  O   UNL     1       3.422   2.822  20.754  0.00  0.00    +0.000 OA
ENDBRANCH  19  31
ENDBRANCH  17  25
ENDBRANCH   1  17
TORSDOF 6
ENDMDL
MODEL 4
REMARK VINA RESULT:      -9.0      0.931      1.079
REMARK  Name = 
REMARK  7 active torsions:
REMARK  status: ('A' for Active; 'I' for Inactive)
REMARK    1  A    between atoms: C_1  and  O_2
REMARK    2  A    between atoms: O_2  and  C_3
REMARK    3  A    between atoms: C_9  and  C_10
REMARK    4  A    between atoms: C_10  and  C_12
REMARK    5  A    between atoms: C_13  and  C_14
REMARK    6  A    between atoms: N_17  and  C_18
REMARK    7  A    between atoms: C_18  and  C_19
REMARK                            x       y       z     vdW  Elec       q    Type
REMARK                         _______ _______ _______ _____ _____    ______ ____
ROOT
ATOM      1  C   UNL     1       8.205   7.775  18.116  0.00  0.00    +0.000 C 
ATOM      2  C   UNL     1       8.104   9.091  17.857  0.00  0.00    +0.000 C 
ENDROOT
BRANCH   2   3
ATOM      3  C   UNL     1       8.911  10.091  18.573  0.00  0.00    +0.000 A 
ATOM      4  C   UNL     1       8.915  10.179  19.965  0.00  0.00    +0.000 A 
ATOM      5  C   UNL     1       9.589  11.218  20.594  0.00  0.00    +0.000 A 
ATOM      6  N   UNL     1      10.270  12.136  19.872  0.00  0.00    +0.000 N 
ATOM      7  C   UNL     1      10.375  12.007  18.529  0.00  0.00    +0.000 A 
ATOM      8  C   UNL     1       9.701  10.988  17.858  0.00  0.00    +0.000 A 
BRANCH   6   9
ATOM      9  C   UNL     1      10.867  13.313  20.557  0.00  0.00    +0.000 C 
BRANCH   9  10
ATOM     10  C   UNL     1      10.562  14.574  19.800  0.00  0.00    +0.000 A 
ATOM     11  C   UNL     1      11.597  15.355  19.261  0.00  0.00    +0.000 A 
ATOM     12  C   UNL     1      11.318  16.579  18.648  0.00  0.00    +0.000 A 
ATOM     13  C   UNL     1      10.004  17.034  18.564  0.00  0.00    +0.000 A 
ATOM     14  C   UNL     1       8.975  16.248  19.064  0.00  0.00    +0.000 A 
ATOM     15  F   UNL     1       7.710  16.674  18.982  0.00  0.00    +0.000 F 
ATOM     16  C   UNL     1       9.239  15.023  19.669  0.00  0.00    +0.000 A 
ENDBRANCH   9  10
ENDBRANCH   6   9
ENDBRANCH   2   3
BRANCH   1  17
ATOM     17  C   UNL     1       7.391   6.767  17.383  0.00  0.00    +0.000 C 
ATOM     18  O   UNL     1       7.620   6.527  16.203  0.00  0.00    +0.000 OA
BRANCH  17  25
ATOM     19  C   UNL     1       3.118   3.934  19.941  0.00  0.00    +0.000 A 
ATOM     20  C   UNL     1       1.842   4.008  19.378  0.00  0.00    +0.000 A 
ATOM     21  C   UNL     1       1.596   4.818  18.267  0.00  0.00    +0.000 A 
ATOM     22  C   UNL     1       2.637   5.538  17.680  0.00  0.00    +0.000 A 
ATOM     23  C   UNL     1       3.928   5.459  18.212  0.00  0.00    +0.000 A 
ATOM     24  C   UNL     1       5.056   6.139  17.585  0.00  0.00    +0.000 A 
ATOM     25  C   UNL     1       6.284   6.092  18.134  0.00  0.00    +0.000 A 
ATOM     26  C   UNL     1       6.506   5.357  19.396  0.00  0.00    +0.000 A 
ATOM     27  O   UNL     1       7.580   5.365  19.994  0.00  0.00    +0.000 OA
ATOM     28  O   UNL     1       5.441   4.624  19.895  0.00  0.00    +0.000 OA
ATOM     29  C   UNL     1       4.147   4.675  19.349  0.00  0.00    +0.000 A 
BRANCH  19  31
ATOM     30  C   UNL     1       2.006   2.540  21.530  0.00  0.00    +0.000 C 
ATOM     31  O   UNL     1       3.213   3.068  20.996  0.00  0.00    +0.000 OA
ENDBRANCH  19  31
ENDBRANCH  17  25
ENDBRANCH   1  17
TORSDOF 6
ENDMDL
MODEL 5
REMARK VINA RESULT:      -9.0      1.337      1.966
REMARK  Name = 
REMARK  7 active torsions:
REMARK  status: ('A' for Active; 'I' for Inactive)
REMARK    1  A    between atoms: C_1  and  O_2
REMARK    2  A    between atoms: O_2  and  C_3
REMARK    3  A    between atoms: C_9  and  C_10
REMARK    4  A    between atoms: C_10  and  C_12
REMARK    5  A    between atoms: C_13  and  C_14
REMARK    6  A    between atoms: N_17  and  C_18
REMARK    7  A    between atoms: C_18  and  C_19
REMARK                            x       y       z     vdW  Elec       q    Type
REMARK                         _______ _______ _______ _____ _____    ______ ____
ROOT
ATOM      1  C   UNL     1       7.992   8.013  18.225  0.00  0.00    +0.000 C 
ATOM      2  C   UNL     1       8.196   9.218  17.665  0.00  0.00    +0.000 C 
ENDROOT
BRANCH   2   3
ATOM      3  C   UNL     1       8.812  10.330  18.407  0.00  0.00    +0.000 A 
ATOM      4  C   UNL     1       9.368  10.153  19.675  0.00  0.00    +0.000 A 
ATOM      5  C   UNL     1       9.822  11.252  20.393  0.00  0.00    +0.000 A 
ATOM      6  N   UNL     1       9.759  12.496  19.867  0.00  0.00    +0.000 N 
ATOM      7  C   UNL     1       9.328  12.678  18.596  0.00  0.00    +0.000 A 
ATOM      8  C   UNL     1       8.849  11.605  17.847  0.00  0.00    +0.000 A 
BRANCH   6   9
ATOM      9  C   UNL     1      10.122  13.668  20.706  0.00  0.00    +0.000 C 
BRANCH   9  10
ATOM     10  C   UNL     1       8.982  14.644  20.770  0.00  0.00    +0.000 A 
ATOM     11  C   UNL     1       7.785  14.308  21.422  0.00  0.00    +0.000 A 
ATOM     12  C   UNL     1       6.692  15.177  21.391  0.00  0.00    +0.000 A 
ATOM     13  C   UNL     1       6.782  16.390  20.712  0.00  0.00    +0.000 A 
ATOM     14  C   UNL     1       7.976  16.741  20.097  0.00  0.00    +0.000 A 
ATOM     15  F   UNL     1       8.074  17.906  19.448  0.00  0.00    +0.000 F 
ATOM     16  C   UNL     1       9.075  15.888  20.127  0.00  0.00    +0.000 A 
ENDBRANCH   9  10
ENDBRANCH   6   9
ENDBRANCH   2   3
BRANCH   1  17
ATOM     17  C   UNL     1       7.376   6.890  17.466  0.00  0.00    +0.000 C 
ATOM     18  O   UNL     1       7.740   6.644  16.322  0.00  0.00    +0.000 OA
BRANCH  17  25
ATOM     19  C   UNL     1       3.219   3.664  19.733  0.00  0.00    +0.000 A 
ATOM     20  C   UNL     1       1.953   3.704  19.144  0.00  0.00    +0.000 A 
ATOM     21  C   UNL     1       1.684   4.569  18.081  0.00  0.00    +0.000 A 
ATOM     22  C   UNL     1       2.695   5.383  17.567  0.00  0.00    +0.000 A 
ATOM     23  C   UNL     1       3.976   5.341  18.125  0.00  0.00    +0.000 A 
ATOM     24  C   UNL     1       5.077   6.121  17.570  0.00  0.00    +0.000 A 
ATOM     25  C   UNL     1       6.294   6.108  18.145  0.00  0.00    +0.000 A 
ATOM     26  C   UNL     1       6.531   5.305  19.363  0.00  0.00    +0.000 A 
ATOM     27  O   UNL     1       7.590   5.334  19.986  0.00  0.00    +0.000 OA
ATOM     28  O   UNL     1       5.499   4.484  19.788  0.00  0.00    +0.000 OA
ATOM     29  C   UNL     1       4.216   4.498  19.215  0.00  0.00    +0.000 A 
BRANCH  19  31
ATOM     30  C   UNL     1       2.333   2.709  21.735  0.00  0.00    +0.000 C 
ATOM     31  O   UNL     1       3.340   2.738  20.732  0.00  0.00    +0.000 OA
ENDBRANCH  19  31
ENDBRANCH  17  25
ENDBRANCH   1  17
TORSDOF 6
ENDMDL
MODEL 6
REMARK VINA RESULT:      -8.9      1.537      2.263
REMARK  Name = 
REMARK  7 active torsions:
REMARK  status: ('A' for Active; 'I' for Inactive)
REMARK    1  A    between atoms: C_1  and  O_2
REMARK    2  A    between atoms: O_2  and  C_3
REMARK    3  A    between atoms: C_9  and  C_10
REMARK    4  A    between atoms: C_10  and  C_12
REMARK    5  A    between atoms: C_13  and  C_14
REMARK    6  A    between atoms: N_17  and  C_18
REMARK    7  A    between atoms: C_18  and  C_19
REMARK                            x       y       z     vdW  Elec       q    Type
REMARK                         _______ _______ _______ _____ _____    ______ ____
ROOT
ATOM      1  C   UNL     1       7.393   8.162  17.606  0.00  0.00    +0.000 C 
ATOM      2  C   UNL     1       8.503   8.564  18.249  0.00  0.00    +0.000 C 
ENDROOT
BRANCH   2   3
ATOM      3  C   UNL     1       8.731   9.974  18.606  0.00  0.00    +0.000 A 
ATOM      4  C   UNL     1       8.488  11.012  17.706  0.00  0.00    +0.000 A 
ATOM      5  C   UNL     1       8.837  12.315  18.039  0.00  0.00    +0.000 A 
ATOM      6  N   UNL     1       9.387  12.597  19.242  0.00  0.00    +0.000 N 
ATOM      7  C   UNL     1       9.527  11.625  20.173  0.00  0.00    +0.000 A 
ATOM      8  C   UNL     1       9.204  10.302  19.874  0.00  0.00    +0.000 A 
BRANCH   6   9
ATOM      9  C   UNL     1       9.878  13.972  19.520  0.00  0.00    +0.000 C 
BRANCH   9  10
ATOM     10  C   UNL     1       8.733  14.945  19.547  0.00  0.00    +0.000 A 
ATOM     11  C   UNL     1       8.581  15.901  18.529  0.00  0.00    +0.000 A 
ATOM     12  C   UNL     1       7.577  16.869  18.610  0.00  0.00    +0.000 A 
ATOM     13  C   UNL     1       6.715  16.892  19.704  0.00  0.00    +0.000 A 
ATOM     14  C   UNL     1       6.841  15.927  20.693  0.00  0.00    +0.000 A 
ATOM     15  F   UNL     1       6.014  15.938  21.744  0.00  0.00    +0.000 F 
ATOM     16  C   UNL     1       7.831  14.952  20.621  0.00  0.00    +0.000 A 
ENDBRANCH   9  10
ENDBRANCH   6   9
ENDBRANCH   2   3
BRANCH   1  17
ATOM     17  C   UNL     1       7.164   6.733  17.255  0.00  0.00    +0.000 C 
ATOM     18  O   UNL     1       7.808   6.207  16.355  0.00  0.00    +0.000 OA
BRANCH  17  25
ATOM     19  C   UNL     1       3.132   3.629  19.887  0.00  0.00    +0.000 A 
ATOM     20  C   UNL     1       1.869   3.544  19.296  0.00  0.00    +0.000 A 
ATOM     21  C   UNL     1       1.571   4.263  18.137  0.00  0.00    +0.000 A 
ATOM     22  C   UNL     1       2.550   5.051  17.530  0.00  0.00    +0.000 A 
ATOM     23  C   UNL     1       3.828   5.131  18.090  0.00  0.00    +0.000 A 
ATOM     24  C   UNL     1       4.898   5.886  17.447  0.00  0.00    +0.000 A 
ATOM     25  C   UNL     1       6.112   5.993  18.021  0.00  0.00    +0.000 A 
ATOM     26  C   UNL     1       6.374   5.352  19.327  0.00  0.00    +0.000 A 
ATOM     27  O   UNL     1       7.427   5.500  19.944  0.00  0.00    +0.000 OA
ATOM     28  O   UNL     1       5.375   4.545  19.846  0.00  0.00    +0.000 OA
ATOM     29  C   UNL     1       4.096   4.436  19.274  0.00  0.00    +0.000 A 
BRANCH  19  31
ATOM     30  C   UNL     1       2.177   2.698  21.868  0.00  0.00    +0.000 C 
ATOM     31  O   UNL     1       3.286   2.835  20.989  0.00  0.00    +0.000 OA
ENDBRANCH  19  31
ENDBRANCH  17  25
ENDBRANCH   1  17
TORSDOF 6
ENDMDL
MODEL 7
REMARK VINA RESULT:      -8.9      2.211      3.029
REMARK  Name = 
REMARK  7 active torsions:
REMARK  status: ('A' for Active; 'I' for Inactive)
REMARK    1  A    between atoms: C_1  and  O_2
REMARK    2  A    between atoms: O_2  and  C_3
REMARK    3  A    between atoms: C_9  and  C_10
REMARK    4  A    between atoms: C_10  and  C_12
REMARK    5  A    between atoms: C_13  and  C_14
REMARK    6  A    between atoms: N_17  and  C_18
REMARK    7  A    between atoms: C_18  and  C_19
REMARK                            x       y       z     vdW  Elec       q    Type
REMARK                         _______ _______ _______ _____ _____    ______ ____
ROOT
ATOM      1  C   UNL     1       7.975   8.209  18.316  0.00  0.00    +0.000 C 
ATOM      2  C   UNL     1       8.413   9.325  17.706  0.00  0.00    +0.000 C 
ENDROOT
BRANCH   2   3
ATOM      3  C   UNL     1       8.949  10.468  18.462  0.00  0.00    +0.000 A 
ATOM      4  C   UNL     1       9.379  10.343  19.784  0.00  0.00    +0.000 A 
ATOM      5  C   UNL     1       9.757  11.471  20.501  0.00  0.00    +0.000 A 
ATOM      6  N   UNL     1       9.741  12.694  19.924  0.00  0.00    +0.000 N 
ATOM      7  C   UNL     1       9.437  12.825  18.611  0.00  0.00    +0.000 A 
ATOM      8  C   UNL     1       9.037  11.721  17.860  0.00  0.00    +0.000 A 
BRANCH   6   9
ATOM      9  C   UNL     1      10.016  13.899  20.749  0.00  0.00    +0.000 C 
BRANCH   9  10
ATOM     10  C   UNL     1       8.864  14.181  21.671  0.00  0.00    +0.000 A 
ATOM     11  C   UNL     1       7.615  14.571  21.160  0.00  0.00    +0.000 A 
ATOM     12  C   UNL     1       6.577  14.932  22.022  0.00  0.00    +0.000 A 
ATOM     13  C   UNL     1       6.773  14.906  23.401  0.00  0.00    +0.000 A 
ATOM     14  C   UNL     1       7.994  14.486  23.909  0.00  0.00    +0.000 A 
ATOM     15  F   UNL     1       8.189  14.452  25.232  0.00  0.00    +0.000 F 
ATOM     16  C   UNL     1       9.034  14.116  23.062  0.00  0.00    +0.000 A 
ENDBRANCH   9  10
ENDBRANCH   6   9
ENDBRANCH   2   3
BRANCH   1  17
ATOM     17  C   UNL     1       7.442   7.052  17.545  0.00  0.00    +0.000 C 
ATOM     18  O   UNL     1       7.864   6.812  16.420  0.00  0.00    +0.000 OA
BRANCH  17  25
ATOM     19  C   UNL     1       3.320   3.683  19.663  0.00  0.00    +0.000 A 
ATOM     20  C   UNL     1       2.058   3.725  19.067  0.00  0.00    +0.000 A 
ATOM     21  C   UNL     1       1.783   4.623  18.034  0.00  0.00    +0.000 A 
ATOM     22  C   UNL     1       2.784   5.470  17.556  0.00  0.00    +0.000 A 
ATOM     23  C   UNL     1       4.062   5.428  18.122  0.00  0.00    +0.000 A 
ATOM     24  C   UNL     1       5.154   6.245  17.604  0.00  0.00    +0.000 A 
ATOM     25  C   UNL     1       6.368   6.230  18.187  0.00  0.00    +0.000 A 
ATOM     26  C   UNL     1       6.609   5.387  19.377  0.00  0.00    +0.000 A 
ATOM     27  O   UNL     1       7.663   5.410  20.009  0.00  0.00    +0.000 OA
ATOM     28  O   UNL     1       5.587   4.535  19.765  0.00  0.00    +0.000 OA
ATOM     29  C   UNL     1       4.307   4.551  19.183  0.00  0.00    +0.000 A 
BRANCH  19  31
ATOM     30  C   UNL     1       2.501   2.717  21.688  0.00  0.00    +0.000 C 
ATOM     31  O   UNL     1       3.449   2.724  20.629  0.00  0.00    +0.000 OA
ENDBRANCH  19  31
ENDBRANCH  17  25
ENDBRANCH   1  17
TORSDOF 6
ENDMDL
MODEL 8
REMARK VINA RESULT:      -8.8      8.193     11.491
REMARK  Name = 
REMARK  7 active torsions:
REMARK  status: ('A' for Active; 'I' for Inactive)
REMARK    1  A    between atoms: C_1  and  O_2
REMARK    2  A    between atoms: O_2  and  C_3
REMARK    3  A    between atoms: C_9  and  C_10
REMARK    4  A    between atoms: C_10  and  C_12
REMARK    5  A    between atoms: C_13  and  C_14
REMARK    6  A    between atoms: N_17  and  C_18
REMARK    7  A    between atoms: C_18  and  C_19
REMARK                            x       y       z     vdW  Elec       q    Type
REMARK                         _______ _______ _______ _____ _____    ______ ____
ROOT
ATOM      1  C   UNL     1      -0.122   9.273  20.386  0.00  0.00    +0.000 C 
ATOM      2  C   UNL     1      -0.186  10.082  19.313  0.00  0.00    +0.000 C 
ENDROOT
BRANCH   2   3
ATOM      3  C   UNL     1      -1.458  10.651  18.841  0.00  0.00    +0.000 A 
ATOM      4  C   UNL     1      -2.090  11.703  19.506  0.00  0.00    +0.000 A 
ATOM      5  C   UNL     1      -3.350  12.123  19.101  0.00  0.00    +0.000 A 
ATOM      6  N   UNL     1      -3.967  11.543  18.047  0.00  0.00    +0.000 N 
ATOM      7  C   UNL     1      -3.327  10.600  17.318  0.00  0.00    +0.000 A 
ATOM      8  C   UNL     1      -2.069  10.138  17.699  0.00  0.00    +0.000 A 
BRANCH   6   9
ATOM      9  C   UNL     1      -5.368  11.916  17.720  0.00  0.00    +0.000 C 
BRANCH   9  10
ATOM     10  C   UNL     1      -6.302  11.460  18.806  0.00  0.00    +0.000 A 
ATOM     11  C   UNL     1      -6.868  12.384  19.699  0.00  0.00    +0.000 A 
ATOM     12  C   UNL     1      -7.652  11.947  20.770  0.00  0.00    +0.000 A 
ATOM     13  C   UNL     1      -7.882  10.586  20.957  0.00  0.00    +0.000 A 
ATOM     14  C   UNL     1      -7.354   9.673  20.055  0.00  0.00    +0.000 A 
ATOM     15  F   UNL     1      -7.575   8.365  20.224  0.00  0.00    +0.000 F 
ATOM     16  C   UNL     1      -6.578  10.095  18.980  0.00  0.00    +0.000 A 
ENDBRANCH   9  10
ENDBRANCH   6   9
ENDBRANCH   2   3
BRANCH   1  17
ATOM     17  C   UNL     1       1.169   8.707  20.864  0.00  0.00    +0.000 C 
ATOM     18  O   UNL     1       1.808   9.278  21.740  0.00  0.00    +0.000 OA
BRANCH  17  25
ATOM     19  C   UNL     1       2.629   3.767  18.356  0.00  0.00    +0.000 A 
ATOM     20  C   UNL     1       2.367   2.575  19.036  0.00  0.00    +0.000 A 
ATOM     21  C   UNL     1       1.838   2.589  20.328  0.00  0.00    +0.000 A 
ATOM     22  C   UNL     1       1.528   3.802  20.945  0.00  0.00    +0.000 A 
ATOM     23  C   UNL     1       1.759   5.006  20.274  0.00  0.00    +0.000 A 
ATOM     24  C   UNL     1       1.382   6.290  20.855  0.00  0.00    +0.000 A 
ATOM     25  C   UNL     1       1.652   7.445  20.218  0.00  0.00    +0.000 A 
ATOM     26  C   UNL     1       2.351   7.428  18.917  0.00  0.00    +0.000 A 
ATOM     27  O   UNL     1       2.713   8.452  18.340  0.00  0.00    +0.000 OA
ATOM     28  O   UNL     1       2.583   6.190  18.340  0.00  0.00    +0.000 OA
ATOM     29  C   UNL     1       2.327   4.974  18.996  0.00  0.00    +0.000 A 
BRANCH  19  31
ATOM     30  C   UNL     1       4.496   3.777  16.867  0.00  0.00    +0.000 C 
ATOM     31  O   UNL     1       3.104   3.591  17.086  0.00  0.00    +0.000 OA
ENDBRANCH  19  31
ENDBRANCH  17  25
ENDBRANCH   1  17
TORSDOF 6
ENDMDL
MODEL 9
REMARK VINA RESULT:      -8.8      7.126      9.475
REMARK  Name = 
REMARK  7 active torsions:
REMARK  status: ('A' for Active; 'I' for Inactive)
REMARK    1  A    between atoms: C_1  and  O_2
REMARK    2  A    between atoms: O_2  and  C_3
REMARK    3  A    between atoms: C_9  and  C_10
REMARK    4  A    between atoms: C_10  and  C_12
REMARK    5  A    between atoms: C_13  and  C_14
REMARK    6  A    between atoms: N_17  and  C_18
REMARK    7  A    between atoms: C_18  and  C_19
REMARK                            x       y       z     vdW  Elec       q    Type
REMARK                         _______ _______ _______ _____ _____    ______ ____
ROOT
ATOM      1  C   UNL     1       1.443   6.115  20.838  0.00  0.00    +0.000 C 
ATOM      2  C   UNL     1       1.852   7.291  20.331  0.00  0.00    +0.000 C 
ENDROOT
BRANCH   2   3
ATOM      3  C   UNL     1       1.187   8.560  20.669  0.00  0.00    +0.000 A 
ATOM      4  C   UNL     1       0.927   9.537  19.708  0.00  0.00    +0.000 A 
ATOM      5  C   UNL     1       0.415  10.770  20.092  0.00  0.00    +0.000 A 
ATOM      6  N   UNL     1       0.137  11.029  21.389  0.00  0.00    +0.000 N 
ATOM      7  C   UNL     1       0.273  10.059  22.323  0.00  0.00    +0.000 A 
ATOM      8  C   UNL     1       0.798   8.814  21.983  0.00  0.00    +0.000 A 
BRANCH   6   9
ATOM      9  C   UNL     1      -0.279  12.398  21.792  0.00  0.00    +0.000 C 
BRANCH   9  10
ATOM     10  C   UNL     1      -1.762  12.453  22.023  0.00  0.00    +0.000 A 
ATOM     11  C   UNL     1      -2.643  12.729  20.965  0.00  0.00    +0.000 A 
ATOM     12  C   UNL     1      -4.012  12.881  21.203  0.00  0.00    +0.000 A 
ATOM     13  C   UNL     1      -4.514  12.756  22.496  0.00  0.00    +0.000 A 
ATOM     14  C   UNL     1      -3.650  12.447  23.538  0.00  0.00    +0.000 A 
ATOM     15  F   UNL     1      -4.125  12.319  24.782  0.00  0.00    +0.000 F 
ATOM     16  C   UNL     1      -2.287  12.285  23.314  0.00  0.00    +0.000 A 
ENDBRANCH   9  10
ENDBRANCH   6   9
ENDBRANCH   2   3
BRANCH   1  17
ATOM     17  C   UNL     1       2.125   4.836  20.500  0.00  0.00    +0.000 C 
ATOM     18  O   UNL     1       1.963   3.844  21.201  0.00  0.00    +0.000 OA
BRANCH  17  25
ATOM     19  C   UNL     1       5.718   4.461  16.053  0.00  0.00    +0.000 A 
ATOM     20  C   UNL     1       7.087   4.614  16.291  0.00  0.00    +0.000 A 
ATOM     21  C   UNL     1       7.560   4.934  17.565  0.00  0.00    +0.000 A 
ATOM     22  C   UNL     1       6.670   5.066  18.631  0.00  0.00    +0.000 A 
ATOM     23  C   UNL     1       5.299   4.891  18.421  0.00  0.00    +0.000 A 
ATOM     24  C   UNL     1       4.343   4.950  19.522  0.00  0.00    +0.000 A 
ATOM     25  C   UNL     1       3.021   4.827  19.299  0.00  0.00    +0.000 A 
ATOM     26  C   UNL     1       2.514   4.641  17.924  0.00  0.00    +0.000 A 
ATOM     27  O   UNL     1       1.316   4.623  17.650  0.00  0.00    +0.000 OA
ATOM     28  O   UNL     1       3.456   4.467  16.922  0.00  0.00    +0.000 OA
ATOM     29  C   UNL     1       4.839   4.613  17.130  0.00  0.00    +0.000 A 
BRANCH  19  31
ATOM     30  C   UNL     1       6.485   3.959  13.847  0.00  0.00    +0.000 C 
ATOM     31  O   UNL     1       5.413   4.107  14.768  0.00  0.00    +0.000 OA
ENDBRANCH  19  31
ENDBRANCH  17  25
ENDBRANCH   1  17
TORSDOF 6
ENDMDL
