MODEL 1
REMARK VINA RESULT:     -10.0      0.000      0.000
REMARK  Name = 
REMARK  6 active torsions:
REMARK  status: ('A' for Active; 'I' for Inactive)
REMARK    1  A    between atoms: C_2  and  O_3
REMARK    2  A    between atoms: C_2  and  C_4
REMARK    3  A    between atoms: C_7  and  C_8
REMARK    4  A    between atoms: C_9  and  C_10
REMARK    5  A    between atoms: C_13  and  N_14
REMARK    6  A    between atoms: N_14  and  C_15
REMARK                            x       y       z     vdW  Elec       q    Type
REMARK                         _______ _______ _______ _____ _____    ______ ____
ROOT
ATOM      1  C   UNL     1       0.320   9.730  20.678  0.00  0.00    +0.000 A 
ATOM      2  C   UNL     1       0.503   8.685  21.585  0.00  0.00    +0.000 A 
ATOM      3  C   UNL     1       1.347   7.609  21.273  0.00  0.00    +0.000 A 
ATOM      4  C   UNL     1       1.989   7.541  20.019  0.00  0.00    +0.000 A 
ATOM      5  C   UNL     1       1.801   8.588  19.124  0.00  0.00    +0.000 A 
ATOM      6  C   UNL     1       0.954   9.661  19.430  0.00  0.00    +0.000 A 
ENDROOT
BRANCH   1   8
ATOM      7  C   UNL     1      -0.617  11.348  22.321  0.00  0.00    +0.000 C 
ATOM      8  C   UNL     1      -0.537  10.863  21.072  0.00  0.00    +0.000 C 
BRANCH   7  12
ATOM      9  C   UNL     1      -3.357  14.310  23.730  0.00  0.00    +0.000 A 
ATOM     10  C   UNL     1      -2.237  14.670  22.976  0.00  0.00    +0.000 A 
ATOM     11  C   UNL     1      -1.381  13.678  22.495  0.00  0.00    +0.000 A 
ATOM     12  C   UNL     1      -1.620  12.326  22.763  0.00  0.00    +0.000 A 
ATOM     13  C   UNL     1      -2.788  11.972  23.457  0.00  0.00    +0.000 A 
ATOM     14  C   UNL     1      -3.654  12.958  23.941  0.00  0.00    +0.000 A 
BRANCH   9  16
ATOM     15  O   UNL     1      -3.756  16.416  24.709  0.00  0.00    +0.000 OA
ATOM     16  C   UNL     1      -4.221  15.385  24.275  0.00  0.00    +0.000 C 
BRANCH  16  17
ATOM     17  O   UNL     1      -5.521  15.076  24.291  0.00  0.00    +0.000 OA
ATOM     18  H   UNL     1      -5.746  14.312  24.864  0.00  0.00    +0.000 HD
ENDBRANCH  16  17
ENDBRANCH   9  16
ENDBRANCH   7  12
ENDBRANCH   1   8
BRANCH   4  19
ATOM     19  N   UNL     1       2.874   6.492  19.711  0.00  0.00    +0.000 N 
ATOM     20  H   UNL     1       2.987   5.928  20.560  0.00  0.00    +0.000 HD
BRANCH  19  21
ATOM     21  C   UNL     1       2.682   5.480  18.660  0.00  0.00    +0.000 A 
ATOM     22  C   UNL     1       3.661   5.477  17.616  0.00  0.00    +0.000 A 
ATOM     23  C   UNL     1       4.413   6.602  17.197  0.00  0.00    +0.000 A 
ATOM     24  C   UNL     1       5.330   6.474  16.144  0.00  0.00    +0.000 A 
ATOM     25  C   UNL     1       5.498   5.263  15.498  0.00  0.00    +0.000 A 
ATOM     26  C   UNL     1       4.803   4.140  15.958  0.00  0.00    +0.000 A 
ATOM     27  C   UNL     1       3.964   4.236  17.057  0.00  0.00    +0.000 A 
ATOM     28  N   UNL     1       3.612   3.098  17.664  0.00  0.00    +0.000 NA
ATOM     29  C   UNL     1       2.887   3.209  18.779  0.00  0.00    +0.000 A 
ATOM     30  C   UNL     1       3.269   2.536  19.926  0.00  0.00    +0.000 A 
ATOM     31  C   UNL     1       2.606   2.733  21.146  0.00  0.00    +0.000 A 
ATOM     32  C   UNL     1       1.386   3.387  21.126  0.00  0.00    +0.000 A 
ATOM     33  C   UNL     1       1.039   4.065  19.973  0.00  0.00    +0.000 A 
ATOM     34  C   UNL     1       2.039   4.258  18.998  0.00  0.00    +0.000 A 
ENDBRANCH  19  21
ENDBRANCH   4  19
TORSDOF 6
ENDMDL
MODEL 2
REMARK VINA RESULT:     -10.0      0.728      1.062
REMARK  Name = 
REMARK  6 active torsions:
REMARK  status: ('A' for Active; 'I' for Inactive)
REMARK    1  A    between atoms: C_2  and  O_3
REMARK    2  A    between atoms: C_2  and  C_4
REMARK    3  A    between atoms: C_7  and  C_8
REMARK    4  A    between atoms: C_9  and  C_10
REMARK    5  A    between atoms: C_13  and  N_14
REMARK    6  A    between atoms: N_14  and  C_15
REMARK                            x       y       z     vdW  Elec       q    Type
REMARK                         _______ _______ _______ _____ _____    ______ ____
ROOT
ATOM      1  C   UNL     1       0.236   9.762  20.496  0.00  0.00    +0.000 A 
ATOM      2  C   UNL     1       0.375   8.737  21.433  0.00  0.00    +0.000 A 
ATOM      3  C   UNL     1       1.232   7.655  21.186  0.00  0.00    +0.000 A 
ATOM      4  C   UNL     1       1.933   7.560  19.965  0.00  0.00    +0.000 A 
ATOM      5  C   UNL     1       1.788   8.586  19.040  0.00  0.00    +0.000 A 
ATOM      6  C   UNL     1       0.928   9.666  19.281  0.00  0.00    +0.000 A 
ENDROOT
BRANCH   1   8
ATOM      7  C   UNL     1      -1.004  11.237  22.071  0.00  0.00    +0.000 C 
ATOM      8  C   UNL     1      -0.638  10.904  20.824  0.00  0.00    +0.000 C 
BRANCH   7  12
ATOM      9  C   UNL     1      -4.174  13.947  23.005  0.00  0.00    +0.000 A 
ATOM     10  C   UNL     1      -3.853  12.896  23.867  0.00  0.00    +0.000 A 
ATOM     11  C   UNL     1      -2.787  12.050  23.557  0.00  0.00    +0.000 A 
ATOM     12  C   UNL     1      -2.038  12.232  22.389  0.00  0.00    +0.000 A 
ATOM     13  C   UNL     1      -2.322  13.336  21.570  0.00  0.00    +0.000 A 
ATOM     14  C   UNL     1      -3.386  14.191  21.873  0.00  0.00    +0.000 A 
BRANCH   9  16
ATOM     15  O   UNL     1      -5.443  15.931  22.913  0.00  0.00    +0.000 OA
ATOM     16  C   UNL     1      -5.345  14.798  23.330  0.00  0.00    +0.000 C 
BRANCH  16  17
ATOM     17  O   UNL     1      -6.220  14.217  24.156  0.00  0.00    +0.000 OA
ATOM     18  H   UNL     1      -6.021  13.278  24.358  0.00  0.00    +0.000 HD
ENDBRANCH  16  17
ENDBRANCH   9  16
ENDBRANCH   7  12
ENDBRANCH   1   8
BRANCH   4  19
ATOM     19  N   UNL     1       2.831   6.505  19.722  0.00  0.00    +0.000 N 
ATOM     20  H   UNL     1       2.907   5.963  20.590  0.00  0.00    +0.000 HD
BRANCH  19  21
ATOM     21  C   UNL     1       2.683   5.465  18.691  0.00  0.00    +0.000 A 
ATOM     22  C   UNL     1       3.670   5.477  17.655  0.00  0.00    +0.000 A 
ATOM     23  C   UNL     1       4.384   6.619  17.218  0.00  0.00    +0.000 A 
ATOM     24  C   UNL     1       5.313   6.504  16.175  0.00  0.00    +0.000 A 
ATOM     25  C   UNL     1       5.531   5.287  15.555  0.00  0.00    +0.000 A 
ATOM     26  C   UNL     1       4.873   4.149  16.032  0.00  0.00    +0.000 A 
ATOM     27  C   UNL     1       4.023   4.237  17.123  0.00  0.00    +0.000 A 
ATOM     28  N   UNL     1       3.707   3.099  17.751  0.00  0.00    +0.000 NA
ATOM     29  C   UNL     1       2.969   3.206  18.858  0.00  0.00    +0.000 A 
ATOM     30  C   UNL     1       3.367   2.570  20.021  0.00  0.00    +0.000 A 
ATOM     31  C   UNL     1       2.688   2.768  21.232  0.00  0.00    +0.000 A 
ATOM     32  C   UNL     1       1.445   3.376  21.190  0.00  0.00    +0.000 A 
ATOM     33  C   UNL     1       1.082   4.018  20.021  0.00  0.00    +0.000 A 
ATOM     34  C   UNL     1       2.083   4.228  19.049  0.00  0.00    +0.000 A 
ENDBRANCH  19  21
ENDBRANCH   4  19
TORSDOF 6
ENDMDL
MODEL 3
REMARK VINA RESULT:      -9.6      0.833      1.280
REMARK  Name = 
REMARK  6 active torsions:
REMARK  status: ('A' for Active; 'I' for Inactive)
REMARK    1  A    between atoms: C_2  and  O_3
REMARK    2  A    between atoms: C_2  and  C_4
REMARK    3  A    between atoms: C_7  and  C_8
REMARK    4  A    between atoms: C_9  and  C_10
REMARK    5  A    between atoms: C_13  and  N_14
REMARK    6  A    between atoms: N_14  and  C_15
REMARK                            x       y       z     vdW  Elec       q    Type
REMARK                         _______ _______ _______ _____ _____    ______ ____
ROOT
ATOM      1  C   UNL     1       0.203   9.673  20.500  0.00  0.00    +0.000 A 
ATOM      2  C   UNL     1       0.910   9.623  19.298  0.00  0.00    +0.000 A 
ATOM      3  C   UNL     1       1.805   8.574  19.038  0.00  0.00    +0.000 A 
ATOM      4  C   UNL     1       2.040   7.577  20.008  0.00  0.00    +0.000 A 
ATOM      5  C   UNL     1       1.330   7.636  21.201  0.00  0.00    +0.000 A 
ATOM      6  C   UNL     1       0.440   8.685  21.466  0.00  0.00    +0.000 A 
ENDROOT
BRANCH   1   8
ATOM      7  C   UNL     1      -1.037  11.316  21.899  0.00  0.00    +0.000 C 
ATOM      8  C   UNL     1      -0.763  10.768  20.705  0.00  0.00    +0.000 C 
BRANCH   7  12
ATOM      9  C   UNL     1      -4.104  14.216  22.568  0.00  0.00    +0.000 A 
ATOM     10  C   UNL     1      -3.416  14.168  21.354  0.00  0.00    +0.000 A 
ATOM     11  C   UNL     1      -2.446  13.186  21.147  0.00  0.00    +0.000 A 
ATOM     12  C   UNL     1      -2.145  12.250  22.143  0.00  0.00    +0.000 A 
ATOM     13  C   UNL     1      -2.895  12.261  23.329  0.00  0.00    +0.000 A 
ATOM     14  C   UNL     1      -3.870  13.240  23.545  0.00  0.00    +0.000 A 
BRANCH   9  16
ATOM     15  O   UNL     1      -5.993  15.195  23.583  0.00  0.00    +0.000 OA
ATOM     16  C   UNL     1      -5.090  15.303  22.783  0.00  0.00    +0.000 C 
BRANCH  16  17
ATOM     17  O   UNL     1      -4.915  16.356  21.978  0.00  0.00    +0.000 OA
ATOM     18  H   UNL     1      -4.003  16.449  21.630  0.00  0.00    +0.000 HD
ENDBRANCH  16  17
ENDBRANCH   9  16
ENDBRANCH   7  12
ENDBRANCH   1   8
BRANCH   4  19
ATOM     19  N   UNL     1       2.898   6.494  19.743  0.00  0.00    +0.000 N 
ATOM     20  H   UNL     1       2.958   5.935  20.601  0.00  0.00    +0.000 HD
BRANCH  19  21
ATOM     21  C   UNL     1       2.710   5.478  18.696  0.00  0.00    +0.000 A 
ATOM     22  C   UNL     1       3.685   5.480  17.648  0.00  0.00    +0.000 A 
ATOM     23  C   UNL     1       4.427   6.610  17.224  0.00  0.00    +0.000 A 
ATOM     24  C   UNL     1       5.341   6.487  16.168  0.00  0.00    +0.000 A 
ATOM     25  C   UNL     1       5.517   5.276  15.524  0.00  0.00    +0.000 A 
ATOM     26  C   UNL     1       4.831   4.149  15.989  0.00  0.00    +0.000 A 
ATOM     27  C   UNL     1       3.996   4.241  17.090  0.00  0.00    +0.000 A 
ATOM     28  N   UNL     1       3.654   3.101  17.701  0.00  0.00    +0.000 NA
ATOM     29  C   UNL     1       2.932   3.209  18.818  0.00  0.00    +0.000 A 
ATOM     30  C   UNL     1       3.324   2.541  19.966  0.00  0.00    +0.000 A 
ATOM     31  C   UNL     1       2.664   2.736  21.187  0.00  0.00    +0.000 A 
ATOM     32  C   UNL     1       1.439   3.380  21.171  0.00  0.00    +0.000 A 
ATOM     33  C   UNL     1       1.082   4.054  20.017  0.00  0.00    +0.000 A 
ATOM     34  C   UNL     1       2.077   4.252  19.039  0.00  0.00    +0.000 A 
ENDBRANCH  19  21
ENDBRANCH   4  19
TORSDOF 6
ENDMDL
MODEL 4
REMARK VINA RESULT:      -9.5      1.073      1.167
REMARK  Name = 
REMARK  6 active torsions:
REMARK  status: ('A' for Active; 'I' for Inactive)
REMARK    1  A    between atoms: C_2  and  O_3
REMARK    2  A    between atoms: C_2  and  C_4
REMARK    3  A    between atoms: C_7  and  C_8
REMARK    4  A    between atoms: C_9  and  C_10
REMARK    5  A    between atoms: C_13  and  N_14
REMARK    6  A    between atoms: N_14  and  C_15
REMARK                            x       y       z     vdW  Elec       q    Type
REMARK                         _______ _______ _______ _____ _____    ______ ____
ROOT
ATOM      1  C   UNL     1       0.774   9.284  20.324  0.00  0.00    +0.000 A 
ATOM      2  C   UNL     1       0.903   8.217  21.213  0.00  0.00    +0.000 A 
ATOM      3  C   UNL     1       1.695   7.106  20.886  0.00  0.00    +0.000 A 
ATOM      4  C   UNL     1       2.336   7.027  19.632  0.00  0.00    +0.000 A 
ATOM      5  C   UNL     1       2.201   8.096  18.754  0.00  0.00    +0.000 A 
ATOM      6  C   UNL     1       1.406   9.205  19.075  0.00  0.00    +0.000 A 
ENDROOT
BRANCH   1   8
ATOM      7  C   UNL     1      -0.011  10.980  21.968  0.00  0.00    +0.000 C 
ATOM      8  C   UNL     1      -0.028  10.452  20.734  0.00  0.00    +0.000 C 
BRANCH   7  12
ATOM      9  C   UNL     1      -2.588  14.031  23.488  0.00  0.00    +0.000 A 
ATOM     10  C   UNL     1      -1.405  14.359  22.822  0.00  0.00    +0.000 A 
ATOM     11  C   UNL     1      -0.601  13.343  22.301  0.00  0.00    +0.000 A 
ATOM     12  C   UNL     1      -0.958  11.998  22.442  0.00  0.00    +0.000 A 
ATOM     13  C   UNL     1      -2.187  11.685  23.046  0.00  0.00    +0.000 A 
ATOM     14  C   UNL     1      -2.999  12.696  23.569  0.00  0.00    +0.000 A 
BRANCH   9  16
ATOM     15  O   UNL     1      -2.989  16.267  24.118  0.00  0.00    +0.000 OA
ATOM     16  C   UNL     1      -3.395  15.126  24.079  0.00  0.00    +0.000 C 
BRANCH  16  17
ATOM     17  O   UNL     1      -4.555  14.718  24.603  0.00  0.00    +0.000 OA
ATOM     18  H   UNL     1      -5.334  15.240  24.314  0.00  0.00    +0.000 HD
ENDBRANCH  16  17
ENDBRANCH   9  16
ENDBRANCH   7  12
ENDBRANCH   1   8
BRANCH   4  19
ATOM     19  N   UNL     1       3.170   5.942  19.308  0.00  0.00    +0.000 N 
ATOM     20  H   UNL     1       2.904   5.160  19.917  0.00  0.00    +0.000 HD
BRANCH  19  21
ATOM     21  C   UNL     1       3.289   5.309  17.985  0.00  0.00    +0.000 A 
ATOM     22  C   UNL     1       4.578   5.400  17.369  0.00  0.00    +0.000 A 
ATOM     23  C   UNL     1       5.523   6.430  17.599  0.00  0.00    +0.000 A 
ATOM     24  C   UNL     1       6.746   6.419  16.914  0.00  0.00    +0.000 A 
ATOM     25  C   UNL     1       7.036   5.419  16.004  0.00  0.00    +0.000 A 
ATOM     26  C   UNL     1       6.128   4.369  15.829  0.00  0.00    +0.000 A 
ATOM     27  C   UNL     1       4.958   4.324  16.569  0.00  0.00    +0.000 A 
ATOM     28  N   UNL     1       4.314   3.153  16.631  0.00  0.00    +0.000 NA
ATOM     29  C   UNL     1       3.244   3.095  17.426  0.00  0.00    +0.000 A 
ATOM     30  C   UNL     1       3.123   2.076  18.355  0.00  0.00    +0.000 A 
ATOM     31  C   UNL     1       2.080   2.059  19.292  0.00  0.00    +0.000 A 
ATOM     32  C   UNL     1       1.011   2.916  19.092  0.00  0.00    +0.000 A 
ATOM     33  C   UNL     1       1.167   3.935  18.172  0.00  0.00    +0.000 A 
ATOM     34  C   UNL     1       2.466   4.189  17.687  0.00  0.00    +0.000 A 
ENDBRANCH  19  21
ENDBRANCH   4  19
TORSDOF 6
ENDMDL
MODEL 5
REMARK VINA RESULT:      -9.3      1.227      1.563
REMARK  Name = 
REMARK  6 active torsions:
REMARK  status: ('A' for Active; 'I' for Inactive)
REMARK    1  A    between atoms: C_2  and  O_3
REMARK    2  A    between atoms: C_2  and  C_4
REMARK    3  A    between atoms: C_7  and  C_8
REMARK    4  A    between atoms: C_9  and  C_10
REMARK    5  A    between atoms: C_13  and  N_14
REMARK    6  A    between atoms: N_14  and  C_15
REMARK                            x       y       z     vdW  Elec       q    Type
REMARK                         _______ _______ _______ _____ _____    ______ ____
ROOT
ATOM      1  C   UNL     1       0.789   9.341  19.984  0.00  0.00    +0.000 A 
ATOM      2  C   UNL     1       0.968   8.329  20.928  0.00  0.00    +0.000 A 
ATOM      3  C   UNL     1       1.814   7.242  20.658  0.00  0.00    +0.000 A 
ATOM      4  C   UNL     1       2.459   7.130  19.409  0.00  0.00    +0.000 A 
ATOM      5  C   UNL     1       2.274   8.143  18.477  0.00  0.00    +0.000 A 
ATOM      6  C   UNL     1       1.426   9.227  18.741  0.00  0.00    +0.000 A 
ENDROOT
BRANCH   1   8
ATOM      7  C   UNL     1      -0.483  10.766  21.580  0.00  0.00    +0.000 C 
ATOM      8  C   UNL     1      -0.070  10.488  20.334  0.00  0.00    +0.000 C 
BRANCH   7  12
ATOM      9  C   UNL     1      -3.608  13.506  22.574  0.00  0.00    +0.000 A 
ATOM     10  C   UNL     1      -3.156  12.567  23.504  0.00  0.00    +0.000 A 
ATOM     11  C   UNL     1      -2.107  11.710  23.166  0.00  0.00    +0.000 A 
ATOM     12  C   UNL     1      -1.504  11.770  21.905  0.00  0.00    +0.000 A 
ATOM     13  C   UNL     1      -1.917  12.768  21.007  0.00  0.00    +0.000 A 
ATOM     14  C   UNL     1      -2.966  13.632  21.337  0.00  0.00    +0.000 A 
BRANCH   9  16
ATOM     15  O   UNL     1      -4.685  15.188  23.826  0.00  0.00    +0.000 OA
ATOM     16  C   UNL     1      -4.760  14.367  22.938  0.00  0.00    +0.000 C 
BRANCH  16  17
ATOM     17  O   UNL     1      -5.871  14.102  22.244  0.00  0.00    +0.000 OA
ATOM     18  H   UNL     1      -6.225  14.868  21.744  0.00  0.00    +0.000 HD
ENDBRANCH  16  17
ENDBRANCH   9  16
ENDBRANCH   7  12
ENDBRANCH   1   8
BRANCH   4  19
ATOM     19  N   UNL     1       3.345   6.071  19.142  0.00  0.00    +0.000 N 
ATOM     20  H   UNL     1       3.174   5.344  19.845  0.00  0.00    +0.000 HD
BRANCH  19  21
ATOM     21  C   UNL     1       3.425   5.308  17.886  0.00  0.00    +0.000 A 
ATOM     22  C   UNL     1       4.712   5.281  17.259  0.00  0.00    +0.000 A 
ATOM     23  C   UNL     1       5.704   6.284  17.384  0.00  0.00    +0.000 A 
ATOM     24  C   UNL     1       6.919   6.152  16.699  0.00  0.00    +0.000 A 
ATOM     25  C   UNL     1       7.157   5.056  15.889  0.00  0.00    +0.000 A 
ATOM     26  C   UNL     1       6.203   4.037  15.820  0.00  0.00    +0.000 A 
ATOM     27  C   UNL     1       5.038   4.116  16.566  0.00  0.00    +0.000 A 
ATOM     28  N   UNL     1       4.342   2.987  16.743  0.00  0.00    +0.000 NA
ATOM     29  C   UNL     1       3.277   3.055  17.545  0.00  0.00    +0.000 A 
ATOM     30  C   UNL     1       3.119   2.137  18.568  0.00  0.00    +0.000 A 
ATOM     31  C   UNL     1       2.084   2.257  19.507  0.00  0.00    +0.000 A 
ATOM     32  C   UNL     1       1.053   3.138  19.229  0.00  0.00    +0.000 A 
ATOM     33  C   UNL     1       1.246   4.055  18.213  0.00  0.00    +0.000 A 
ATOM     34  C   UNL     1       2.552   4.202  17.701  0.00  0.00    +0.000 A 
ENDBRANCH  19  21
ENDBRANCH   4  19
TORSDOF 6
ENDMDL
MODEL 6
REMARK VINA RESULT:      -9.3      1.280      1.630
REMARK  Name = 
REMARK  6 active torsions:
REMARK  status: ('A' for Active; 'I' for Inactive)
REMARK    1  A    between atoms: C_2  and  O_3
REMARK    2  A    between atoms: C_2  and  C_4
REMARK    3  A    between atoms: C_7  and  C_8
REMARK    4  A    between atoms: C_9  and  C_10
REMARK    5  A    between atoms: C_13  and  N_14
REMARK    6  A    between atoms: N_14  and  C_15
REMARK                            x       y       z     vdW  Elec       q    Type
REMARK                         _______ _______ _______ _____ _____    ______ ____
ROOT
ATOM      1  C   UNL     1       0.284   9.906  19.985  0.00  0.00    +0.000 A 
ATOM      2  C   UNL     1       1.010   9.672  18.817  0.00  0.00    +0.000 A 
ATOM      3  C   UNL     1       1.850   8.553  18.710  0.00  0.00    +0.000 A 
ATOM      4  C   UNL     1       2.010   7.670  19.799  0.00  0.00    +0.000 A 
ATOM      5  C   UNL     1       1.281   7.913  20.957  0.00  0.00    +0.000 A 
ATOM      6  C   UNL     1       0.446   9.032  21.069  0.00  0.00    +0.000 A 
ENDROOT
BRANCH   1   8
ATOM      7  C   UNL     1      -0.993  11.690  21.159  0.00  0.00    +0.000 C 
ATOM      8  C   UNL     1      -0.624  11.068  20.030  0.00  0.00    +0.000 C 
BRANCH   7  12
ATOM      9  C   UNL     1      -4.112  14.578  21.610  0.00  0.00    +0.000 A 
ATOM     10  C   UNL     1      -2.948  14.653  22.381  0.00  0.00    +0.000 A 
ATOM     11  C   UNL     1      -1.929  13.720  22.185  0.00  0.00    +0.000 A 
ATOM     12  C   UNL     1      -2.056  12.702  21.233  0.00  0.00    +0.000 A 
ATOM     13  C   UNL     1      -3.196  12.682  20.414  0.00  0.00    +0.000 A 
ATOM     14  C   UNL     1      -4.222  13.614  20.601  0.00  0.00    +0.000 A 
BRANCH   9  16
ATOM     15  O   UNL     1      -5.789  16.107  20.976  0.00  0.00    +0.000 OA
ATOM     16  C   UNL     1      -5.202  15.547  21.876  0.00  0.00    +0.000 C 
BRANCH  16  17
ATOM     17  O   UNL     1      -5.415  15.775  23.176  0.00  0.00    +0.000 OA
ATOM     18  H   UNL     1      -5.161  16.674  23.474  0.00  0.00    +0.000 HD
ENDBRANCH  16  17
ENDBRANCH   9  16
ENDBRANCH   7  12
ENDBRANCH   1   8
BRANCH   4  19
ATOM     19  N   UNL     1       2.811   6.520  19.690  0.00  0.00    +0.000 N 
ATOM     20  H   UNL     1       2.715   5.997  20.567  0.00  0.00    +0.000 HD
BRANCH  19  21
ATOM     21  C   UNL     1       2.687   5.474  18.662  0.00  0.00    +0.000 A 
ATOM     22  C   UNL     1       3.702   5.474  17.653  0.00  0.00    +0.000 A 
ATOM     23  C   UNL     1       4.434   6.610  17.229  0.00  0.00    +0.000 A 
ATOM     24  C   UNL     1       5.390   6.484  16.212  0.00  0.00    +0.000 A 
ATOM     25  C   UNL     1       5.618   5.261  15.606  0.00  0.00    +0.000 A 
ATOM     26  C   UNL     1       4.942   4.130  16.073  0.00  0.00    +0.000 A 
ATOM     27  C   UNL     1       4.062   4.229  17.139  0.00  0.00    +0.000 A 
ATOM     28  N   UNL     1       3.724   3.097  17.765  0.00  0.00    +0.000 NA
ATOM     29  C   UNL     1       2.957   3.214  18.851  0.00  0.00    +0.000 A 
ATOM     30  C   UNL     1       3.319   2.585  20.029  0.00  0.00    +0.000 A 
ATOM     31  C   UNL     1       2.608   2.793  21.219  0.00  0.00    +0.000 A 
ATOM     32  C   UNL     1       1.370   3.407  21.139  0.00  0.00    +0.000 A 
ATOM     33  C   UNL     1       1.043   4.044  19.957  0.00  0.00    +0.000 A 
ATOM     34  C   UNL     1       2.070   4.242  19.012  0.00  0.00    +0.000 A 
ENDBRANCH  19  21
ENDBRANCH   4  19
TORSDOF 6
ENDMDL
MODEL 7
REMARK VINA RESULT:      -9.2      1.734      2.400
REMARK  Name = 
REMARK  6 active torsions:
REMARK  status: ('A' for Active; 'I' for Inactive)
REMARK    1  A    between atoms: C_2  and  O_3
REMARK    2  A    between atoms: C_2  and  C_4
REMARK    3  A    between atoms: C_7  and  C_8
REMARK    4  A    between atoms: C_9  and  C_10
REMARK    5  A    between atoms: C_13  and  N_14
REMARK    6  A    between atoms: N_14  and  C_15
REMARK                            x       y       z     vdW  Elec       q    Type
REMARK                         _______ _______ _______ _____ _____    ______ ____
ROOT
ATOM      1  C   UNL     1       1.425   8.844  20.112  0.00  0.00    +0.000 A 
ATOM      2  C   UNL     1       1.527   9.221  18.772  0.00  0.00    +0.000 A 
ATOM      3  C   UNL     1       2.022   8.324  17.813  0.00  0.00    +0.000 A 
ATOM      4  C   UNL     1       2.469   7.042  18.195  0.00  0.00    +0.000 A 
ATOM      5  C   UNL     1       2.362   6.677  19.532  0.00  0.00    +0.000 A 
ATOM      6  C   UNL     1       1.874   7.572  20.493  0.00  0.00    +0.000 A 
ENDROOT
BRANCH   1   8
ATOM      7  C   UNL     1      -0.192  10.604  20.806  0.00  0.00    +0.000 C 
ATOM      8  C   UNL     1       0.852   9.804  21.073  0.00  0.00    +0.000 C 
BRANCH   7  12
ATOM      9  C   UNL     1      -1.237  13.826  23.412  0.00  0.00    +0.000 A 
ATOM     10  C   UNL     1      -0.251  13.985  22.435  0.00  0.00    +0.000 A 
ATOM     11  C   UNL     1       0.042  12.929  21.571  0.00  0.00    +0.000 A 
ATOM     12  C   UNL     1      -0.630  11.706  21.673  0.00  0.00    +0.000 A 
ATOM     13  C   UNL     1      -1.670  11.584  22.609  0.00  0.00    +0.000 A 
ATOM     14  C   UNL     1      -1.973  12.637  23.477  0.00  0.00    +0.000 A 
BRANCH   9  16
ATOM     15  O   UNL     1      -0.614  15.396  25.056  0.00  0.00    +0.000 OA
ATOM     16  C   UNL     1      -1.491  14.945  24.352  0.00  0.00    +0.000 C 
BRANCH  16  17
ATOM     17  O   UNL     1      -2.765  15.346  24.380  0.00  0.00    +0.000 OA
ATOM     18  H   UNL     1      -2.901  16.277  24.104  0.00  0.00    +0.000 HD
ENDBRANCH  16  17
ENDBRANCH   9  16
ENDBRANCH   7  12
ENDBRANCH   1   8
BRANCH   4  19
ATOM     19  N   UNL     1       2.924   6.116  17.239  0.00  0.00    +0.000 N 
ATOM     20  H   UNL     1       3.204   6.648  16.408  0.00  0.00    +0.000 HD
BRANCH  19  21
ATOM     21  C   UNL     1       4.032   5.165  17.417  0.00  0.00    +0.000 A 
ATOM     22  C   UNL     1       5.305   5.747  17.719  0.00  0.00    +0.000 A 
ATOM     23  C   UNL     1       5.721   7.046  17.338  0.00  0.00    +0.000 A 
ATOM     24  C   UNL     1       7.005   7.494  17.677  0.00  0.00    +0.000 A 
ATOM     25  C   UNL     1       7.879   6.674  18.367  0.00  0.00    +0.000 A 
ATOM     26  C   UNL     1       7.442   5.417  18.798  0.00  0.00    +0.000 A 
ATOM     27  C   UNL     1       6.144   5.003  18.548  0.00  0.00    +0.000 A 
ATOM     28  N   UNL     1       5.674   3.979  19.269  0.00  0.00    +0.000 NA
ATOM     29  C   UNL     1       4.392   3.654  19.092  0.00  0.00    +0.000 A 
ATOM     30  C   UNL     1       3.554   3.511  20.183  0.00  0.00    +0.000 A 
ATOM     31  C   UNL     1       2.177   3.299  20.027  0.00  0.00    +0.000 A 
ATOM     32  C   UNL     1       1.711   2.947  18.771  0.00  0.00    +0.000 A 
ATOM     33  C   UNL     1       2.564   3.118  17.697  0.00  0.00    +0.000 A 
ATOM     34  C   UNL     1       3.743   3.862  17.907  0.00  0.00    +0.000 A 
ENDBRANCH  19  21
ENDBRANCH   4  19
TORSDOF 6
ENDMDL
MODEL 8
REMARK VINA RESULT:      -9.2      2.112      2.536
REMARK  Name = 
REMARK  6 active torsions:
REMARK  status: ('A' for Active; 'I' for Inactive)
REMARK    1  A    between atoms: C_2  and  O_3
REMARK    2  A    between atoms: C_2  and  C_4
REMARK    3  A    between atoms: C_7  and  C_8
REMARK    4  A    between atoms: C_9  and  C_10
REMARK    5  A    between atoms: C_13  and  N_14
REMARK    6  A    between atoms: N_14  and  C_15
REMARK                            x       y       z     vdW  Elec       q    Type
REMARK                         _______ _______ _______ _____ _____    ______ ____
ROOT
ATOM      1  C   UNL     1       0.577  10.023  19.798  0.00  0.00    +0.000 A 
ATOM      2  C   UNL     1       0.658   9.179  20.906  0.00  0.00    +0.000 A 
ATOM      3  C   UNL     1       1.410   7.996  20.849  0.00  0.00    +0.000 A 
ATOM      4  C   UNL     1       2.059   7.616  19.655  0.00  0.00    +0.000 A 
ATOM      5  C   UNL     1       1.972   8.465  18.558  0.00  0.00    +0.000 A 
ATOM      6  C   UNL     1       1.217   9.645  18.610  0.00  0.00    +0.000 A 
ENDROOT
BRANCH   1   8
ATOM      7  C   UNL     1       0.069  12.388  19.209  0.00  0.00    +0.000 C 
ATOM      8  C   UNL     1      -0.184  11.280  19.923  0.00  0.00    +0.000 C 
BRANCH   7  12
ATOM      9  C   UNL     1      -1.470  16.288  20.037  0.00  0.00    +0.000 A 
ATOM     10  C   UNL     1      -0.530  16.089  19.022  0.00  0.00    +0.000 A 
ATOM     11  C   UNL     1      -0.074  14.798  18.747  0.00  0.00    +0.000 A 
ATOM     12  C   UNL     1      -0.537  13.699  19.478  0.00  0.00    +0.000 A 
ATOM     13  C   UNL     1      -1.536  13.902  20.444  0.00  0.00    +0.000 A 
ATOM     14  C   UNL     1      -2.001  15.191  20.725  0.00  0.00    +0.000 A 
BRANCH   9  16
ATOM     15  O   UNL     1      -1.405  18.631  19.788  0.00  0.00    +0.000 OA
ATOM     16  C   UNL     1      -1.897  17.674  20.346  0.00  0.00    +0.000 C 
BRANCH  16  17
ATOM     17  O   UNL     1      -2.809  17.753  21.319  0.00  0.00    +0.000 OA
ATOM     18  H   UNL     1      -3.737  17.680  21.008  0.00  0.00    +0.000 HD
ENDBRANCH  16  17
ENDBRANCH   9  16
ENDBRANCH   7  12
ENDBRANCH   1   8
BRANCH   4  19
ATOM     19  N   UNL     1       2.854   6.458  19.597  0.00  0.00    +0.000 N 
ATOM     20  H   UNL     1       2.754   5.973  20.495  0.00  0.00    +0.000 HD
BRANCH  19  21
ATOM     21  C   UNL     1       2.724   5.370  18.614  0.00  0.00    +0.000 A 
ATOM     22  C   UNL     1       3.746   5.313  17.614  0.00  0.00    +0.000 A 
ATOM     23  C   UNL     1       4.495   6.420  17.147  0.00  0.00    +0.000 A 
ATOM     24  C   UNL     1       5.457   6.238  16.144  0.00  0.00    +0.000 A 
ATOM     25  C   UNL     1       5.675   4.987  15.594  0.00  0.00    +0.000 A 
ATOM     26  C   UNL     1       4.981   3.886  16.104  0.00  0.00    +0.000 A 
ATOM     27  C   UNL     1       4.095   4.042  17.158  0.00  0.00    +0.000 A 
ATOM     28  N   UNL     1       3.738   2.943  17.830  0.00  0.00    +0.000 NA
ATOM     29  C   UNL     1       2.964   3.117  18.904  0.00  0.00    +0.000 A 
ATOM     30  C   UNL     1       3.310   2.535  20.111  0.00  0.00    +0.000 A 
ATOM     31  C   UNL     1       2.593   2.805  21.286  0.00  0.00    +0.000 A 
ATOM     32  C   UNL     1       1.363   3.430  21.169  0.00  0.00    +0.000 A 
ATOM     33  C   UNL     1       1.053   4.017  19.957  0.00  0.00    +0.000 A 
ATOM     34  C   UNL     1       2.089   4.161  19.013  0.00  0.00    +0.000 A 
ENDBRANCH  19  21
ENDBRANCH   4  19
TORSDOF 6
ENDMDL
MODEL 9
REMARK VINA RESULT:      -9.1      0.875      3.329
REMARK  Name = 
REMARK  6 active torsions:
REMARK  status: ('A' for Active; 'I' for Inactive)
REMARK    1  A    between atoms: C_2  and  O_3
REMARK    2  A    between atoms: C_2  and  C_4
REMARK    3  A    between atoms: C_7  and  C_8
REMARK    4  A    between atoms: C_9  and  C_10
REMARK    5  A    between atoms: C_13  and  N_14
REMARK    6  A    between atoms: N_14  and  C_15
REMARK                            x       y       z     vdW  Elec       q    Type
REMARK                         _______ _______ _______ _____ _____    ______ ____
ROOT
ATOM      1  C   UNL     1       0.577  10.086  20.197  0.00  0.00    +0.000 A 
ATOM      2  C   UNL     1       0.812  10.108  18.822  0.00  0.00    +0.000 A 
ATOM      3  C   UNL     1       1.466   9.038  18.192  0.00  0.00    +0.000 A 
ATOM      4  C   UNL     1       1.938   7.943  18.946  0.00  0.00    +0.000 A 
ATOM      5  C   UNL     1       1.697   7.931  20.315  0.00  0.00    +0.000 A 
ATOM      6  C   UNL     1       1.050   9.000  20.948  0.00  0.00    +0.000 A 
ENDROOT
BRANCH   1   8
ATOM      7  C   UNL     1      -0.374  11.345  22.122  0.00  0.00    +0.000 C 
ATOM      8  C   UNL     1      -0.159  11.210  20.805  0.00  0.00    +0.000 C 
BRANCH   7  12
ATOM      9  C   UNL     1      -2.846  14.277  24.008  0.00  0.00    +0.000 A 
ATOM     10  C   UNL     1      -1.585  14.615  23.510  0.00  0.00    +0.000 A 
ATOM     11  C   UNL     1      -0.815  13.647  22.864  0.00  0.00    +0.000 A 
ATOM     12  C   UNL     1      -1.283  12.337  22.713  0.00  0.00    +0.000 A 
ATOM     13  C   UNL     1      -2.581  12.029  23.149  0.00  0.00    +0.000 A 
ATOM     14  C   UNL     1      -3.361  12.993  23.796  0.00  0.00    +0.000 A 
BRANCH   9  16
ATOM     15  O   UNL     1      -3.080  16.121  25.458  0.00  0.00    +0.000 OA
ATOM     16  C   UNL     1      -3.621  15.310  24.738  0.00  0.00    +0.000 C 
BRANCH  16  17
ATOM     17  O   UNL     1      -4.943  15.212  24.569  0.00  0.00    +0.000 OA
ATOM     18  H   UNL     1      -5.431  14.925  25.370  0.00  0.00    +0.000 HD
ENDBRANCH  16  17
ENDBRANCH   9  16
ENDBRANCH   7  12
ENDBRANCH   1   8
BRANCH   4  19
ATOM     19  N   UNL     1       2.553   6.843  18.323  0.00  0.00    +0.000 N 
ATOM     20  H   UNL     1       3.072   7.201  17.514  0.00  0.00    +0.000 HD
BRANCH  19  21
ATOM     21  C   UNL     1       3.510   5.918  18.951  0.00  0.00    +0.000 A 
ATOM     22  C   UNL     1       2.933   4.812  19.653  0.00  0.00    +0.000 A 
ATOM     23  C   UNL     1       1.650   4.804  20.253  0.00  0.00    +0.000 A 
ATOM     24  C   UNL     1       1.206   3.662  20.934  0.00  0.00    +0.000 A 
ATOM     25  C   UNL     1       2.014   2.544  21.038  0.00  0.00    +0.000 A 
ATOM     26  C   UNL     1       3.252   2.532  20.388  0.00  0.00    +0.000 A 
ATOM     27  C   UNL     1       3.659   3.622  19.636  0.00  0.00    +0.000 A 
ATOM     28  N   UNL     1       4.656   3.431  18.765  0.00  0.00    +0.000 NA
ATOM     29  C   UNL     1       4.973   4.460  17.976  0.00  0.00    +0.000 A 
ATOM     30  C   UNL     1       5.074   4.281  16.607  0.00  0.00    +0.000 A 
ATOM     31  C   UNL     1       5.275   5.364  15.740  0.00  0.00    +0.000 A 
ATOM     32  C   UNL     1       5.661   6.575  16.289  0.00  0.00    +0.000 A 
ATOM     33  C   UNL     1       5.532   6.731  17.657  0.00  0.00    +0.000 A 
ATOM     34  C   UNL     1       4.794   5.759  18.362  0.00  0.00    +0.000 A 
ENDBRANCH  19  21
ENDBRANCH   4  19
TORSDOF 6
ENDMDL
