MODEL 1
REMARK VINA RESULT:      -8.5      0.000      0.000
REMARK  Name = 
REMARK  11 active torsions:
REMARK  status: ('A' for Active; 'I' for Inactive)
REMARK    1  A    between atoms: C_1  and  C_2
REMARK    2  A    between atoms: C_4  and  N_5
REMARK    3  A    between atoms: S_6  and  C_7
REMARK    4  A    between atoms: S_6  and  C_8
REMARK    5  A    between atoms: N_16  and  C_17
REMARK    6  A    between atoms: C_22  and  O_23
REMARK    7  A    between atoms: O_23  and  C_24
REMARK    8  A    between atoms: C_24  and  C_25
REMARK    9  A    between atoms: C_24  and  C_26
REMARK   10  A    between atoms: N_28  and  C_29
REMARK   11  A    between atoms: C_29  and  C_30
REMARK                            x       y       z     vdW  Elec       q    Type
REMARK                         _______ _______ _______ _____ _____    ______ ____
ROOT
ATOM      1  C   UNL     1       4.051   6.853  17.345  0.00  0.00    +0.000 C 
ATOM      2  C   UNL     1       3.200   6.230  18.410  0.00  0.00    +0.000 A 
ATOM      3  C   UNL     1       2.950   7.102  19.464  0.00  0.00    +0.000 A 
ATOM      4  C   UNL     1       1.957   6.843  20.376  0.00  0.00    +0.000 A 
ATOM      5  C   UNL     1       1.306   5.622  20.332  0.00  0.00    +0.000 A 
ATOM      6  C   UNL     1       1.625   4.661  19.380  0.00  0.00    +0.000 A 
ATOM      7  N   UNL     1       0.941   3.513  19.469  0.00  0.00    +0.000 NA
ATOM      8  C   UNL     1       1.207   2.564  18.574  0.00  0.00    +0.000 A 
ATOM      9  N   UNL     1       2.125   2.640  17.613  0.00  0.00    +0.000 NA
ATOM     10  C   UNL     1       2.843   3.783  17.553  0.00  0.00    +0.000 A 
ATOM     11  N   UNL     1       3.851   3.716  16.574  0.00  0.00    +0.000 N 
ATOM     12  C   UNL     1       2.605   4.914  18.397  0.00  0.00    +0.000 A 
ATOM     13  H   UNL     1       3.839   2.751  16.236  0.00  0.00    +0.000 HD
ENDROOT
BRANCH  11  14
ATOM     14  C   UNL     1       5.167   4.200  16.682  0.00  0.00    +0.000 A 
ATOM     15  C   UNL     1       5.688   4.367  17.976  0.00  0.00    +0.000 A 
ATOM     16  C   UNL     1       7.055   4.543  18.147  0.00  0.00    +0.000 A 
ATOM     17  C   UNL     1       7.850   4.638  17.016  0.00  0.00    +0.000 A 
ATOM     18  N   UNL     1       7.370   4.612  15.749  0.00  0.00    +0.000 NA
ATOM     19  C   UNL     1       6.037   4.430  15.600  0.00  0.00    +0.000 A 
BRANCH  19  20
ATOM     20  O   UNL     1       5.508   4.319  14.326  0.00  0.00    +0.000 OA
BRANCH  20  21
ATOM     21  C   UNL     1       6.384   3.794  13.327  0.00  0.00    +0.000 C 
ATOM     22  C   UNL     1       7.181   4.910  12.651  0.00  0.00    +0.000 C 
BRANCH  21  23
ATOM     23  C   UNL     1       5.506   3.110  12.254  0.00  0.00    +0.000 C 
ATOM     24  O   UNL     1       5.852   2.110  11.627  0.00  0.00    +0.000 OA
ATOM     25  N   UNL     1       4.255   3.655  12.056  0.00  0.00    +0.000 N 
ATOM     26  H   UNL     1       4.004   4.513  12.531  0.00  0.00    +0.000 HD
BRANCH  25  27
ATOM     27  C   UNL     1       3.368   3.107  11.023  0.00  0.00    +0.000 C 
BRANCH  27  28
ATOM     28  C   UNL     1       3.151   3.960   9.757  0.00  0.00    +0.000 C 
ATOM     29  F   UNL     1       2.140   4.849   9.880  0.00  0.00    +0.000 F 
ATOM     30  F   UNL     1       4.269   4.642   9.414  0.00  0.00    +0.000 F 
ATOM     31  F   UNL     1       2.843   3.163   8.702  0.00  0.00    +0.000 F 
ENDBRANCH  27  28
ENDBRANCH  25  27
ENDBRANCH  21  23
ENDBRANCH  20  21
ENDBRANCH  19  20
ENDBRANCH  11  14
BRANCH   4  32
ATOM     32  N   UNL     1       1.657   7.948  21.204  0.00  0.00    +0.000 NA
ATOM     33  S   UNL     1       0.313   8.652  21.359  0.00  0.00    +0.000 S 
ATOM     34  C   UNL     1       0.019   9.664  19.925  0.00  0.00    +0.000 C 
ATOM     35  C   UNL     1       0.605   9.878  22.623  0.00  0.00    +0.000 C 
ATOM     36  O   UNL     1      -0.925   7.967  21.672  0.00  0.00    +0.000 OA
ENDBRANCH   4  32
TORSDOF 7
ENDMDL
MODEL 2
REMARK VINA RESULT:      -8.3      2.082      2.437
REMARK  Name = 
REMARK  11 active torsions:
REMARK  status: ('A' for Active; 'I' for Inactive)
REMARK    1  A    between atoms: C_1  and  C_2
REMARK    2  A    between atoms: C_4  and  N_5
REMARK    3  A    between atoms: S_6  and  C_7
REMARK    4  A    between atoms: S_6  and  C_8
REMARK    5  A    between atoms: N_16  and  C_17
REMARK    6  A    between atoms: C_22  and  O_23
REMARK    7  A    between atoms: O_23  and  C_24
REMARK    8  A    between atoms: C_24  and  C_25
REMARK    9  A    between atoms: C_24  and  C_26
REMARK   10  A    between atoms: N_28  and  C_29
REMARK   11  A    between atoms: C_29  and  C_30
REMARK                            x       y       z     vdW  Elec       q    Type
REMARK                         _______ _______ _______ _____ _____    ______ ____
ROOT
ATOM      1  C   UNL     1       3.633   7.077  17.824  0.00  0.00    +0.000 C 
ATOM      2  C   UNL     1       3.014   6.177  18.851  0.00  0.00    +0.000 A 
ATOM      3  C   UNL     1       2.276   6.883  19.796  0.00  0.00    +0.000 A 
ATOM      4  C   UNL     1       1.391   6.240  20.626  0.00  0.00    +0.000 A 
ATOM      5  C   UNL     1       1.352   4.856  20.625  0.00  0.00    +0.000 A 
ATOM      6  C   UNL     1       2.178   4.105  19.796  0.00  0.00    +0.000 A 
ATOM      7  N   UNL     1       2.061   2.777  19.918  0.00  0.00    +0.000 NA
ATOM      8  C   UNL     1       2.827   2.016  19.139  0.00  0.00    +0.000 A 
ATOM      9  N   UNL     1       3.732   2.460  18.269  0.00  0.00    +0.000 NA
ATOM     10  C   UNL     1       3.877   3.799  18.180  0.00  0.00    +0.000 A 
ATOM     11  N   UNL     1       4.927   4.155  17.314  0.00  0.00    +0.000 N 
ATOM     12  C   UNL     1       3.063   4.734  18.896  0.00  0.00    +0.000 A 
ATOM     13  H   UNL     1       5.383   3.275  17.061  0.00  0.00    +0.000 HD
ENDROOT
BRANCH  11  14
ATOM     14  C   UNL     1       5.872   5.179  17.508  0.00  0.00    +0.000 A 
ATOM     15  C   UNL     1       6.268   5.449  18.828  0.00  0.00    +0.000 A 
ATOM     16  C   UNL     1       7.402   6.218  19.061  0.00  0.00    +0.000 A 
ATOM     17  C   UNL     1       8.054   6.770  17.969  0.00  0.00    +0.000 A 
ATOM     18  N   UNL     1       7.629   6.641  16.689  0.00  0.00    +0.000 NA
ATOM     19  C   UNL     1       6.530   5.880  16.479  0.00  0.00    +0.000 A 
BRANCH  19  20
ATOM     20  O   UNL     1       6.101   5.654  15.183  0.00  0.00    +0.000 OA
BRANCH  20  21
ATOM     21  C   UNL     1       6.909   4.774  14.400  0.00  0.00    +0.000 C 
ATOM     22  C   UNL     1       7.848   5.559  13.483  0.00  0.00    +0.000 C 
BRANCH  21  23
ATOM     23  C   UNL     1       5.958   3.936  13.515  0.00  0.00    +0.000 C 
ATOM     24  O   UNL     1       4.741   4.110  13.469  0.00  0.00    +0.000 OA
ATOM     25  N   UNL     1       6.554   2.985  12.714  0.00  0.00    +0.000 N 
ATOM     26  H   UNL     1       7.546   2.808  12.805  0.00  0.00    +0.000 HD
BRANCH  25  27
ATOM     27  C   UNL     1       5.729   2.105  11.877  0.00  0.00    +0.000 C 
BRANCH  27  28
ATOM     28  C   UNL     1       6.469   1.147  10.921  0.00  0.00    +0.000 C 
ATOM     29  F   UNL     1       6.231  -0.157  11.183  0.00  0.00    +0.000 F 
ATOM     30  F   UNL     1       6.145   1.381   9.628  0.00  0.00    +0.000 F 
ATOM     31  F   UNL     1       7.811   1.328  11.025  0.00  0.00    +0.000 F 
ENDBRANCH  27  28
ENDBRANCH  25  27
ENDBRANCH  21  23
ENDBRANCH  20  21
ENDBRANCH  19  20
ENDBRANCH  11  14
BRANCH   4  32
ATOM     32  N   UNL     1       0.535   7.124  21.321  0.00  0.00    +0.000 NA
ATOM     33  S   UNL     1       0.590   8.648  21.334  0.00  0.00    +0.000 S 
ATOM     34  C   UNL     1       1.944   9.172  22.363  0.00  0.00    +0.000 C 
ATOM     35  C   UNL     1      -0.825   9.127  22.311  0.00  0.00    +0.000 C 
ATOM     36  O   UNL     1       0.609   9.465  20.137  0.00  0.00    +0.000 OA
ENDBRANCH   4  32
TORSDOF 7
ENDMDL
MODEL 3
REMARK VINA RESULT:      -7.9      2.287      2.649
REMARK  Name = 
REMARK  11 active torsions:
REMARK  status: ('A' for Active; 'I' for Inactive)
REMARK    1  A    between atoms: C_1  and  C_2
REMARK    2  A    between atoms: C_4  and  N_5
REMARK    3  A    between atoms: S_6  and  C_7
REMARK    4  A    between atoms: S_6  and  C_8
REMARK    5  A    between atoms: N_16  and  C_17
REMARK    6  A    between atoms: C_22  and  O_23
REMARK    7  A    between atoms: O_23  and  C_24
REMARK    8  A    between atoms: C_24  and  C_25
REMARK    9  A    between atoms: C_24  and  C_26
REMARK   10  A    between atoms: N_28  and  C_29
REMARK   11  A    between atoms: C_29  and  C_30
REMARK                            x       y       z     vdW  Elec       q    Type
REMARK                         _______ _______ _______ _____ _____    ______ ____
ROOT
ATOM      1  C   UNL     1       4.078   6.689  17.590  0.00  0.00    +0.000 C 
ATOM      2  C   UNL     1       3.224   6.435  18.796  0.00  0.00    +0.000 A 
ATOM      3  C   UNL     1       2.649   7.601  19.291  0.00  0.00    +0.000 A 
ATOM      4  C   UNL     1       1.606   7.551  20.183  0.00  0.00    +0.000 A 
ATOM      5  C   UNL     1       1.231   6.328  20.712  0.00  0.00    +0.000 A 
ATOM      6  C   UNL     1       1.876   5.151  20.351  0.00  0.00    +0.000 A 
ATOM      7  N   UNL     1       1.435   4.043  20.960  0.00  0.00    +0.000 NA
ATOM      8  C   UNL     1       2.018   2.889  20.642  0.00  0.00    +0.000 A 
ATOM      9  N   UNL     1       3.032   2.741  19.792  0.00  0.00    +0.000 NA
ATOM     10  C   UNL     1       3.503   3.866  19.213  0.00  0.00    +0.000 A 
ATOM     11  N   UNL     1       4.636   3.611  18.420  0.00  0.00    +0.000 N 
ATOM     12  C   UNL     1       2.918   5.159  19.400  0.00  0.00    +0.000 A 
ATOM     13  H   UNL     1       4.872   2.630  18.588  0.00  0.00    +0.000 HD
ENDROOT
BRANCH  11  14
ATOM     14  C   UNL     1       5.796   4.402  18.323  0.00  0.00    +0.000 A 
ATOM     15  C   UNL     1       6.171   5.137  19.459  0.00  0.00    +0.000 A 
ATOM     16  C   UNL     1       7.446   5.684  19.533  0.00  0.00    +0.000 A 
ATOM     17  C   UNL     1       8.276   5.557  18.431  0.00  0.00    +0.000 A 
ATOM     18  N   UNL     1       7.907   4.969  17.267  0.00  0.00    +0.000 NA
ATOM     19  C   UNL     1       6.666   4.432  17.217  0.00  0.00    +0.000 A 
BRANCH  19  20
ATOM     20  O   UNL     1       6.269   3.753  16.079  0.00  0.00    +0.000 OA
BRANCH  20  21
ATOM     21  C   UNL     1       5.715   4.552  15.033  0.00  0.00    +0.000 C 
ATOM     22  C   UNL     1       4.275   4.140  14.727  0.00  0.00    +0.000 C 
BRANCH  21  23
ATOM     23  C   UNL     1       6.567   4.311  13.765  0.00  0.00    +0.000 C 
ATOM     24  O   UNL     1       7.592   4.938  13.505  0.00  0.00    +0.000 OA
ATOM     25  N   UNL     1       6.143   3.296  12.933  0.00  0.00    +0.000 N 
ATOM     26  H   UNL     1       5.266   2.829  13.123  0.00  0.00    +0.000 HD
BRANCH  25  27
ATOM     27  C   UNL     1       6.857   3.026  11.679  0.00  0.00    +0.000 C 
BRANCH  27  28
ATOM     28  C   UNL     1       6.807   1.582  11.139  0.00  0.00    +0.000 C 
ATOM     29  F   UNL     1       7.769   0.785  11.657  0.00  0.00    +0.000 F 
ATOM     30  F   UNL     1       5.608   1.000  11.375  0.00  0.00    +0.000 F 
ATOM     31  F   UNL     1       6.982   1.580   9.793  0.00  0.00    +0.000 F 
ENDBRANCH  27  28
ENDBRANCH  25  27
ENDBRANCH  21  23
ENDBRANCH  20  21
ENDBRANCH  19  20
ENDBRANCH  11  14
BRANCH   4  32
ATOM     32  N   UNL     1       0.969   8.799  20.365  0.00  0.00    +0.000 NA
ATOM     33  S   UNL     1       0.663   9.499  21.686  0.00  0.00    +0.000 S 
ATOM     34  C   UNL     1      -0.721   8.694  22.463  0.00  0.00    +0.000 C 
ATOM     35  C   UNL     1      -0.045  11.063  21.197  0.00  0.00    +0.000 C 
ATOM     36  O   UNL     1       1.654   9.753  22.713  0.00  0.00    +0.000 OA
ENDBRANCH   4  32
TORSDOF 7
ENDMDL
MODEL 4
REMARK VINA RESULT:      -7.8      2.252      2.584
REMARK  Name = 
REMARK  11 active torsions:
REMARK  status: ('A' for Active; 'I' for Inactive)
REMARK    1  A    between atoms: C_1  and  C_2
REMARK    2  A    between atoms: C_4  and  N_5
REMARK    3  A    between atoms: S_6  and  C_7
REMARK    4  A    between atoms: S_6  and  C_8
REMARK    5  A    between atoms: N_16  and  C_17
REMARK    6  A    between atoms: C_22  and  O_23
REMARK    7  A    between atoms: O_23  and  C_24
REMARK    8  A    between atoms: C_24  and  C_25
REMARK    9  A    between atoms: C_24  and  C_26
REMARK   10  A    between atoms: N_28  and  C_29
REMARK   11  A    between atoms: C_29  and  C_30
REMARK                            x       y       z     vdW  Elec       q    Type
REMARK                         _______ _______ _______ _____ _____    ______ ____
ROOT
ATOM      1  C   UNL     1       4.055   6.848  17.496  0.00  0.00    +0.000 C 
ATOM      2  C   UNL     1       3.150   6.596  18.664  0.00  0.00    +0.000 A 
ATOM      3  C   UNL     1       2.665   7.776  19.220  0.00  0.00    +0.000 A 
ATOM      4  C   UNL     1       1.598   7.763  20.085  0.00  0.00    +0.000 A 
ATOM      5  C   UNL     1       1.104   6.547  20.526  0.00  0.00    +0.000 A 
ATOM      6  C   UNL     1       1.654   5.342  20.104  0.00  0.00    +0.000 A 
ATOM      7  N   UNL     1       1.102   4.242  20.632  0.00  0.00    +0.000 NA
ATOM      8  C   UNL     1       1.591   3.064  20.253  0.00  0.00    +0.000 A 
ATOM      9  N   UNL     1       2.611   2.879  19.417  0.00  0.00    +0.000 NA
ATOM     10  C   UNL     1       3.193   3.992  18.921  0.00  0.00    +0.000 A 
ATOM     11  N   UNL     1       4.322   3.687  18.138  0.00  0.00    +0.000 N 
ATOM     12  C   UNL     1       2.718   5.317  19.178  0.00  0.00    +0.000 A 
ATOM     13  H   UNL     1       4.466   2.680  18.248  0.00  0.00    +0.000 HD
ENDROOT
BRANCH  11  14
ATOM     14  C   UNL     1       5.547   4.377  18.118  0.00  0.00    +0.000 A 
ATOM     15  C   UNL     1       5.946   5.018  19.302  0.00  0.00    +0.000 A 
ATOM     16  C   UNL     1       7.260   5.447  19.441  0.00  0.00    +0.000 A 
ATOM     17  C   UNL     1       8.113   5.303  18.359  0.00  0.00    +0.000 A 
ATOM     18  N   UNL     1       7.734   4.809  17.156  0.00  0.00    +0.000 NA
ATOM     19  C   UNL     1       6.454   4.386  17.041  0.00  0.00    +0.000 A 
BRANCH  19  20
ATOM     20  O   UNL     1       6.038   3.802  15.857  0.00  0.00    +0.000 OA
BRANCH  20  21
ATOM     21  C   UNL     1       6.254   4.568  14.671  0.00  0.00    +0.000 C 
ATOM     22  C   UNL     1       5.620   5.954  14.787  0.00  0.00    +0.000 C 
BRANCH  21  23
ATOM     23  C   UNL     1       5.568   3.819  13.505  0.00  0.00    +0.000 C 
ATOM     24  O   UNL     1       4.407   4.024  13.154  0.00  0.00    +0.000 OA
ATOM     25  N   UNL     1       6.351   2.915  12.819  0.00  0.00    +0.000 N 
ATOM     26  H   UNL     1       7.284   2.709  13.154  0.00  0.00    +0.000 HD
BRANCH  25  27
ATOM     27  C   UNL     1       5.774   2.118  11.730  0.00  0.00    +0.000 C 
BRANCH  27  28
ATOM     28  C   UNL     1       6.721   1.153  10.988  0.00  0.00    +0.000 C 
ATOM     29  F   UNL     1       8.004   1.238  11.404  0.00  0.00    +0.000 F 
ATOM     30  F   UNL     1       6.324  -0.135  11.116  0.00  0.00    +0.000 F 
ATOM     31  F   UNL     1       6.722   1.429   9.659  0.00  0.00    +0.000 F 
ENDBRANCH  27  28
ENDBRANCH  25  27
ENDBRANCH  21  23
ENDBRANCH  20  21
ENDBRANCH  19  20
ENDBRANCH  11  14
BRANCH   4  32
ATOM     32  N   UNL     1       1.067   9.049  20.333  0.00  0.00    +0.000 NA
ATOM     33  S   UNL     1       0.531  10.044  19.308  0.00  0.00    +0.000 S 
ATOM     34  C   UNL     1       1.901  10.791  18.453  0.00  0.00    +0.000 C 
ATOM     35  C   UNL     1      -0.074  11.403  20.296  0.00  0.00    +0.000 C 
ATOM     36  O   UNL     1      -0.479   9.719  18.320  0.00  0.00    +0.000 OA
ENDBRANCH   4  32
TORSDOF 7
ENDMDL
MODEL 5
REMARK VINA RESULT:      -7.8      2.104      2.335
REMARK  Name = 
REMARK  11 active torsions:
REMARK  status: ('A' for Active; 'I' for Inactive)
REMARK    1  A    between atoms: C_1  and  C_2
REMARK    2  A    between atoms: C_4  and  N_5
REMARK    3  A    between atoms: S_6  and  C_7
REMARK    4  A    between atoms: S_6  and  C_8
REMARK    5  A    between atoms: N_16  and  C_17
REMARK    6  A    between atoms: C_22  and  O_23
REMARK    7  A    between atoms: O_23  and  C_24
REMARK    8  A    between atoms: C_24  and  C_25
REMARK    9  A    between atoms: C_24  and  C_26
REMARK   10  A    between atoms: N_28  and  C_29
REMARK   11  A    between atoms: C_29  and  C_30
REMARK                            x       y       z     vdW  Elec       q    Type
REMARK                         _______ _______ _______ _____ _____    ______ ____
ROOT
ATOM      1  C   UNL     1       3.965   6.845  17.498  0.00  0.00    +0.000 C 
ATOM      2  C   UNL     1       3.129   6.145  18.527  0.00  0.00    +0.000 A 
ATOM      3  C   UNL     1       2.852   6.956  19.623  0.00  0.00    +0.000 A 
ATOM      4  C   UNL     1       1.864   6.622  20.517  0.00  0.00    +0.000 A 
ATOM      5  C   UNL     1       1.248   5.387  20.409  0.00  0.00    +0.000 A 
ATOM      6  C   UNL     1       1.596   4.485  19.410  0.00  0.00    +0.000 A 
ATOM      7  N   UNL     1       0.945   3.315  19.439  0.00  0.00    +0.000 NA
ATOM      8  C   UNL     1       1.240   2.421  18.498  0.00  0.00    +0.000 A 
ATOM      9  N   UNL     1       2.158   2.572  17.545  0.00  0.00    +0.000 NA
ATOM     10  C   UNL     1       2.843   3.735  17.546  0.00  0.00    +0.000 A 
ATOM     11  N   UNL     1       3.855   3.747  16.569  0.00  0.00    +0.000 N 
ATOM     12  C   UNL     1       2.571   4.815  18.446  0.00  0.00    +0.000 A 
ATOM     13  H   UNL     1       3.872   2.800  16.182  0.00  0.00    +0.000 HD
ENDROOT
BRANCH  11  14
ATOM     14  C   UNL     1       5.157   4.262  16.707  0.00  0.00    +0.000 A 
ATOM     15  C   UNL     1       5.629   4.481  18.012  0.00  0.00    +0.000 A 
ATOM     16  C   UNL     1       6.985   4.691  18.225  0.00  0.00    +0.000 A 
ATOM     17  C   UNL     1       7.817   4.766  17.119  0.00  0.00    +0.000 A 
ATOM     18  N   UNL     1       7.383   4.691  15.837  0.00  0.00    +0.000 NA
ATOM     19  C   UNL     1       6.060   4.475  15.649  0.00  0.00    +0.000 A 
BRANCH  19  20
ATOM     20  O   UNL     1       5.579   4.313  14.362  0.00  0.00    +0.000 OA
BRANCH  20  21
ATOM     21  C   UNL     1       6.539   3.926  13.377  0.00  0.00    +0.000 C 
ATOM     22  C   UNL     1       7.049   5.138  12.598  0.00  0.00    +0.000 C 
BRANCH  21  23
ATOM     23  C   UNL     1       5.828   2.977  12.385  0.00  0.00    +0.000 C 
ATOM     24  O   UNL     1       4.660   3.120  12.024  0.00  0.00    +0.000 OA
ATOM     25  N   UNL     1       6.595   1.957  11.865  0.00  0.00    +0.000 N 
ATOM     26  H   UNL     1       7.533   1.810  12.214  0.00  0.00    +0.000 HD
BRANCH  25  27
ATOM     27  C   UNL     1       5.994   0.974  10.954  0.00  0.00    +0.000 C 
BRANCH  27  28
ATOM     28  C   UNL     1       6.045  -0.506  11.384  0.00  0.00    +0.000 C 
ATOM     29  F   UNL     1       5.235  -1.302  10.651  0.00  0.00    +0.000 F 
ATOM     30  F   UNL     1       7.301  -1.006  11.311  0.00  0.00    +0.000 F 
ATOM     31  F   UNL     1       5.650  -0.631  12.677  0.00  0.00    +0.000 F 
ENDBRANCH  27  28
ENDBRANCH  25  27
ENDBRANCH  21  23
ENDBRANCH  20  21
ENDBRANCH  19  20
ENDBRANCH  11  14
BRANCH   4  32
ATOM     32  N   UNL     1       1.531   7.675  21.398  0.00  0.00    +0.000 NA
ATOM     33  S   UNL     1       0.259   8.518  21.397  0.00  0.00    +0.000 S 
ATOM     34  C   UNL     1       0.337   9.684  20.055  0.00  0.00    +0.000 C 
ATOM     35  C   UNL     1       0.437   9.580  22.821  0.00  0.00    +0.000 C 
ATOM     36  O   UNL     1      -1.079   7.959  21.415  0.00  0.00    +0.000 OA
ENDBRANCH   4  32
TORSDOF 7
ENDMDL
MODEL 6
REMARK VINA RESULT:      -7.7      1.391      1.577
REMARK  Name = 
REMARK  11 active torsions:
REMARK  status: ('A' for Active; 'I' for Inactive)
REMARK    1  A    between atoms: C_1  and  C_2
REMARK    2  A    between atoms: C_4  and  N_5
REMARK    3  A    between atoms: S_6  and  C_7
REMARK    4  A    between atoms: S_6  and  C_8
REMARK    5  A    between atoms: N_16  and  C_17
REMARK    6  A    between atoms: C_22  and  O_23
REMARK    7  A    between atoms: O_23  and  C_24
REMARK    8  A    between atoms: C_24  and  C_25
REMARK    9  A    between atoms: C_24  and  C_26
REMARK   10  A    between atoms: N_28  and  C_29
REMARK   11  A    between atoms: C_29  and  C_30
REMARK                            x       y       z     vdW  Elec       q    Type
REMARK                         _______ _______ _______ _____ _____    ______ ____
ROOT
ATOM      1  C   UNL     1       3.971   6.777  17.519  0.00  0.00    +0.000 C 
ATOM      2  C   UNL     1       3.086   6.492  18.695  0.00  0.00    +0.000 A 
ATOM      3  C   UNL     1       2.613   7.655  19.294  0.00  0.00    +0.000 A 
ATOM      4  C   UNL     1       1.561   7.618  20.176  0.00  0.00    +0.000 A 
ATOM      5  C   UNL     1       1.073   6.390  20.590  0.00  0.00    +0.000 A 
ATOM      6  C   UNL     1       1.615   5.197  20.124  0.00  0.00    +0.000 A 
ATOM      7  N   UNL     1       1.071   4.083  20.629  0.00  0.00    +0.000 NA
ATOM      8  C   UNL     1       1.552   2.916  20.207  0.00  0.00    +0.000 A 
ATOM      9  N   UNL     1       2.557   2.755  19.349  0.00  0.00    +0.000 NA
ATOM     10  C   UNL     1       3.132   3.881  18.876  0.00  0.00    +0.000 A 
ATOM     11  N   UNL     1       4.246   3.599  18.065  0.00  0.00    +0.000 N 
ATOM     12  C   UNL     1       2.662   5.199  19.180  0.00  0.00    +0.000 A 
ATOM     13  H   UNL     1       4.392   2.589  18.143  0.00  0.00    +0.000 HD
ENDROOT
BRANCH  11  14
ATOM     14  C   UNL     1       5.472   4.288  18.043  0.00  0.00    +0.000 A 
ATOM     15  C   UNL     1       5.900   4.881  19.242  0.00  0.00    +0.000 A 
ATOM     16  C   UNL     1       7.217   5.303  19.368  0.00  0.00    +0.000 A 
ATOM     17  C   UNL     1       8.044   5.203  18.260  0.00  0.00    +0.000 A 
ATOM     18  N   UNL     1       7.636   4.758  17.047  0.00  0.00    +0.000 NA
ATOM     19  C   UNL     1       6.352   4.341  16.946  0.00  0.00    +0.000 A 
BRANCH  19  20
ATOM     20  O   UNL     1       5.908   3.806  15.750  0.00  0.00    +0.000 OA
BRANCH  20  21
ATOM     21  C   UNL     1       6.156   4.591  14.582  0.00  0.00    +0.000 C 
ATOM     22  C   UNL     1       5.170   5.755  14.479  0.00  0.00    +0.000 C 
BRANCH  21  23
ATOM     23  C   UNL     1       5.948   3.672  13.355  0.00  0.00    +0.000 C 
ATOM     24  O   UNL     1       6.563   2.622  13.179  0.00  0.00    +0.000 OA
ATOM     25  N   UNL     1       4.978   4.067  12.458  0.00  0.00    +0.000 N 
ATOM     26  H   UNL     1       4.522   4.963  12.579  0.00  0.00    +0.000 HD
BRANCH  25  27
ATOM     27  C   UNL     1       4.744   3.288  11.236  0.00  0.00    +0.000 C 
BRANCH  27  28
ATOM     28  C   UNL     1       3.349   3.401  10.587  0.00  0.00    +0.000 C 
ATOM     29  F   UNL     1       2.370   2.829  11.323  0.00  0.00    +0.000 F 
ATOM     30  F   UNL     1       3.005   4.690  10.361  0.00  0.00    +0.000 F 
ATOM     31  F   UNL     1       3.344   2.779   9.380  0.00  0.00    +0.000 F 
ENDBRANCH  27  28
ENDBRANCH  25  27
ENDBRANCH  21  23
ENDBRANCH  20  21
ENDBRANCH  19  20
ENDBRANCH  11  14
BRANCH   4  32
ATOM     32  N   UNL     1       1.036   8.896  20.471  0.00  0.00    +0.000 NA
ATOM     33  S   UNL     1       0.807   9.508  21.850  0.00  0.00    +0.000 S 
ATOM     34  C   UNL     1      -0.631   8.762  22.585  0.00  0.00    +0.000 C 
ATOM     35  C   UNL     1       0.230  11.162  21.503  0.00  0.00    +0.000 C 
ATOM     36  O   UNL     1       1.829   9.593  22.874  0.00  0.00    +0.000 OA
ENDBRANCH   4  32
TORSDOF 7
ENDMDL
MODEL 7
REMARK VINA RESULT:      -7.7      1.380      1.532
REMARK  Name = 
REMARK  11 active torsions:
REMARK  status: ('A' for Active; 'I' for Inactive)
REMARK    1  A    between atoms: C_1  and  C_2
REMARK    2  A    between atoms: C_4  and  N_5
REMARK    3  A    between atoms: S_6  and  C_7
REMARK    4  A    between atoms: S_6  and  C_8
REMARK    5  A    between atoms: N_16  and  C_17
REMARK    6  A    between atoms: C_22  and  O_23
REMARK    7  A    between atoms: O_23  and  C_24
REMARK    8  A    between atoms: C_24  and  C_25
REMARK    9  A    between atoms: C_24  and  C_26
REMARK   10  A    between atoms: N_28  and  C_29
REMARK   11  A    between atoms: C_29  and  C_30
REMARK                            x       y       z     vdW  Elec       q    Type
REMARK                         _______ _______ _______ _____ _____    ______ ____
ROOT
ATOM      1  C   UNL     1       4.061   6.943  17.667  0.00  0.00    +0.000 C 
ATOM      2  C   UNL     1       3.126   6.572  18.778  0.00  0.00    +0.000 A 
ATOM      3  C   UNL     1       2.693   7.683  19.496  0.00  0.00    +0.000 A 
ATOM      4  C   UNL     1       1.613   7.601  20.340  0.00  0.00    +0.000 A 
ATOM      5  C   UNL     1       1.051   6.362  20.596  0.00  0.00    +0.000 A 
ATOM      6  C   UNL     1       1.545   5.203  20.009  0.00  0.00    +0.000 A 
ATOM      7  N   UNL     1       0.929   4.069  20.366  0.00  0.00    +0.000 NA
ATOM      8  C   UNL     1       1.364   2.934  19.824  0.00  0.00    +0.000 A 
ATOM      9  N   UNL     1       2.387   2.819  18.979  0.00  0.00    +0.000 NA
ATOM     10  C   UNL     1       3.033   3.960  18.655  0.00  0.00    +0.000 A 
ATOM     11  N   UNL     1       4.156   3.712  17.846  0.00  0.00    +0.000 N 
ATOM     12  C   UNL     1       2.621   5.257  19.098  0.00  0.00    +0.000 A 
ATOM     13  H   UNL     1       4.248   2.694  17.809  0.00  0.00    +0.000 HD
ENDROOT
BRANCH  11  14
ATOM     14  C   UNL     1       5.416   4.332  17.936  0.00  0.00    +0.000 A 
ATOM     15  C   UNL     1       5.798   4.836  19.190  0.00  0.00    +0.000 A 
ATOM     16  C   UNL     1       7.125   5.177  19.417  0.00  0.00    +0.000 A 
ATOM     17  C   UNL     1       8.014   5.089  18.358  0.00  0.00    +0.000 A 
ATOM     18  N   UNL     1       7.660   4.732  17.099  0.00  0.00    +0.000 NA
ATOM     19  C   UNL     1       6.365   4.393  16.898  0.00  0.00    +0.000 A 
BRANCH  19  20
ATOM     20  O   UNL     1       5.969   3.947  15.650  0.00  0.00    +0.000 OA
BRANCH  20  21
ATOM     21  C   UNL     1       6.271   4.810  14.551  0.00  0.00    +0.000 C 
ATOM     22  C   UNL     1       5.266   5.957  14.458  0.00  0.00    +0.000 C 
BRANCH  21  23
ATOM     23  C   UNL     1       6.165   3.967  13.259  0.00  0.00    +0.000 C 
ATOM     24  O   UNL     1       7.139   3.594  12.607  0.00  0.00    +0.000 OA
ATOM     25  N   UNL     1       4.892   3.598  12.878  0.00  0.00    +0.000 N 
ATOM     26  H   UNL     1       4.095   3.962  13.384  0.00  0.00    +0.000 HD
BRANCH  25  27
ATOM     27  C   UNL     1       4.685   2.842  11.637  0.00  0.00    +0.000 C 
BRANCH  27  28
ATOM     28  C   UNL     1       3.560   3.323  10.699  0.00  0.00    +0.000 C 
ATOM     29  F   UNL     1       3.386   4.664  10.719  0.00  0.00    +0.000 F 
ATOM     30  F   UNL     1       3.780   2.948   9.418  0.00  0.00    +0.000 F 
ATOM     31  F   UNL     1       2.376   2.772  11.068  0.00  0.00    +0.000 F 
ENDBRANCH  27  28
ENDBRANCH  25  27
ENDBRANCH  21  23
ENDBRANCH  20  21
ENDBRANCH  19  20
ENDBRANCH  11  14
BRANCH   4  32
ATOM     32  N   UNL     1       1.144   8.864  20.769  0.00  0.00    +0.000 NA
ATOM     33  S   UNL     1       0.335   9.874  19.962  0.00  0.00    +0.000 S 
ATOM     34  C   UNL     1       1.412  10.684  18.800  0.00  0.00    +0.000 C 
ATOM     35  C   UNL     1      -0.009  11.185  21.124  0.00  0.00    +0.000 C 
ATOM     36  O   UNL     1      -0.896   9.552  19.267  0.00  0.00    +0.000 OA
ENDBRANCH   4  32
TORSDOF 7
ENDMDL
MODEL 8
REMARK VINA RESULT:      -7.6      2.191      2.507
REMARK  Name = 
REMARK  11 active torsions:
REMARK  status: ('A' for Active; 'I' for Inactive)
REMARK    1  A    between atoms: C_1  and  C_2
REMARK    2  A    between atoms: C_4  and  N_5
REMARK    3  A    between atoms: S_6  and  C_7
REMARK    4  A    between atoms: S_6  and  C_8
REMARK    5  A    between atoms: N_16  and  C_17
REMARK    6  A    between atoms: C_22  and  O_23
REMARK    7  A    between atoms: O_23  and  C_24
REMARK    8  A    between atoms: C_24  and  C_25
REMARK    9  A    between atoms: C_24  and  C_26
REMARK   10  A    between atoms: N_28  and  C_29
REMARK   11  A    between atoms: C_29  and  C_30
REMARK                            x       y       z     vdW  Elec       q    Type
REMARK                         _______ _______ _______ _____ _____    ______ ____
ROOT
ATOM      1  C   UNL     1       3.817   7.019  17.587  0.00  0.00    +0.000 C 
ATOM      2  C   UNL     1       2.968   6.670  18.772  0.00  0.00    +0.000 A 
ATOM      3  C   UNL     1       2.361   7.788  19.334  0.00  0.00    +0.000 A 
ATOM      4  C   UNL     1       1.318   7.657  20.218  0.00  0.00    +0.000 A 
ATOM      5  C   UNL     1       0.975   6.394  20.671  0.00  0.00    +0.000 A 
ATOM      6  C   UNL     1       1.652   5.258  20.242  0.00  0.00    +0.000 A 
ATOM      7  N   UNL     1       1.239   4.105  20.782  0.00  0.00    +0.000 NA
ATOM      8  C   UNL     1       1.854   2.988  20.397  0.00  0.00    +0.000 A 
ATOM      9  N   UNL     1       2.874   2.919  19.544  0.00  0.00    +0.000 NA
ATOM     10  C   UNL     1       3.315   4.089  19.035  0.00  0.00    +0.000 A 
ATOM     11  N   UNL     1       4.457   3.913  18.232  0.00  0.00    +0.000 N 
ATOM     12  C   UNL     1       2.695   5.352  19.297  0.00  0.00    +0.000 A 
ATOM     13  H   UNL     1       4.719   2.930  18.342  0.00  0.00    +0.000 HD
ENDROOT
BRANCH  11  14
ATOM     14  C   UNL     1       5.595   4.739  18.188  0.00  0.00    +0.000 A 
ATOM     15  C   UNL     1       6.139   5.152  19.415  0.00  0.00    +0.000 A 
ATOM     16  C   UNL     1       7.415   5.701  19.449  0.00  0.00    +0.000 A 
ATOM     17  C   UNL     1       8.072   5.905  18.246  0.00  0.00    +0.000 A 
ATOM     18  N   UNL     1       7.530   5.641  17.033  0.00  0.00    +0.000 NA
ATOM     19  C   UNL     1       6.292   5.096  17.018  0.00  0.00    +0.000 A 
BRANCH  19  20
ATOM     20  O   UNL     1       5.725   4.737  15.808  0.00  0.00    +0.000 OA
BRANCH  20  21
ATOM     21  C   UNL     1       6.638   4.355  14.777  0.00  0.00    +0.000 C 
ATOM     22  C   UNL     1       7.383   5.569  14.223  0.00  0.00    +0.000 C 
BRANCH  21  23
ATOM     23  C   UNL     1       5.808   3.731  13.631  0.00  0.00    +0.000 C 
ATOM     24  O   UNL     1       4.620   3.984  13.436  0.00  0.00    +0.000 OA
ATOM     25  N   UNL     1       6.489   2.889  12.778  0.00  0.00    +0.000 N 
ATOM     26  H   UNL     1       7.448   2.639  12.983  0.00  0.00    +0.000 HD
BRANCH  25  27
ATOM     27  C   UNL     1       5.774   2.209  11.690  0.00  0.00    +0.000 C 
BRANCH  27  28
ATOM     28  C   UNL     1       6.538   1.107  10.929  0.00  0.00    +0.000 C 
ATOM     29  F   UNL     1       5.942  -0.104  11.002  0.00  0.00    +0.000 F 
ATOM     30  F   UNL     1       6.695   1.418   9.621  0.00  0.00    +0.000 F 
ATOM     31  F   UNL     1       7.785   0.960  11.445  0.00  0.00    +0.000 F 
ENDBRANCH  27  28
ENDBRANCH  25  27
ENDBRANCH  21  23
ENDBRANCH  20  21
ENDBRANCH  19  20
ENDBRANCH  11  14
BRANCH   4  32
ATOM     32  N   UNL     1       0.646   8.874  20.473  0.00  0.00    +0.000 NA
ATOM     33  S   UNL     1       0.540   9.612  21.804  0.00  0.00    +0.000 S 
ATOM     34  C   UNL     1      -0.629   8.765  22.845  0.00  0.00    +0.000 C 
ATOM     35  C   UNL     1      -0.342  11.112  21.402  0.00  0.00    +0.000 C 
ATOM     36  O   UNL     1       1.681   9.965  22.624  0.00  0.00    +0.000 OA
ENDBRANCH   4  32
TORSDOF 7
ENDMDL
MODEL 9
REMARK VINA RESULT:      -7.5      6.510     12.099
REMARK  Name = 
REMARK  11 active torsions:
REMARK  status: ('A' for Active; 'I' for Inactive)
REMARK    1  A    between atoms: C_1  and  C_2
REMARK    2  A    between atoms: C_4  and  N_5
REMARK    3  A    between atoms: S_6  and  C_7
REMARK    4  A    between atoms: S_6  and  C_8
REMARK    5  A    between atoms: N_16  and  C_17
REMARK    6  A    between atoms: C_22  and  O_23
REMARK    7  A    between atoms: O_23  and  C_24
REMARK    8  A    between atoms: C_24  and  C_25
REMARK    9  A    between atoms: C_24  and  C_26
REMARK   10  A    between atoms: N_28  and  C_29
REMARK   11  A    between atoms: C_29  and  C_30
REMARK                            x       y       z     vdW  Elec       q    Type
REMARK                         _______ _______ _______ _____ _____    ______ ____
ROOT
ATOM      1  C   UNL     1      -0.379  10.313  21.992  0.00  0.00    +0.000 C 
ATOM      2  C   UNL     1      -0.050  10.070  20.550  0.00  0.00    +0.000 A 
ATOM      3  C   UNL     1       1.119   9.331  20.392  0.00  0.00    +0.000 A 
ATOM      4  C   UNL     1       1.427   8.744  19.190  0.00  0.00    +0.000 A 
ATOM      5  C   UNL     1       0.642   9.025  18.083  0.00  0.00    +0.000 A 
ATOM      6  C   UNL     1      -0.455   9.874  18.166  0.00  0.00    +0.000 A 
ATOM      7  N   UNL     1      -1.108  10.084  17.016  0.00  0.00    +0.000 NA
ATOM      8  C   UNL     1      -2.170  10.886  17.046  0.00  0.00    +0.000 A 
ATOM      9  N   UNL     1      -2.624  11.531  18.118  0.00  0.00    +0.000 NA
ATOM     10  C   UNL     1      -1.937  11.352  19.267  0.00  0.00    +0.000 A 
ATOM     11  N   UNL     1      -2.436  12.158  20.306  0.00  0.00    +0.000 N 
ATOM     12  C   UNL     1      -0.829  10.454  19.396  0.00  0.00    +0.000 A 
ATOM     13  H   UNL     1      -3.136  12.763  19.870  0.00  0.00    +0.000 HD
ENDROOT
BRANCH  11  14
ATOM     14  C   UNL     1      -1.684  12.861  21.265  0.00  0.00    +0.000 A 
ATOM     15  C   UNL     1      -0.532  13.527  20.819  0.00  0.00    +0.000 A 
ATOM     16  C   UNL     1       0.073  14.475  21.635  0.00  0.00    +0.000 A 
ATOM     17  C   UNL     1      -0.439  14.662  22.910  0.00  0.00    +0.000 A 
ATOM     18  N   UNL     1      -1.468  13.947  23.426  0.00  0.00    +0.000 NA
ATOM     19  C   UNL     1      -2.052  13.037  22.613  0.00  0.00    +0.000 A 
BRANCH  19  20
ATOM     20  O   UNL     1      -3.155  12.336  23.066  0.00  0.00    +0.000 OA
BRANCH  20  21
ATOM     21  C   UNL     1      -4.121  13.092  23.798  0.00  0.00    +0.000 C 
ATOM     22  C   UNL     1      -4.554  12.354  25.065  0.00  0.00    +0.000 C 
BRANCH  21  23
ATOM     23  C   UNL     1      -5.361  13.262  22.890  0.00  0.00    +0.000 C 
ATOM     24  O   UNL     1      -6.199  14.150  23.042  0.00  0.00    +0.000 OA
ATOM     25  N   UNL     1      -5.469  12.378  21.838  0.00  0.00    +0.000 N 
ATOM     26  H   UNL     1      -4.809  11.615  21.758  0.00  0.00    +0.000 HD
BRANCH  25  27
ATOM     27  C   UNL     1      -6.638  12.428  20.951  0.00  0.00    +0.000 C 
BRANCH  27  28
ATOM     28  C   UNL     1      -6.763  11.316  19.890  0.00  0.00    +0.000 C 
ATOM     29  F   UNL     1      -7.016  10.098  20.420  0.00  0.00    +0.000 F 
ATOM     30  F   UNL     1      -7.735  11.591  18.989  0.00  0.00    +0.000 F 
ATOM     31  F   UNL     1      -5.605  11.205  19.191  0.00  0.00    +0.000 F 
ENDBRANCH  27  28
ENDBRANCH  25  27
ENDBRANCH  21  23
ENDBRANCH  20  21
ENDBRANCH  19  20
ENDBRANCH  11  14
BRANCH   4  32
ATOM     32  N   UNL     1       2.488   7.816  19.278  0.00  0.00    +0.000 NA
ATOM     33  S   UNL     1       2.410   6.301  19.116  0.00  0.00    +0.000 S 
ATOM     34  C   UNL     1       1.690   5.597  20.583  0.00  0.00    +0.000 C 
ATOM     35  C   UNL     1       4.107   5.761  19.241  0.00  0.00    +0.000 C 
ATOM     36  O   UNL     1       1.810   5.641  17.974  0.00  0.00    +0.000 OA
ENDBRANCH   4  32
TORSDOF 7
ENDMDL
