MODEL 1
REMARK VINA RESULT:      -8.1      0.000      0.000
REMARK  Name = 
REMARK  3 active torsions:
REMARK  status: ('A' for Active; 'I' for Inactive)
REMARK    1  A    between atoms: C_1  and  C_2
REMARK    2  A    between atoms: C_5  and  N_6
REMARK    3  A    between atoms: C_8  and  C_9
REMARK                            x       y       z     vdW  Elec       q    Type
REMARK                         _______ _______ _______ _____ _____    ______ ____
ROOT
ATOM      1  C   UNL     1       1.436   9.229  18.264  0.00  0.00    +0.000 C 
ATOM      2  O   UNL     1       1.587   9.897  17.243  0.00  0.00    +0.000 OA
ATOM      3  N   UNL     1       2.380   8.286  18.646  0.00  0.00    +0.000 N 
ATOM      4  C   UNL     1       2.243   7.332  19.733  0.00  0.00    +0.000 C 
ATOM      5  C   UNL     1       2.384   5.894  19.216  0.00  0.00    +0.000 C 
ATOM      6  C   UNL     1       3.688   5.693  18.382  0.00  0.00    +0.000 C 
ATOM      7  C   UNL     1       3.772   6.853  17.346  0.00  0.00    +0.000 C 
ATOM      8  C   UNL     1       3.652   8.217  17.950  0.00  0.00    +0.000 C 
ATOM      9  C   UNL     1       4.856   5.546  19.387  0.00  0.00    +0.000 C 
ATOM     10  C   UNL     1       6.064   4.828  18.821  0.00  0.00    +0.000 C 
ATOM     11  O   UNL     1       7.074   4.617  19.487  0.00  0.00    +0.000 OA
ATOM     12  C   UNL     1       6.009   4.486  17.392  0.00  0.00    +0.000 A 
ATOM     13  C   UNL     1       7.147   4.577  16.627  0.00  0.00    +0.000 A 
ATOM     14  C   UNL     1       7.027   4.709  15.243  0.00  0.00    +0.000 A 
ATOM     15  C   UNL     1       5.763   4.735  14.658  0.00  0.00    +0.000 A 
ATOM     16  C   UNL     1       4.614   4.499  15.432  0.00  0.00    +0.000 A 
ATOM     17  C   UNL     1       4.733   4.385  16.819  0.00  0.00    +0.000 A 
ATOM     18  O   UNL     1       3.603   4.464  17.607  0.00  0.00    +0.000 OA
ENDROOT
BRANCH   1  21
ATOM     19  N   UNL     1       0.179  11.818  19.698  0.00  0.00    +0.000 N 
ATOM     20  C   UNL     1       0.794  10.622  20.220  0.00  0.00    +0.000 C 
ATOM     21  C   UNL     1       0.328   9.529  19.287  0.00  0.00    +0.000 C 
ATOM     22  C   UNL     1      -1.061  10.031  18.869  0.00  0.00    +0.000 C 
ATOM     23  C   UNL     1      -0.963  11.525  18.942  0.00  0.00    +0.000 C 
ATOM     24  O   UNL     1      -1.783  12.274  18.442  0.00  0.00    +0.000 OA
BRANCH  19  29
ATOM     25  C   UNL     1       1.672  17.073  21.359  0.00  0.00    +0.000 C 
ATOM     26  C   UNL     1       1.308  15.687  20.929  0.00  0.00    +0.000 A 
ATOM     27  C   UNL     1       1.468  15.288  19.600  0.00  0.00    +0.000 A 
ATOM     28  C   UNL     1       1.123  14.005  19.206  0.00  0.00    +0.000 A 
ATOM     29  C   UNL     1       0.573  13.100  20.122  0.00  0.00    +0.000 A 
ATOM     30  C   UNL     1       0.411  13.502  21.452  0.00  0.00    +0.000 A 
ATOM     31  C   UNL     1       0.790  14.778  21.856  0.00  0.00    +0.000 A 
ENDBRANCH  19  29
ENDBRANCH   1  21
TORSDOF 2
ENDMDL
MODEL 2
REMARK VINA RESULT:      -7.6      5.686      8.314
REMARK  Name = 
REMARK  3 active torsions:
REMARK  status: ('A' for Active; 'I' for Inactive)
REMARK    1  A    between atoms: C_1  and  C_2
REMARK    2  A    between atoms: C_5  and  N_6
REMARK    3  A    between atoms: C_8  and  C_9
REMARK                            x       y       z     vdW  Elec       q    Type
REMARK                         _______ _______ _______ _____ _____    ______ ____
ROOT
ATOM      1  C   UNL     1       3.551  14.066  18.645  0.00  0.00    +0.000 C 
ATOM      2  O   UNL     1       3.436  13.217  17.763  0.00  0.00    +0.000 OA
ATOM      3  N   UNL     1       4.702  14.834  18.750  0.00  0.00    +0.000 N 
ATOM      4  C   UNL     1       5.022  15.751  19.831  0.00  0.00    +0.000 C 
ATOM      5  C   UNL     1       6.345  15.358  20.503  0.00  0.00    +0.000 C 
ATOM      6  C   UNL     1       7.505  15.195  19.472  0.00  0.00    +0.000 C 
ATOM      7  C   UNL     1       6.983  14.300  18.309  0.00  0.00    +0.000 C 
ATOM      8  C   UNL     1       5.703  14.779  17.700  0.00  0.00    +0.000 C 
ATOM      9  C   UNL     1       8.001  16.616  19.113  0.00  0.00    +0.000 C 
ATOM     10  C   UNL     1       9.416  16.653  18.574  0.00  0.00    +0.000 C 
ATOM     11  O   UNL     1       9.969  17.701  18.251  0.00  0.00    +0.000 OA
ATOM     12  C   UNL     1      10.065  15.352  18.357  0.00  0.00    +0.000 A 
ATOM     13  C   UNL     1      10.887  15.175  17.270  0.00  0.00    +0.000 A 
ATOM     14  C   UNL     1      11.126  13.883  16.802  0.00  0.00    +0.000 A 
ATOM     15  C   UNL     1      10.542  12.795  17.446  0.00  0.00    +0.000 A 
ATOM     16  C   UNL     1       9.820  12.975  18.639  0.00  0.00    +0.000 A 
ATOM     17  C   UNL     1       9.565  14.270  19.097  0.00  0.00    +0.000 A 
ATOM     18  O   UNL     1       8.614  14.469  20.075  0.00  0.00    +0.000 OA
ENDROOT
BRANCH   1  21
ATOM     19  N   UNL     1       0.693  12.871  19.509  0.00  0.00    +0.000 N 
ATOM     20  C   UNL     1       1.075  14.107  18.869  0.00  0.00    +0.000 C 
ATOM     21  C   UNL     1       2.375  14.485  19.542  0.00  0.00    +0.000 C 
ATOM     22  C   UNL     1       2.181  13.924  20.957  0.00  0.00    +0.000 C 
ATOM     23  C   UNL     1       1.272  12.746  20.778  0.00  0.00    +0.000 C 
ATOM     24  O   UNL     1       1.097  11.900  21.637  0.00  0.00    +0.000 OA
BRANCH  19  29
ATOM     25  C   UNL     1      -3.432   9.613  17.281  0.00  0.00    +0.000 C 
ATOM     26  C   UNL     1      -2.357  10.456  17.891  0.00  0.00    +0.000 A 
ATOM     27  C   UNL     1      -2.648  11.724  18.399  0.00  0.00    +0.000 A 
ATOM     28  C   UNL     1      -1.646  12.503  18.957  0.00  0.00    +0.000 A 
ATOM     29  C   UNL     1      -0.322  12.050  18.987  0.00  0.00    +0.000 A 
ATOM     30  C   UNL     1      -0.032  10.781  18.475  0.00  0.00    +0.000 A 
ATOM     31  C   UNL     1      -1.042   9.983  17.947  0.00  0.00    +0.000 A 
ENDBRANCH  19  29
ENDBRANCH   1  21
TORSDOF 2
ENDMDL
MODEL 3
REMARK VINA RESULT:      -7.4      3.073     10.211
REMARK  Name = 
REMARK  3 active torsions:
REMARK  status: ('A' for Active; 'I' for Inactive)
REMARK    1  A    between atoms: C_1  and  C_2
REMARK    2  A    between atoms: C_5  and  N_6
REMARK    3  A    between atoms: C_8  and  C_9
REMARK                            x       y       z     vdW  Elec       q    Type
REMARK                         _______ _______ _______ _____ _____    ______ ____
ROOT
ATOM      1  C   UNL     1      -0.163  11.392  19.523  0.00  0.00    +0.000 C 
ATOM      2  O   UNL     1       0.440  10.996  18.528  0.00  0.00    +0.000 OA
ATOM      3  N   UNL     1      -0.693  12.674  19.574  0.00  0.00    +0.000 N 
ATOM      4  C   UNL     1      -1.284  13.310  20.739  0.00  0.00    +0.000 C 
ATOM      5  C   UNL     1      -0.544  14.608  21.084  0.00  0.00    +0.000 C 
ATOM      6  C   UNL     1      -0.426  15.565  19.856  0.00  0.00    +0.000 C 
ATOM      7  C   UNL     1       0.094  14.726  18.650  0.00  0.00    +0.000 C 
ATOM      8  C   UNL     1      -0.709  13.494  18.376  0.00  0.00    +0.000 C 
ATOM      9  C   UNL     1      -1.792  16.275  19.697  0.00  0.00    +0.000 C 
ATOM     10  C   UNL     1      -1.716  17.584  18.938  0.00  0.00    +0.000 C 
ATOM     11  O   UNL     1      -2.706  18.282  18.732  0.00  0.00    +0.000 OA
ATOM     12  C   UNL     1      -0.407  17.932  18.367  0.00  0.00    +0.000 A 
ATOM     13  C   UNL     1      -0.343  18.549  17.141  0.00  0.00    +0.000 A 
ATOM     14  C   UNL     1       0.835  18.467  16.398  0.00  0.00    +0.000 A 
ATOM     15  C   UNL     1       1.929  17.774  16.913  0.00  0.00    +0.000 A 
ATOM     16  C   UNL     1       1.901  17.268  18.224  0.00  0.00    +0.000 A 
ATOM     17  C   UNL     1       0.716  17.336  18.960  0.00  0.00    +0.000 A 
ATOM     18  O   UNL     1       0.585  16.582  20.107  0.00  0.00    +0.000 OA
ENDROOT
BRANCH   1  21
ATOM     19  N   UNL     1       0.896   8.636  20.798  0.00  0.00    +0.000 N 
ATOM     20  C   UNL     1      -0.375   9.018  20.232  0.00  0.00    +0.000 C 
ATOM     21  C   UNL     1      -0.560  10.452  20.673  0.00  0.00    +0.000 C 
ATOM     22  C   UNL     1       0.157  10.467  22.031  0.00  0.00    +0.000 C 
ATOM     23  C   UNL     1       1.226   9.424  21.908  0.00  0.00    +0.000 C 
ATOM     24  O   UNL     1       2.157   9.325  22.688  0.00  0.00    +0.000 OA
BRANCH  19  29
ATOM     25  C   UNL     1       3.481   3.826  19.131  0.00  0.00    +0.000 C 
ATOM     26  C   UNL     1       2.826   5.092  19.586  0.00  0.00    +0.000 A 
ATOM     27  C   UNL     1       1.957   5.091  20.679  0.00  0.00    +0.000 A 
ATOM     28  C   UNL     1       1.347   6.264  21.092  0.00  0.00    +0.000 A 
ATOM     29  C   UNL     1       1.561   7.463  20.400  0.00  0.00    +0.000 A 
ATOM     30  C   UNL     1       2.430   7.462  19.303  0.00  0.00    +0.000 A 
ATOM     31  C   UNL     1       3.070   6.291  18.910  0.00  0.00    +0.000 A 
ENDBRANCH  19  29
ENDBRANCH   1  21
TORSDOF 2
ENDMDL
MODEL 4
REMARK VINA RESULT:      -7.4      1.732      9.730
REMARK  Name = 
REMARK  3 active torsions:
REMARK  status: ('A' for Active; 'I' for Inactive)
REMARK    1  A    between atoms: C_1  and  C_2
REMARK    2  A    between atoms: C_5  and  N_6
REMARK    3  A    between atoms: C_8  and  C_9
REMARK                            x       y       z     vdW  Elec       q    Type
REMARK                         _______ _______ _______ _____ _____    ______ ____
ROOT
ATOM      1  C   UNL     1       2.157   8.173  18.403  0.00  0.00    +0.000 C 
ATOM      2  O   UNL     1       2.625   8.580  17.342  0.00  0.00    +0.000 OA
ATOM      3  N   UNL     1       1.247   8.937  19.121  0.00  0.00    +0.000 N 
ATOM      4  C   UNL     1       0.745   8.641  20.452  0.00  0.00    +0.000 C 
ATOM      5  C   UNL     1       1.056   9.791  21.419  0.00  0.00    +0.000 C 
ATOM      6  C   UNL     1       0.569  11.170  20.871  0.00  0.00    +0.000 C 
ATOM      7  C   UNL     1       1.065  11.297  19.400  0.00  0.00    +0.000 C 
ATOM      8  C   UNL     1       0.690  10.140  18.529  0.00  0.00    +0.000 C 
ATOM      9  C   UNL     1      -0.957  11.247  21.120  0.00  0.00    +0.000 C 
ATOM     10  C   UNL     1      -1.500  12.661  21.158  0.00  0.00    +0.000 C 
ATOM     11  O   UNL     1      -2.688  12.903  21.356  0.00  0.00    +0.000 OA
ATOM     12  C   UNL     1      -0.547  13.734  20.840  0.00  0.00    +0.000 A 
ATOM     13  C   UNL     1      -0.967  14.824  20.117  0.00  0.00    +0.000 A 
ATOM     14  C   UNL     1      -0.025  15.590  19.430  0.00  0.00    +0.000 A 
ATOM     15  C   UNL     1       1.324  15.246  19.495  0.00  0.00    +0.000 A 
ATOM     16  C   UNL     1       1.758  14.218  20.349  0.00  0.00    +0.000 A 
ATOM     17  C   UNL     1       0.813  13.441  21.022  0.00  0.00    +0.000 A 
ATOM     18  O   UNL     1       1.201  12.254  21.607  0.00  0.00    +0.000 OA
ENDROOT
BRANCH   1  21
ATOM     19  N   UNL     1       4.059   5.682  17.685  0.00  0.00    +0.000 N 
ATOM     20  C   UNL     1       2.625   5.832  17.709  0.00  0.00    +0.000 C 
ATOM     21  C   UNL     1       2.367   6.732  18.895  0.00  0.00    +0.000 C 
ATOM     22  C   UNL     1       3.508   6.347  19.846  0.00  0.00    +0.000 C 
ATOM     23  C   UNL     1       4.624   5.914  18.946  0.00  0.00    +0.000 C 
ATOM     24  O   UNL     1       5.775   5.780  19.323  0.00  0.00    +0.000 OA
BRANCH  19  29
ATOM     25  C   UNL     1       6.660   3.422  13.133  0.00  0.00    +0.000 C 
ATOM     26  C   UNL     1       6.004   4.015  14.339  0.00  0.00    +0.000 A 
ATOM     27  C   UNL     1       5.503   3.195  15.353  0.00  0.00    +0.000 A 
ATOM     28  C   UNL     1       4.890   3.749  16.465  0.00  0.00    +0.000 A 
ATOM     29  C   UNL     1       4.729   5.135  16.576  0.00  0.00    +0.000 A 
ATOM     30  C   UNL     1       5.229   5.956  15.558  0.00  0.00    +0.000 A 
ATOM     31  C   UNL     1       5.876   5.402  14.458  0.00  0.00    +0.000 A 
ENDBRANCH  19  29
ENDBRANCH   1  21
TORSDOF 2
ENDMDL
MODEL 5
REMARK VINA RESULT:      -7.2      5.511      8.604
REMARK  Name = 
REMARK  3 active torsions:
REMARK  status: ('A' for Active; 'I' for Inactive)
REMARK    1  A    between atoms: C_1  and  C_2
REMARK    2  A    between atoms: C_5  and  N_6
REMARK    3  A    between atoms: C_8  and  C_9
REMARK                            x       y       z     vdW  Elec       q    Type
REMARK                         _______ _______ _______ _____ _____    ______ ____
ROOT
ATOM      1  C   UNL     1       3.879  15.019  18.770  0.00  0.00    +0.000 C 
ATOM      2  O   UNL     1       3.936  15.130  17.547  0.00  0.00    +0.000 OA
ATOM      3  N   UNL     1       3.187  13.970  19.360  0.00  0.00    +0.000 N 
ATOM      4  C   UNL     1       2.915  13.816  20.778  0.00  0.00    +0.000 C 
ATOM      5  C   UNL     1       1.405  13.727  21.036  0.00  0.00    +0.000 C 
ATOM      6  C   UNL     1       0.720  12.634  20.157  0.00  0.00    +0.000 C 
ATOM      7  C   UNL     1       1.199  12.837  18.689  0.00  0.00    +0.000 C 
ATOM      8  C   UNL     1       2.687  12.884  18.536  0.00  0.00    +0.000 C 
ATOM      9  C   UNL     1       1.010  11.266  20.821  0.00  0.00    +0.000 C 
ATOM     10  C   UNL     1       0.019  10.182  20.446  0.00  0.00    +0.000 C 
ATOM     11  O   UNL     1       0.096   9.041  20.892  0.00  0.00    +0.000 OA
ATOM     12  C   UNL     1      -0.985  10.539  19.434  0.00  0.00    +0.000 A 
ATOM     13  C   UNL     1      -1.371   9.606  18.501  0.00  0.00    +0.000 A 
ATOM     14  C   UNL     1      -1.938  10.037  17.302  0.00  0.00    +0.000 A 
ATOM     15  C   UNL     1      -2.116  11.400  17.073  0.00  0.00    +0.000 A 
ATOM     16  C   UNL     1      -1.850  12.335  18.087  0.00  0.00    +0.000 A 
ATOM     17  C   UNL     1      -1.265  11.904  19.280  0.00  0.00    +0.000 A 
ATOM     18  O   UNL     1      -0.722  12.832  20.144  0.00  0.00    +0.000 OA
ENDROOT
BRANCH   1  21
ATOM     19  N   UNL     1       6.983  15.309  19.559  0.00  0.00    +0.000 N 
ATOM     20  C   UNL     1       5.805  15.027  20.342  0.00  0.00    +0.000 C 
ATOM     21  C   UNL     1       4.729  15.883  19.715  0.00  0.00    +0.000 C 
ATOM     22  C   UNL     1       5.530  17.096  19.221  0.00  0.00    +0.000 C 
ATOM     23  C   UNL     1       6.895  16.556  18.925  0.00  0.00    +0.000 C 
ATOM     24  O   UNL     1       7.730  17.163  18.277  0.00  0.00    +0.000 OA
BRANCH  19  29
ATOM     25  C   UNL     1      11.611  11.996  19.991  0.00  0.00    +0.000 C 
ATOM     26  C   UNL     1      10.416  12.886  19.871  0.00  0.00    +0.000 A 
ATOM     27  C   UNL     1       9.957  13.616  20.970  0.00  0.00    +0.000 A 
ATOM     28  C   UNL     1       8.845  14.434  20.855  0.00  0.00    +0.000 A 
ATOM     29  C   UNL     1       8.140  14.515  19.648  0.00  0.00    +0.000 A 
ATOM     30  C   UNL     1       8.598  13.782  18.548  0.00  0.00    +0.000 A 
ATOM     31  C   UNL     1       9.736  12.987  18.654  0.00  0.00    +0.000 A 
ENDBRANCH  19  29
ENDBRANCH   1  21
TORSDOF 2
ENDMDL
MODEL 6
REMARK VINA RESULT:      -7.2      4.203     11.152
REMARK  Name = 
REMARK  3 active torsions:
REMARK  status: ('A' for Active; 'I' for Inactive)
REMARK    1  A    between atoms: C_1  and  C_2
REMARK    2  A    between atoms: C_5  and  N_6
REMARK    3  A    between atoms: C_8  and  C_9
REMARK                            x       y       z     vdW  Elec       q    Type
REMARK                         _______ _______ _______ _____ _____    ______ ____
ROOT
ATOM      1  C   UNL     1      -0.493  10.763  21.884  0.00  0.00    +0.000 C 
ATOM      2  O   UNL     1      -0.867   9.684  22.340  0.00  0.00    +0.000 OA
ATOM      3  N   UNL     1      -1.171  11.937  22.182  0.00  0.00    +0.000 N 
ATOM      4  C   UNL     1      -0.926  13.240  21.586  0.00  0.00    +0.000 C 
ATOM      5  C   UNL     1      -2.195  13.777  20.912  0.00  0.00    +0.000 C 
ATOM      6  C   UNL     1      -3.426  13.761  21.872  0.00  0.00    +0.000 C 
ATOM      7  C   UNL     1      -3.491  12.354  22.536  0.00  0.00    +0.000 C 
ATOM      8  C   UNL     1      -2.215  11.931  23.191  0.00  0.00    +0.000 C 
ATOM      9  C   UNL     1      -3.291  14.988  22.807  0.00  0.00    +0.000 C 
ATOM     10  C   UNL     1      -4.602  15.439  23.417  0.00  0.00    +0.000 C 
ATOM     11  O   UNL     1      -4.677  16.404  24.173  0.00  0.00    +0.000 OA
ATOM     12  C   UNL     1      -5.774  14.597  23.139  0.00  0.00    +0.000 A 
ATOM     13  C   UNL     1      -6.716  14.397  24.120  0.00  0.00    +0.000 A 
ATOM     14  C   UNL     1      -7.550  13.281  24.046  0.00  0.00    +0.000 A 
ATOM     15  C   UNL     1      -7.425  12.396  22.978  0.00  0.00    +0.000 A 
ATOM     16  C   UNL     1      -6.559  12.683  21.910  0.00  0.00    +0.000 A 
ATOM     17  C   UNL     1      -5.712  13.791  21.993  0.00  0.00    +0.000 A 
ATOM     18  O   UNL     1      -4.658  13.908  21.111  0.00  0.00    +0.000 OA
ENDROOT
BRANCH   1  21
ATOM     19  N   UNL     1       1.439   8.949  20.063  0.00  0.00    +0.000 N 
ATOM     20  C   UNL     1       1.656   9.657  21.301  0.00  0.00    +0.000 C 
ATOM     21  C   UNL     1       0.847  10.925  21.149  0.00  0.00    +0.000 C 
ATOM     22  C   UNL     1       0.929  11.180  19.637  0.00  0.00    +0.000 C 
ATOM     23  C   UNL     1       1.068   9.818  19.029  0.00  0.00    +0.000 C 
ATOM     24  O   UNL     1       0.907   9.596  17.841  0.00  0.00    +0.000 OA
BRANCH  19  29
ATOM     25  C   UNL     1       2.787   3.442  19.395  0.00  0.00    +0.000 C 
ATOM     26  C   UNL     1       2.458   4.888  19.586  0.00  0.00    +0.000 A 
ATOM     27  C   UNL     1       1.683   5.305  20.671  0.00  0.00    +0.000 A 
ATOM     28  C   UNL     1       1.375   6.645  20.840  0.00  0.00    +0.000 A 
ATOM     29  C   UNL     1       1.802   7.599  19.908  0.00  0.00    +0.000 A 
ATOM     30  C   UNL     1       2.576   7.180  18.820  0.00  0.00    +0.000 A 
ATOM     31  C   UNL     1       2.916   5.839  18.670  0.00  0.00    +0.000 A 
ENDBRANCH  19  29
ENDBRANCH   1  21
TORSDOF 2
ENDMDL
MODEL 7
REMARK VINA RESULT:      -7.2      1.700      9.759
REMARK  Name = 
REMARK  3 active torsions:
REMARK  status: ('A' for Active; 'I' for Inactive)
REMARK    1  A    between atoms: C_1  and  C_2
REMARK    2  A    between atoms: C_5  and  N_6
REMARK    3  A    between atoms: C_8  and  C_9
REMARK                            x       y       z     vdW  Elec       q    Type
REMARK                         _______ _______ _______ _____ _____    ______ ____
ROOT
ATOM      1  C   UNL     1       2.142   8.471  18.707  0.00  0.00    +0.000 C 
ATOM      2  O   UNL     1       2.924   8.928  17.877  0.00  0.00    +0.000 OA
ATOM      3  N   UNL     1       1.124   9.254  19.236  0.00  0.00    +0.000 N 
ATOM      4  C   UNL     1       0.241   8.884  20.328  0.00  0.00    +0.000 C 
ATOM      5  C   UNL     1       0.346   9.894  21.478  0.00  0.00    +0.000 C 
ATOM      6  C   UNL     1       0.141  11.364  20.993  0.00  0.00    +0.000 C 
ATOM      7  C   UNL     1       1.047  11.581  19.745  0.00  0.00    +0.000 C 
ATOM      8  C   UNL     1       0.852  10.562  18.667  0.00  0.00    +0.000 C 
ATOM      9  C   UNL     1      -1.382  11.579  20.818  0.00  0.00    +0.000 C 
ATOM     10  C   UNL     1      -1.805  13.032  20.879  0.00  0.00    +0.000 C 
ATOM     11  O   UNL     1      -2.979  13.380  20.770  0.00  0.00    +0.000 OA
ATOM     12  C   UNL     1      -0.724  14.023  20.973  0.00  0.00    +0.000 A 
ATOM     13  C   UNL     1      -0.836  15.218  20.304  0.00  0.00    +0.000 A 
ATOM     14  C   UNL     1       0.318  15.942  20.005  0.00  0.00    +0.000 A 
ATOM     15  C   UNL     1       1.562  15.452  20.398  0.00  0.00    +0.000 A 
ATOM     16  C   UNL     1       1.655  14.304  21.204  0.00  0.00    +0.000 A 
ATOM     17  C   UNL     1       0.500  13.570  21.487  0.00  0.00    +0.000 A 
ATOM     18  O   UNL     1       0.615  12.297  22.004  0.00  0.00    +0.000 OA
ENDROOT
BRANCH   1  21
ATOM     19  N   UNL     1       3.744   5.803  17.901  0.00  0.00    +0.000 N 
ATOM     20  C   UNL     1       2.350   6.163  17.807  0.00  0.00    +0.000 C 
ATOM     21  C   UNL     1       2.093   6.975  19.055  0.00  0.00    +0.000 C 
ATOM     22  C   UNL     1       3.059   6.334  20.062  0.00  0.00    +0.000 C 
ATOM     23  C   UNL     1       4.195   5.826  19.227  0.00  0.00    +0.000 C 
ATOM     24  O   UNL     1       5.268   5.484  19.694  0.00  0.00    +0.000 OA
BRANCH  19  29
ATOM     25  C   UNL     1       6.714   3.672  13.516  0.00  0.00    +0.000 C 
ATOM     26  C   UNL     1       5.912   4.231  14.648  0.00  0.00    +0.000 A 
ATOM     27  C   UNL     1       5.804   5.612  14.831  0.00  0.00    +0.000 A 
ATOM     28  C   UNL     1       5.066   6.124  15.885  0.00  0.00    +0.000 A 
ATOM     29  C   UNL     1       4.447   5.270  16.806  0.00  0.00    +0.000 A 
ATOM     30  C   UNL     1       4.559   3.887  16.623  0.00  0.00    +0.000 A 
ATOM     31  C   UNL     1       5.270   3.372  15.545  0.00  0.00    +0.000 A 
ENDBRANCH  19  29
ENDBRANCH   1  21
TORSDOF 2
ENDMDL
MODEL 8
REMARK VINA RESULT:      -7.1      6.215      8.191
REMARK  Name = 
REMARK  3 active torsions:
REMARK  status: ('A' for Active; 'I' for Inactive)
REMARK    1  A    between atoms: C_1  and  C_2
REMARK    2  A    between atoms: C_5  and  N_6
REMARK    3  A    between atoms: C_8  and  C_9
REMARK                            x       y       z     vdW  Elec       q    Type
REMARK                         _______ _______ _______ _____ _____    ______ ____
ROOT
ATOM      1  C   UNL     1       3.303  14.407  18.901  0.00  0.00    +0.000 C 
ATOM      2  O   UNL     1       3.095  13.445  18.165  0.00  0.00    +0.000 OA
ATOM      3  N   UNL     1       4.512  15.089  18.861  0.00  0.00    +0.000 N 
ATOM      4  C   UNL     1       4.935  16.132  19.779  0.00  0.00    +0.000 C 
ATOM      5  C   UNL     1       6.246  15.743  20.476  0.00  0.00    +0.000 C 
ATOM      6  C   UNL     1       7.356  15.332  19.459  0.00  0.00    +0.000 C 
ATOM      7  C   UNL     1       6.730  14.314  18.460  0.00  0.00    +0.000 C 
ATOM      8  C   UNL     1       5.470  14.794  17.812  0.00  0.00    +0.000 C 
ATOM      9  C   UNL     1       7.945  16.638  18.873  0.00  0.00    +0.000 C 
ATOM     10  C   UNL     1       9.341  16.479  18.305  0.00  0.00    +0.000 C 
ATOM     11  O   UNL     1       9.960  17.418  17.811  0.00  0.00    +0.000 OA
ATOM     12  C   UNL     1       9.882  15.113  18.280  0.00  0.00    +0.000 A 
ATOM     13  C   UNL     1      10.652  14.706  17.217  0.00  0.00    +0.000 A 
ATOM     14  C   UNL     1      10.778  13.342  16.950  0.00  0.00    +0.000 A 
ATOM     15  C   UNL     1      10.134  12.416  17.768  0.00  0.00    +0.000 A 
ATOM     16  C   UNL     1       9.468  12.834  18.932  0.00  0.00    +0.000 A 
ATOM     17  C   UNL     1       9.327  14.200  19.189  0.00  0.00    +0.000 A 
ATOM     18  O   UNL     1       8.426  14.622  20.144  0.00  0.00    +0.000 OA
ENDROOT
BRANCH   1  21
ATOM     19  N   UNL     1       0.292  13.702  19.783  0.00  0.00    +0.000 N 
ATOM     20  C   UNL     1       0.858  14.824  19.074  0.00  0.00    +0.000 C 
ATOM     21  C   UNL     1       2.192  15.051  19.746  0.00  0.00    +0.000 C 
ATOM     22  C   UNL     1       1.904  14.619  21.190  0.00  0.00    +0.000 C 
ATOM     23  C   UNL     1       0.834  13.577  21.069  0.00  0.00    +0.000 C 
ATOM     24  O   UNL     1       0.528  12.823  21.976  0.00  0.00    +0.000 OA
BRANCH  19  29
ATOM     25  C   UNL     1      -4.193  10.756  17.833  0.00  0.00    +0.000 C 
ATOM     26  C   UNL     1      -3.027  11.551  18.329  0.00  0.00    +0.000 A 
ATOM     27  C   UNL     1      -1.832  11.589  17.607  0.00  0.00    +0.000 A 
ATOM     28  C   UNL     1      -0.752  12.321  18.075  0.00  0.00    +0.000 A 
ATOM     29  C   UNL     1      -0.827  13.005  19.294  0.00  0.00    +0.000 A 
ATOM     30  C   UNL     1      -2.024  12.964  20.018  0.00  0.00    +0.000 A 
ATOM     31  C   UNL     1      -3.120  12.258  19.531  0.00  0.00    +0.000 A 
ENDBRANCH  19  29
ENDBRANCH   1  21
TORSDOF 2
ENDMDL
MODEL 9
REMARK VINA RESULT:      -7.1      6.357      8.379
REMARK  Name = 
REMARK  3 active torsions:
REMARK  status: ('A' for Active; 'I' for Inactive)
REMARK    1  A    between atoms: C_1  and  C_2
REMARK    2  A    between atoms: C_5  and  N_6
REMARK    3  A    between atoms: C_8  and  C_9
REMARK                            x       y       z     vdW  Elec       q    Type
REMARK                         _______ _______ _______ _____ _____    ______ ____
ROOT
ATOM      1  C   UNL     1       4.088  14.815  18.739  0.00  0.00    +0.000 C 
ATOM      2  O   UNL     1       3.784  13.720  18.272  0.00  0.00    +0.000 OA
ATOM      3  N   UNL     1       5.347  15.360  18.522  0.00  0.00    +0.000 N 
ATOM      4  C   UNL     1       5.877  16.561  19.144  0.00  0.00    +0.000 C 
ATOM      5  C   UNL     1       7.169  16.251  19.911  0.00  0.00    +0.000 C 
ATOM      6  C   UNL     1       8.216  15.503  19.027  0.00  0.00    +0.000 C 
ATOM      7  C   UNL     1       7.484  14.323  18.323  0.00  0.00    +0.000 C 
ATOM      8  C   UNL     1       6.251  14.729  17.579  0.00  0.00    +0.000 C 
ATOM      9  C   UNL     1       8.893  16.564  18.127  0.00  0.00    +0.000 C 
ATOM     10  C   UNL     1      10.257  16.148  17.612  0.00  0.00    +0.000 C 
ATOM     11  O   UNL     1      10.937  16.876  16.893  0.00  0.00    +0.000 OA
ATOM     12  C   UNL     1      10.685  14.779  17.932  0.00  0.00    +0.000 A 
ATOM     13  C   UNL     1      11.391  14.053  17.004  0.00  0.00    +0.000 A 
ATOM     14  C   UNL     1      11.400  12.661  17.092  0.00  0.00    +0.000 A 
ATOM     15  C   UNL     1      10.704  12.030  18.121  0.00  0.00    +0.000 A 
ATOM     16  C   UNL     1      10.104  12.783  19.144  0.00  0.00    +0.000 A 
ATOM     17  C   UNL     1      10.081  14.177  19.046  0.00  0.00    +0.000 A 
ATOM     18  O   UNL     1       9.242  14.901  19.866  0.00  0.00    +0.000 OA
ENDROOT
BRANCH   1  21
ATOM     19  N   UNL     1       1.096  14.583  19.894  0.00  0.00    +0.000 N 
ATOM     20  C   UNL     1       1.678  15.414  18.868  0.00  0.00    +0.000 C 
ATOM     21  C   UNL     1       3.055  15.744  19.398  0.00  0.00    +0.000 C 
ATOM     22  C   UNL     1       2.820  15.767  20.914  0.00  0.00    +0.000 C 
ATOM     23  C   UNL     1       1.696  14.803  21.140  0.00  0.00    +0.000 C 
ATOM     24  O   UNL     1       1.400  14.365  22.238  0.00  0.00    +0.000 OA
BRANCH  19  29
ATOM     25  C   UNL     1      -3.736  11.696  18.936  0.00  0.00    +0.000 C 
ATOM     26  C   UNL     1      -2.461  12.431  19.205  0.00  0.00    +0.000 A 
ATOM     27  C   UNL     1      -2.370  13.335  20.266  0.00  0.00    +0.000 A 
ATOM     28  C   UNL     1      -1.189  14.018  20.507  0.00  0.00    +0.000 A 
ATOM     29  C   UNL     1      -0.080  13.845  19.670  0.00  0.00    +0.000 A 
ATOM     30  C   UNL     1      -0.174  12.941  18.605  0.00  0.00    +0.000 A 
ATOM     31  C   UNL     1      -1.348  12.228  18.385  0.00  0.00    +0.000 A 
ENDBRANCH  19  29
ENDBRANCH   1  21
TORSDOF 2
ENDMDL
