MODEL 1
REMARK VINA RESULT:      -6.7      0.000      0.000
REMARK  Name = 
REMARK  14 active torsions:
REMARK  status: ('A' for Active; 'I' for Inactive)
REMARK    1  A    between atoms: C_1  and  O_2
REMARK    2  A    between atoms: O_2  and  C_3
REMARK    3  A    between atoms: C_3  and  C_4
REMARK    4  A    between atoms: C_3  and  O_33
REMARK    5  A    between atoms: C_4  and  N_5
REMARK    6  A    between atoms: C_6  and  S_7
REMARK    7  A    between atoms: S_7  and  C_8
REMARK    8  A    between atoms: C_8  and  C_9
REMARK    9  A    between atoms: C_9  and  C_10
REMARK   10  A    between atoms: C_10  and  O_12
REMARK   11  A    between atoms: C_14  and  C_15
REMARK   12  A    between atoms: C_22  and  C_23
REMARK   13  A    between atoms: C_29  and  C_30
REMARK   14  A    between atoms: O_33  and  C_34
REMARK                            x       y       z     vdW  Elec       q    Type
REMARK                         _______ _______ _______ _____ _____    ______ ____
ROOT
ATOM      1  N   UNL     1       5.485   6.189  17.389  0.00  0.00    +0.000 N 
ATOM      2  C   UNL     1       5.947   4.883  17.230  0.00  0.00    +0.000 A 
ATOM      3  N   UNL     1       5.110   4.010  17.727  0.00  0.00    +0.000 NA
ATOM      4  C   UNL     1       4.028   4.739  18.153  0.00  0.00    +0.000 A 
ATOM      5  C   UNL     1       4.205   6.112  17.966  0.00  0.00    +0.000 A 
ENDROOT
BRANCH   5   6
ATOM      6  C   UNL     1       3.306   7.238  18.310  0.00  0.00    +0.000 A 
ATOM      7  C   UNL     1       2.968   8.235  17.394  0.00  0.00    +0.000 A 
ATOM      8  C   UNL     1       2.091   9.238  17.788  0.00  0.00    +0.000 A 
ATOM      9  N   UNL     1       1.489   9.281  18.992  0.00  0.00    +0.000 NA
ATOM     10  C   UNL     1       1.742   8.286  19.853  0.00  0.00    +0.000 A 
ATOM     11  N   UNL     1       1.023   8.166  21.044  0.00  0.00    +0.000 N 
ATOM     12  C   UNL     1       0.039   8.930  21.580  0.00  0.00    +0.000 C 
ATOM     13  C   UNL     1      -0.403  10.234  20.972  0.00  0.00    +0.000 C 
ATOM     14  O   UNL     1      -0.476   8.543  22.638  0.00  0.00    +0.000 OA
ATOM     15  C   UNL     1       2.672   7.285  19.563  0.00  0.00    +0.000 A 
ATOM     16  H   UNL     1       1.194   7.337  21.603  0.00  0.00    +0.000 HD
ENDBRANCH   5   6
BRANCH   4  17
ATOM     17  C   UNL     1       2.855   4.071  18.692  0.00  0.00    +0.000 A 
ATOM     18  C   UNL     1       1.786   3.768  17.836  0.00  0.00    +0.000 A 
ATOM     19  C   UNL     1       0.650   3.128  18.328  0.00  0.00    +0.000 A 
ATOM     20  C   UNL     1       0.579   2.795  19.676  0.00  0.00    +0.000 A 
ATOM     21  F   UNL     1      -0.511   2.178  20.147  0.00  0.00    +0.000 F 
ATOM     22  C   UNL     1       1.622   3.091  20.545  0.00  0.00    +0.000 A 
ATOM     23  C   UNL     1       2.755   3.749  20.053  0.00  0.00    +0.000 A 
ENDBRANCH   4  17
BRANCH   1  24
ATOM     24  C   UNL     1       6.135   7.421  16.948  0.00  0.00    +0.000 C 
BRANCH  24  25
ATOM     25  C   UNL     1       7.157   8.030  17.939  0.00  0.00    +0.000 C 
BRANCH  25  27
ATOM     26  C   UNL     1       8.678   9.866  18.311  0.00  0.00    +0.000 C 
ATOM     27  O   UNL     1       7.647   9.309  17.510  0.00  0.00    +0.000 OA
ENDBRANCH  25  27
BRANCH  25  28
ATOM     28  O   UNL     1       8.260   7.137  18.153  0.00  0.00    +0.000 OA
ATOM     29  C   UNL     1       8.144   6.353  19.332  0.00  0.00    +0.000 C 
ENDBRANCH  25  28
ENDBRANCH  24  25
ENDBRANCH   1  24
BRANCH   2  30
ATOM     30  S   UNL     1       7.341   4.407  16.305  0.00  0.00    +0.000 S 
BRANCH  30  31
ATOM     31  C   UNL     1       6.920   4.761  14.546  0.00  0.00    +0.000 C 
BRANCH  31  32
ATOM     32  C   UNL     1       5.948   3.860  13.785  0.00  0.00    +0.000 C 
BRANCH  32  33
ATOM     33  C   UNL     1       6.407   3.473  12.404  0.00  0.00    +0.000 C 
ATOM     34  O   UNL     1       7.207   4.115  11.740  0.00  0.00    +0.000 OA
BRANCH  33  35
ATOM     35  O   UNL     1       5.862   2.313  11.970  0.00  0.00    +0.000 OA
ATOM     36  H   UNL     1       6.441   1.825  11.352  0.00  0.00    +0.000 HD
ENDBRANCH  33  35
ENDBRANCH  32  33
ENDBRANCH  31  32
ENDBRANCH  30  31
ENDBRANCH   2  30
TORSDOF 11
ENDMDL
MODEL 2
REMARK VINA RESULT:      -6.5      0.942      1.434
REMARK  Name = 
REMARK  14 active torsions:
REMARK  status: ('A' for Active; 'I' for Inactive)
REMARK    1  A    between atoms: C_1  and  O_2
REMARK    2  A    between atoms: O_2  and  C_3
REMARK    3  A    between atoms: C_3  and  C_4
REMARK    4  A    between atoms: C_3  and  O_33
REMARK    5  A    between atoms: C_4  and  N_5
REMARK    6  A    between atoms: C_6  and  S_7
REMARK    7  A    between atoms: S_7  and  C_8
REMARK    8  A    between atoms: C_8  and  C_9
REMARK    9  A    between atoms: C_9  and  C_10
REMARK   10  A    between atoms: C_10  and  O_12
REMARK   11  A    between atoms: C_14  and  C_15
REMARK   12  A    between atoms: C_22  and  C_23
REMARK   13  A    between atoms: C_29  and  C_30
REMARK   14  A    between atoms: O_33  and  C_34
REMARK                            x       y       z     vdW  Elec       q    Type
REMARK                         _______ _______ _______ _____ _____    ______ ____
ROOT
ATOM      1  N   UNL     1       5.081   5.767  17.075  0.00  0.00    +0.000 N 
ATOM      2  C   UNL     1       5.513   4.444  16.992  0.00  0.00    +0.000 A 
ATOM      3  N   UNL     1       4.877   3.674  17.837  0.00  0.00    +0.000 NA
ATOM      4  C   UNL     1       3.944   4.480  18.438  0.00  0.00    +0.000 A 
ATOM      5  C   UNL     1       4.022   5.804  18.000  0.00  0.00    +0.000 A 
ENDROOT
BRANCH   5   6
ATOM      6  C   UNL     1       3.230   6.987  18.410  0.00  0.00    +0.000 A 
ATOM      7  C   UNL     1       2.969   8.051  17.547  0.00  0.00    +0.000 A 
ATOM      8  C   UNL     1       2.188   9.107  18.002  0.00  0.00    +0.000 A 
ATOM      9  N   UNL     1       1.607   9.145  19.217  0.00  0.00    +0.000 NA
ATOM     10  C   UNL     1       1.783   8.091  20.026  0.00  0.00    +0.000 A 
ATOM     11  N   UNL     1       1.072   7.978  21.222  0.00  0.00    +0.000 N 
ATOM     12  C   UNL     1       0.165   8.799  21.809  0.00  0.00    +0.000 C 
ATOM     13  C   UNL     1      -0.169  10.163  21.270  0.00  0.00    +0.000 C 
ATOM     14  O   UNL     1      -0.368   8.407  22.857  0.00  0.00    +0.000 OA
ATOM     15  C   UNL     1       2.618   7.029  19.674  0.00  0.00    +0.000 A 
ATOM     16  H   UNL     1       1.176   7.112  21.740  0.00  0.00    +0.000 HD
ENDBRANCH   5   6
BRANCH   4  17
ATOM     17  C   UNL     1       2.993   3.925  19.387  0.00  0.00    +0.000 A 
ATOM     18  C   UNL     1       1.679   3.669  18.968  0.00  0.00    +0.000 A 
ATOM     19  C   UNL     1       0.747   3.137  19.859  0.00  0.00    +0.000 A 
ATOM     20  C   UNL     1       1.127   2.867  21.169  0.00  0.00    +0.000 A 
ATOM     21  F   UNL     1       0.234   2.353  22.023  0.00  0.00    +0.000 F 
ATOM     22  C   UNL     1       2.421   3.118  21.609  0.00  0.00    +0.000 A 
ATOM     23  C   UNL     1       3.350   3.668  20.718  0.00  0.00    +0.000 A 
ENDBRANCH   4  17
BRANCH   1  24
ATOM     24  C   UNL     1       5.544   6.904  16.282  0.00  0.00    +0.000 C 
BRANCH  24  25
ATOM     25  C   UNL     1       6.921   7.485  16.686  0.00  0.00    +0.000 C 
BRANCH  25  27
ATOM     26  C   UNL     1       7.848   6.437  18.652  0.00  0.00    +0.000 C 
ATOM     27  O   UNL     1       7.799   6.491  17.235  0.00  0.00    +0.000 OA
ENDBRANCH  25  27
BRANCH  25  28
ATOM     28  O   UNL     1       6.771   8.565  17.619  0.00  0.00    +0.000 OA
ATOM     29  C   UNL     1       7.924   9.386  17.737  0.00  0.00    +0.000 C 
ENDBRANCH  25  28
ENDBRANCH  24  25
ENDBRANCH   1  24
BRANCH   2  30
ATOM     30  S   UNL     1       6.596   3.805  15.789  0.00  0.00    +0.000 S 
BRANCH  30  31
ATOM     31  C   UNL     1       5.742   4.036  14.172  0.00  0.00    +0.000 C 
BRANCH  31  32
ATOM     32  C   UNL     1       6.427   3.625  12.870  0.00  0.00    +0.000 C 
BRANCH  32  33
ATOM     33  C   UNL     1       5.549   2.855  11.919  0.00  0.00    +0.000 C 
ATOM     34  O   UNL     1       4.497   3.276  11.461  0.00  0.00    +0.000 OA
BRANCH  33  35
ATOM     35  O   UNL     1       6.054   1.643  11.594  0.00  0.00    +0.000 OA
ATOM     36  H   UNL     1       6.164   1.053  12.366  0.00  0.00    +0.000 HD
ENDBRANCH  33  35
ENDBRANCH  32  33
ENDBRANCH  31  32
ENDBRANCH  30  31
ENDBRANCH   2  30
TORSDOF 11
ENDMDL
MODEL 3
REMARK VINA RESULT:      -6.5      0.288      1.198
REMARK  Name = 
REMARK  14 active torsions:
REMARK  status: ('A' for Active; 'I' for Inactive)
REMARK    1  A    between atoms: C_1  and  O_2
REMARK    2  A    between atoms: O_2  and  C_3
REMARK    3  A    between atoms: C_3  and  C_4
REMARK    4  A    between atoms: C_3  and  O_33
REMARK    5  A    between atoms: C_4  and  N_5
REMARK    6  A    between atoms: C_6  and  S_7
REMARK    7  A    between atoms: S_7  and  C_8
REMARK    8  A    between atoms: C_8  and  C_9
REMARK    9  A    between atoms: C_9  and  C_10
REMARK   10  A    between atoms: C_10  and  O_12
REMARK   11  A    between atoms: C_14  and  C_15
REMARK   12  A    between atoms: C_22  and  C_23
REMARK   13  A    between atoms: C_29  and  C_30
REMARK   14  A    between atoms: O_33  and  C_34
REMARK                            x       y       z     vdW  Elec       q    Type
REMARK                         _______ _______ _______ _____ _____    ______ ____
ROOT
ATOM      1  N   UNL     1       5.472   6.128  17.330  0.00  0.00    +0.000 N 
ATOM      2  C   UNL     1       5.913   4.818  17.146  0.00  0.00    +0.000 A 
ATOM      3  N   UNL     1       5.071   3.949  17.643  0.00  0.00    +0.000 NA
ATOM      4  C   UNL     1       4.007   4.687  18.094  0.00  0.00    +0.000 A 
ATOM      5  C   UNL     1       4.199   6.060  17.925  0.00  0.00    +0.000 A 
ENDROOT
BRANCH   5   6
ATOM      6  C   UNL     1       3.322   7.194  18.298  0.00  0.00    +0.000 A 
ATOM      7  C   UNL     1       3.036   8.241  17.422  0.00  0.00    +0.000 A 
ATOM      8  C   UNL     1       2.175   9.249  17.840  0.00  0.00    +0.000 A 
ATOM      9  N   UNL     1       1.541   9.252  19.028  0.00  0.00    +0.000 NA
ATOM     10  C   UNL     1       1.744   8.211  19.847  0.00  0.00    +0.000 A 
ATOM     11  N   UNL     1       0.990   8.056  21.012  0.00  0.00    +0.000 N 
ATOM     12  C   UNL     1       0.012   8.822  21.557  0.00  0.00    +0.000 C 
ATOM     13  C   UNL     1      -0.379  10.164  21.000  0.00  0.00    +0.000 C 
ATOM     14  O   UNL     1      -0.542   8.400  22.582  0.00  0.00    +0.000 OA
ATOM     15  C   UNL     1       2.655   7.200  19.534  0.00  0.00    +0.000 A 
ATOM     16  H   UNL     1       1.123   7.197  21.535  0.00  0.00    +0.000 HD
ENDBRANCH   5   6
BRANCH   4  17
ATOM     17  C   UNL     1       2.832   4.028  18.641  0.00  0.00    +0.000 A 
ATOM     18  C   UNL     1       1.730   3.789  17.806  0.00  0.00    +0.000 A 
ATOM     19  C   UNL     1       0.592   3.159  18.306  0.00  0.00    +0.000 A 
ATOM     20  C   UNL     1       0.552   2.771  19.641  0.00  0.00    +0.000 A 
ATOM     21  F   UNL     1      -0.540   2.163  20.120  0.00  0.00    +0.000 F 
ATOM     22  C   UNL     1       1.628   3.003  20.489  0.00  0.00    +0.000 A 
ATOM     23  C   UNL     1       2.764   3.651  19.990  0.00  0.00    +0.000 A 
ENDBRANCH   4  17
BRANCH   1  24
ATOM     24  C   UNL     1       6.133   7.357  16.897  0.00  0.00    +0.000 C 
BRANCH  24  25
ATOM     25  C   UNL     1       7.579   7.557  17.413  0.00  0.00    +0.000 C 
BRANCH  25  27
ATOM     26  C   UNL     1       8.150   6.020  19.183  0.00  0.00    +0.000 C 
ATOM     27  O   UNL     1       7.700   7.316  18.823  0.00  0.00    +0.000 OA
ENDBRANCH  25  27
BRANCH  25  28
ATOM     28  O   UNL     1       8.057   8.875  17.105  0.00  0.00    +0.000 OA
ATOM     29  C   UNL     1       8.487   9.609  18.243  0.00  0.00    +0.000 C 
ENDBRANCH  25  28
ENDBRANCH  24  25
ENDBRANCH   1  24
BRANCH   2  30
ATOM     30  S   UNL     1       7.287   4.336  16.193  0.00  0.00    +0.000 S 
BRANCH  30  31
ATOM     31  C   UNL     1       6.840   4.708  14.444  0.00  0.00    +0.000 C 
BRANCH  31  32
ATOM     32  C   UNL     1       5.748   3.907  13.737  0.00  0.00    +0.000 C 
BRANCH  32  33
ATOM     33  C   UNL     1       6.122   3.421  12.362  0.00  0.00    +0.000 C 
ATOM     34  O   UNL     1       5.529   2.538  11.760  0.00  0.00    +0.000 OA
BRANCH  33  35
ATOM     35  O   UNL     1       7.178   4.082  11.835  0.00  0.00    +0.000 OA
ATOM     36  H   UNL     1       7.428   4.876  12.348  0.00  0.00    +0.000 HD
ENDBRANCH  33  35
ENDBRANCH  32  33
ENDBRANCH  31  32
ENDBRANCH  30  31
ENDBRANCH   2  30
TORSDOF 11
ENDMDL
MODEL 4
REMARK VINA RESULT:      -6.4      4.011      6.149
REMARK  Name = 
REMARK  14 active torsions:
REMARK  status: ('A' for Active; 'I' for Inactive)
REMARK    1  A    between atoms: C_1  and  O_2
REMARK    2  A    between atoms: O_2  and  C_3
REMARK    3  A    between atoms: C_3  and  C_4
REMARK    4  A    between atoms: C_3  and  O_33
REMARK    5  A    between atoms: C_4  and  N_5
REMARK    6  A    between atoms: C_6  and  S_7
REMARK    7  A    between atoms: S_7  and  C_8
REMARK    8  A    between atoms: C_8  and  C_9
REMARK    9  A    between atoms: C_9  and  C_10
REMARK   10  A    between atoms: C_10  and  O_12
REMARK   11  A    between atoms: C_14  and  C_15
REMARK   12  A    between atoms: C_22  and  C_23
REMARK   13  A    between atoms: C_29  and  C_30
REMARK   14  A    between atoms: O_33  and  C_34
REMARK                            x       y       z     vdW  Elec       q    Type
REMARK                         _______ _______ _______ _____ _____    ______ ____
ROOT
ATOM      1  N   UNL     1       3.003   4.456  17.837  0.00  0.00    +0.000 N 
ATOM      2  C   UNL     1       4.028   3.567  17.517  0.00  0.00    +0.000 A 
ATOM      3  N   UNL     1       5.186   4.170  17.438  0.00  0.00    +0.000 NA
ATOM      4  C   UNL     1       4.945   5.473  17.793  0.00  0.00    +0.000 A 
ATOM      5  C   UNL     1       3.594   5.713  18.057  0.00  0.00    +0.000 A 
ENDROOT
BRANCH   5   6
ATOM      6  C   UNL     1       2.912   6.971  18.438  0.00  0.00    +0.000 A 
ATOM      7  C   UNL     1       2.514   7.924  17.500  0.00  0.00    +0.000 A 
ATOM      8  C   UNL     1       1.849   9.062  17.940  0.00  0.00    +0.000 A 
ATOM      9  N   UNL     1       1.504   9.283  19.223  0.00  0.00    +0.000 NA
ATOM     10  C   UNL     1       1.808   8.338  20.123  0.00  0.00    +0.000 A 
ATOM     11  N   UNL     1       1.328   8.412  21.432  0.00  0.00    +0.000 N 
ATOM     12  C   UNL     1       0.560   9.340  22.055  0.00  0.00    +0.000 C 
ATOM     13  C   UNL     1       0.156  10.635  21.405  0.00  0.00    +0.000 C 
ATOM     14  O   UNL     1       0.223   9.112  23.226  0.00  0.00    +0.000 OA
ATOM     15  C   UNL     1       2.545   7.204  19.774  0.00  0.00    +0.000 A 
ATOM     16  H   UNL     1       1.512   7.618  22.035  0.00  0.00    +0.000 HD
ENDBRANCH   5   6
BRANCH   4  17
ATOM     17  C   UNL     1       6.041   6.424  17.896  0.00  0.00    +0.000 A 
ATOM     18  C   UNL     1       7.138   6.117  18.714  0.00  0.00    +0.000 A 
ATOM     19  C   UNL     1       8.201   7.012  18.830  0.00  0.00    +0.000 A 
ATOM     20  C   UNL     1       8.166   8.213  18.131  0.00  0.00    +0.000 A 
ATOM     21  F   UNL     1       9.188   9.071  18.240  0.00  0.00    +0.000 F 
ATOM     22  C   UNL     1       7.087   8.542  17.319  0.00  0.00    +0.000 A 
ATOM     23  C   UNL     1       6.013   7.650  17.218  0.00  0.00    +0.000 A 
ENDBRANCH   4  17
BRANCH   1  24
ATOM     24  C   UNL     1       1.587   4.149  18.027  0.00  0.00    +0.000 C 
BRANCH  24  25
ATOM     25  C   UNL     1       1.151   3.880  19.489  0.00  0.00    +0.000 C 
BRANCH  25  27
ATOM     26  C   UNL     1       1.965   3.831  21.759  0.00  0.00    +0.000 C 
ATOM     27  O   UNL     1       2.267   3.723  20.377  0.00  0.00    +0.000 OA
ENDBRANCH  25  27
BRANCH  25  28
ATOM     28  O   UNL     1       0.304   2.724  19.568  0.00  0.00    +0.000 OA
ATOM     29  C   UNL     1       0.459   1.824  18.480  0.00  0.00    +0.000 C 
ENDBRANCH  25  28
ENDBRANCH  24  25
ENDBRANCH   1  24
BRANCH   2  30
ATOM     30  S   UNL     1       3.879   1.835  17.437  0.00  0.00    +0.000 S 
BRANCH  30  31
ATOM     31  C   UNL     1       3.813   1.256  19.186  0.00  0.00    +0.000 C 
BRANCH  31  32
ATOM     32  C   UNL     1       4.788   1.812  20.222  0.00  0.00    +0.000 C 
BRANCH  32  33
ATOM     33  C   UNL     1       5.561   0.764  20.977  0.00  0.00    +0.000 C 
ATOM     34  O   UNL     1       5.952   0.893  22.128  0.00  0.00    +0.000 OA
BRANCH  33  35
ATOM     35  O   UNL     1       5.764  -0.365  20.259  0.00  0.00    +0.000 OA
ATOM     36  H   UNL     1       6.444  -0.261  19.565  0.00  0.00    +0.000 HD
ENDBRANCH  33  35
ENDBRANCH  32  33
ENDBRANCH  31  32
ENDBRANCH  30  31
ENDBRANCH   2  30
TORSDOF 11
ENDMDL
MODEL 5
REMARK VINA RESULT:      -6.3      9.034     11.413
REMARK  Name = 
REMARK  14 active torsions:
REMARK  status: ('A' for Active; 'I' for Inactive)
REMARK    1  A    between atoms: C_1  and  O_2
REMARK    2  A    between atoms: O_2  and  C_3
REMARK    3  A    between atoms: C_3  and  C_4
REMARK    4  A    between atoms: C_3  and  O_33
REMARK    5  A    between atoms: C_4  and  N_5
REMARK    6  A    between atoms: C_6  and  S_7
REMARK    7  A    between atoms: S_7  and  C_8
REMARK    8  A    between atoms: C_8  and  C_9
REMARK    9  A    between atoms: C_9  and  C_10
REMARK   10  A    between atoms: C_10  and  O_12
REMARK   11  A    between atoms: C_14  and  C_15
REMARK   12  A    between atoms: C_22  and  C_23
REMARK   13  A    between atoms: C_29  and  C_30
REMARK   14  A    between atoms: O_33  and  C_34
REMARK                            x       y       z     vdW  Elec       q    Type
REMARK                         _______ _______ _______ _____ _____    ______ ____
ROOT
ATOM      1  N   UNL     1      -3.565  11.463  18.582  0.00  0.00    +0.000 N 
ATOM      2  C   UNL     1      -2.624  11.128  17.609  0.00  0.00    +0.000 A 
ATOM      3  N   UNL     1      -1.503  11.781  17.774  0.00  0.00    +0.000 NA
ATOM      4  C   UNL     1      -1.667  12.506  18.927  0.00  0.00    +0.000 A 
ATOM      5  C   UNL     1      -2.940  12.346  19.480  0.00  0.00    +0.000 A 
ENDROOT
BRANCH   5   6
ATOM      6  C   UNL     1      -3.532  12.964  20.689  0.00  0.00    +0.000 A 
ATOM      7  C   UNL     1      -3.224  12.533  21.980  0.00  0.00    +0.000 A 
ATOM      8  C   UNL     1      -3.798  13.190  23.062  0.00  0.00    +0.000 A 
ATOM      9  N   UNL     1      -4.596  14.269  22.949  0.00  0.00    +0.000 NA
ATOM     10  C   UNL     1      -4.836  14.744  21.719  0.00  0.00    +0.000 A 
ATOM     11  N   UNL     1      -5.503  15.956  21.534  0.00  0.00    +0.000 N 
ATOM     12  C   UNL     1      -6.032  16.834  22.422  0.00  0.00    +0.000 C 
ATOM     13  C   UNL     1      -6.099  16.560  23.900  0.00  0.00    +0.000 C 
ATOM     14  O   UNL     1      -6.516  17.882  21.972  0.00  0.00    +0.000 OA
ATOM     15  C   UNL     1      -4.362  14.093  20.578  0.00  0.00    +0.000 A 
ATOM     16  H   UNL     1      -5.565  16.307  20.584  0.00  0.00    +0.000 HD
ENDBRANCH   5   6
BRANCH   4  17
ATOM     17  C   UNL     1      -0.571  13.297  19.463  0.00  0.00    +0.000 A 
ATOM     18  C   UNL     1      -0.295  14.552  18.901  0.00  0.00    +0.000 A 
ATOM     19  C   UNL     1       0.750  15.330  19.397  0.00  0.00    +0.000 A 
ATOM     20  C   UNL     1       1.521  14.853  20.450  0.00  0.00    +0.000 A 
ATOM     21  F   UNL     1       2.523  15.602  20.928  0.00  0.00    +0.000 F 
ATOM     22  C   UNL     1       1.271  13.610  21.020  0.00  0.00    +0.000 A 
ATOM     23  C   UNL     1       0.232  12.823  20.510  0.00  0.00    +0.000 A 
ENDBRANCH   4  17
BRANCH   1  24
ATOM     24  C   UNL     1      -4.917  10.929  18.732  0.00  0.00    +0.000 C 
BRANCH  24  25
ATOM     25  C   UNL     1      -5.984  11.537  17.790  0.00  0.00    +0.000 C 
BRANCH  25  27
ATOM     26  C   UNL     1      -6.787  13.635  16.910  0.00  0.00    +0.000 C 
ATOM     27  O   UNL     1      -5.694  12.896  17.432  0.00  0.00    +0.000 OA
ENDBRANCH  25  27
BRANCH  25  28
ATOM     28  O   UNL     1      -7.292  11.461  18.378  0.00  0.00    +0.000 OA
ATOM     29  C   UNL     1      -7.278  11.233  19.780  0.00  0.00    +0.000 C 
ENDBRANCH  25  28
ENDBRANCH  24  25
ENDBRANCH   1  24
BRANCH   2  30
ATOM     30  S   UNL     1      -2.789   9.852  16.437  0.00  0.00    +0.000 S 
BRANCH  30  31
ATOM     31  C   UNL     1      -3.215  10.682  14.848  0.00  0.00    +0.000 C 
BRANCH  31  32
ATOM     32  C   UNL     1      -4.008   9.939  13.774  0.00  0.00    +0.000 C 
BRANCH  32  33
ATOM     33  C   UNL     1      -3.240   9.666  12.509  0.00  0.00    +0.000 C 
ATOM     34  O   UNL     1      -2.062   9.343  12.475  0.00  0.00    +0.000 OA
BRANCH  33  35
ATOM     35  O   UNL     1      -3.996   9.787  11.393  0.00  0.00    +0.000 OA
ATOM     36  H   UNL     1      -4.864   9.342  11.468  0.00  0.00    +0.000 HD
ENDBRANCH  33  35
ENDBRANCH  32  33
ENDBRANCH  31  32
ENDBRANCH  30  31
ENDBRANCH   2  30
TORSDOF 11
ENDMDL
MODEL 6
REMARK VINA RESULT:      -6.3      8.987     11.967
REMARK  Name = 
REMARK  14 active torsions:
REMARK  status: ('A' for Active; 'I' for Inactive)
REMARK    1  A    between atoms: C_1  and  O_2
REMARK    2  A    between atoms: O_2  and  C_3
REMARK    3  A    between atoms: C_3  and  C_4
REMARK    4  A    between atoms: C_3  and  O_33
REMARK    5  A    between atoms: C_4  and  N_5
REMARK    6  A    between atoms: C_6  and  S_7
REMARK    7  A    between atoms: S_7  and  C_8
REMARK    8  A    between atoms: C_8  and  C_9
REMARK    9  A    between atoms: C_9  and  C_10
REMARK   10  A    between atoms: C_10  and  O_12
REMARK   11  A    between atoms: C_14  and  C_15
REMARK   12  A    between atoms: C_22  and  C_23
REMARK   13  A    between atoms: C_29  and  C_30
REMARK   14  A    between atoms: O_33  and  C_34
REMARK                            x       y       z     vdW  Elec       q    Type
REMARK                         _______ _______ _______ _____ _____    ______ ____
ROOT
ATOM      1  N   UNL     1      -3.485  13.358  21.260  0.00  0.00    +0.000 N 
ATOM      2  C   UNL     1      -4.770  12.851  21.073  0.00  0.00    +0.000 A 
ATOM      3  N   UNL     1      -4.875  12.200  19.944  0.00  0.00    +0.000 NA
ATOM      4  C   UNL     1      -3.614  12.200  19.402  0.00  0.00    +0.000 A 
ATOM      5  C   UNL     1      -2.699  12.910  20.183  0.00  0.00    +0.000 A 
ENDROOT
BRANCH   5   6
ATOM      6  C   UNL     1      -1.260  13.176  19.950  0.00  0.00    +0.000 A 
ATOM      7  C   UNL     1      -0.293  12.172  20.003  0.00  0.00    +0.000 A 
ATOM      8  C   UNL     1       1.031  12.502  19.738  0.00  0.00    +0.000 A 
ATOM      9  N   UNL     1       1.441  13.730  19.368  0.00  0.00    +0.000 NA
ATOM     10  C   UNL     1       0.511  14.685  19.234  0.00  0.00    +0.000 A 
ATOM     11  N   UNL     1       0.831  15.929  18.686  0.00  0.00    +0.000 N 
ATOM     12  C   UNL     1       2.006  16.434  18.234  0.00  0.00    +0.000 C 
ATOM     13  C   UNL     1       3.315  15.706  18.372  0.00  0.00    +0.000 C 
ATOM     14  O   UNL     1       1.985  17.564  17.726  0.00  0.00    +0.000 OA
ATOM     15  C   UNL     1      -0.828  14.455  19.559  0.00  0.00    +0.000 A 
ATOM     16  H   UNL     1       0.064  16.571  18.521  0.00  0.00    +0.000 HD
ENDBRANCH   5   6
BRANCH   4  17
ATOM     17  C   UNL     1      -3.342  11.482  18.167  0.00  0.00    +0.000 A 
ATOM     18  C   UNL     1      -2.277  10.571  18.126  0.00  0.00    +0.000 A 
ATOM     19  C   UNL     1      -1.995   9.870  16.954  0.00  0.00    +0.000 A 
ATOM     20  C   UNL     1      -2.775  10.083  15.823  0.00  0.00    +0.000 A 
ATOM     21  F   UNL     1      -2.506   9.408  14.699  0.00  0.00    +0.000 F 
ATOM     22  C   UNL     1      -3.832  10.986  15.837  0.00  0.00    +0.000 A 
ATOM     23  C   UNL     1      -4.102  11.701  17.010  0.00  0.00    +0.000 A 
ENDBRANCH   4  17
BRANCH   1  24
ATOM     24  C   UNL     1      -2.987  14.120  22.403  0.00  0.00    +0.000 C 
BRANCH  24  25
ATOM     25  C   UNL     1      -2.267  13.293  23.496  0.00  0.00    +0.000 C 
BRANCH  25  27
ATOM     26  C   UNL     1      -0.435  14.831  23.176  0.00  0.00    +0.000 C 
ATOM     27  O   UNL     1      -0.849  13.516  23.512  0.00  0.00    +0.000 OA
ENDBRANCH  25  27
BRANCH  25  28
ATOM     28  O   UNL     1      -2.534  11.891  23.340  0.00  0.00    +0.000 OA
ATOM     29  C   UNL     1      -1.365  11.099  23.181  0.00  0.00    +0.000 C 
ENDBRANCH  25  28
ENDBRANCH  24  25
ENDBRANCH   1  24
BRANCH   2  30
ATOM     30  S   UNL     1      -6.046  12.865  22.256  0.00  0.00    +0.000 S 
BRANCH  30  31
ATOM     31  C   UNL     1      -6.639  14.608  22.335  0.00  0.00    +0.000 C 
BRANCH  31  32
ATOM     32  C   UNL     1      -6.834  15.418  21.054  0.00  0.00    +0.000 C 
BRANCH  32  33
ATOM     33  C   UNL     1      -5.680  16.320  20.705  0.00  0.00    +0.000 C 
ATOM     34  O   UNL     1      -5.284  17.234  21.413  0.00  0.00    +0.000 OA
BRANCH  33  35
ATOM     35  O   UNL     1      -5.095  16.002  19.527  0.00  0.00    +0.000 OA
ATOM     36  H   UNL     1      -5.601  16.316  18.751  0.00  0.00    +0.000 HD
ENDBRANCH  33  35
ENDBRANCH  32  33
ENDBRANCH  31  32
ENDBRANCH  30  31
ENDBRANCH   2  30
TORSDOF 11
ENDMDL
MODEL 7
REMARK VINA RESULT:      -6.3      6.970     10.290
REMARK  Name = 
REMARK  14 active torsions:
REMARK  status: ('A' for Active; 'I' for Inactive)
REMARK    1  A    between atoms: C_1  and  O_2
REMARK    2  A    between atoms: O_2  and  C_3
REMARK    3  A    between atoms: C_3  and  C_4
REMARK    4  A    between atoms: C_3  and  O_33
REMARK    5  A    between atoms: C_4  and  N_5
REMARK    6  A    between atoms: C_6  and  S_7
REMARK    7  A    between atoms: S_7  and  C_8
REMARK    8  A    between atoms: C_8  and  C_9
REMARK    9  A    between atoms: C_9  and  C_10
REMARK   10  A    between atoms: C_10  and  O_12
REMARK   11  A    between atoms: C_14  and  C_15
REMARK   12  A    between atoms: C_22  and  C_23
REMARK   13  A    between atoms: C_29  and  C_30
REMARK   14  A    between atoms: O_33  and  C_34
REMARK                            x       y       z     vdW  Elec       q    Type
REMARK                         _______ _______ _______ _____ _____    ______ ____
ROOT
ATOM      1  N   UNL     1      -1.020  13.516  19.823  0.00  0.00    +0.000 N 
ATOM      2  C   UNL     1      -2.062  12.600  19.952  0.00  0.00    +0.000 A 
ATOM      3  N   UNL     1      -1.643  11.368  19.813  0.00  0.00    +0.000 NA
ATOM      4  C   UNL     1      -0.282  11.457  19.672  0.00  0.00    +0.000 A 
ATOM      5  C   UNL     1       0.168  12.780  19.671  0.00  0.00    +0.000 A 
ENDROOT
BRANCH   5   6
ATOM      6  C   UNL     1       1.541  13.313  19.515  0.00  0.00    +0.000 A 
ATOM      7  C   UNL     1       2.050  13.730  18.284  0.00  0.00    +0.000 A 
ATOM      8  C   UNL     1       3.337  14.250  18.231  0.00  0.00    +0.000 A 
ATOM      9  N   UNL     1       4.117  14.439  19.313  0.00  0.00    +0.000 NA
ATOM     10  C   UNL     1       3.611  14.119  20.512  0.00  0.00    +0.000 A 
ATOM     11  N   UNL     1       4.286  14.450  21.688  0.00  0.00    +0.000 N 
ATOM     12  C   UNL     1       5.474  15.071  21.897  0.00  0.00    +0.000 C 
ATOM     13  C   UNL     1       6.412  15.435  20.778  0.00  0.00    +0.000 C 
ATOM     14  O   UNL     1       5.802  15.300  23.070  0.00  0.00    +0.000 OA
ATOM     15  C   UNL     1       2.357  13.517  20.641  0.00  0.00    +0.000 A 
ATOM     16  H   UNL     1       3.804  14.269  22.562  0.00  0.00    +0.000 HD
ENDBRANCH   5   6
BRANCH   4  17
ATOM     17  C   UNL     1       0.530  10.255  19.577  0.00  0.00    +0.000 A 
ATOM     18  C   UNL     1       1.119   9.923  18.348  0.00  0.00    +0.000 A 
ATOM     19  C   UNL     1       1.901   8.775  18.230  0.00  0.00    +0.000 A 
ATOM     20  C   UNL     1       2.093   7.958  19.338  0.00  0.00    +0.000 A 
ATOM     21  F   UNL     1       2.847   6.858  19.226  0.00  0.00    +0.000 F 
ATOM     22  C   UNL     1       1.515   8.263  20.565  0.00  0.00    +0.000 A 
ATOM     23  C   UNL     1       0.715   9.406  20.677  0.00  0.00    +0.000 A 
ENDBRANCH   4  17
BRANCH   1  24
ATOM     24  C   UNL     1      -1.098  14.972  19.932  0.00  0.00    +0.000 C 
BRANCH  24  25
ATOM     25  C   UNL     1      -0.771  15.556  21.328  0.00  0.00    +0.000 C 
BRANCH  25  27
ATOM     26  C   UNL     1      -1.676  16.767  23.209  0.00  0.00    +0.000 C 
ATOM     27  O   UNL     1      -1.855  16.323  21.873  0.00  0.00    +0.000 OA
ENDBRANCH  25  27
BRANCH  25  28
ATOM     28  O   UNL     1       0.416  16.362  21.283  0.00  0.00    +0.000 OA
ATOM     29  C   UNL     1       0.709  16.879  19.993  0.00  0.00    +0.000 C 
ENDBRANCH  25  28
ENDBRANCH  24  25
ENDBRANCH   1  24
BRANCH   2  30
ATOM     30  S   UNL     1      -3.687  12.975  20.449  0.00  0.00    +0.000 S 
BRANCH  30  31
ATOM     31  C   UNL     1      -3.599  13.267  22.267  0.00  0.00    +0.000 C 
BRANCH  31  32
ATOM     32  C   UNL     1      -2.975  12.221  23.190  0.00  0.00    +0.000 C 
BRANCH  32  33
ATOM     33  C   UNL     1      -1.480  12.327  23.332  0.00  0.00    +0.000 C 
ATOM     34  O   UNL     1      -0.888  13.356  23.623  0.00  0.00    +0.000 OA
BRANCH  33  35
ATOM     35  O   UNL     1      -0.844  11.151  23.130  0.00  0.00    +0.000 OA
ATOM     36  H   UNL     1       0.116  11.198  23.310  0.00  0.00    +0.000 HD
ENDBRANCH  33  35
ENDBRANCH  32  33
ENDBRANCH  31  32
ENDBRANCH  30  31
ENDBRANCH   2  30
TORSDOF 11
ENDMDL
MODEL 8
REMARK VINA RESULT:      -6.3      5.354      9.108
REMARK  Name = 
REMARK  14 active torsions:
REMARK  status: ('A' for Active; 'I' for Inactive)
REMARK    1  A    between atoms: C_1  and  O_2
REMARK    2  A    between atoms: O_2  and  C_3
REMARK    3  A    between atoms: C_3  and  C_4
REMARK    4  A    between atoms: C_3  and  O_33
REMARK    5  A    between atoms: C_4  and  N_5
REMARK    6  A    between atoms: C_6  and  S_7
REMARK    7  A    between atoms: S_7  and  C_8
REMARK    8  A    between atoms: C_8  and  C_9
REMARK    9  A    between atoms: C_9  and  C_10
REMARK   10  A    between atoms: C_10  and  O_12
REMARK   11  A    between atoms: C_14  and  C_15
REMARK   12  A    between atoms: C_22  and  C_23
REMARK   13  A    between atoms: C_29  and  C_30
REMARK   14  A    between atoms: O_33  and  C_34
REMARK                            x       y       z     vdW  Elec       q    Type
REMARK                         _______ _______ _______ _____ _____    ______ ____
ROOT
ATOM      1  N   UNL     1       0.119  10.862  18.984  0.00  0.00    +0.000 N 
ATOM      2  C   UNL     1       1.306  10.493  18.352  0.00  0.00    +0.000 A 
ATOM      3  N   UNL     1       2.200  11.445  18.406  0.00  0.00    +0.000 NA
ATOM      4  C   UNL     1       1.631  12.440  19.160  0.00  0.00    +0.000 A 
ATOM      5  C   UNL     1       0.326  12.132  19.552  0.00  0.00    +0.000 A 
ENDROOT
BRANCH   5   6
ATOM      6  C   UNL     1      -0.641  12.931  20.339  0.00  0.00    +0.000 A 
ATOM      7  C   UNL     1      -1.041  14.213  19.958  0.00  0.00    +0.000 A 
ATOM      8  C   UNL     1      -1.979  14.881  20.736  0.00  0.00    +0.000 A 
ATOM      9  N   UNL     1      -2.582  14.345  21.814  0.00  0.00    +0.000 NA
ATOM     10  C   UNL     1      -2.267  13.085  22.144  0.00  0.00    +0.000 A 
ATOM     11  N   UNL     1      -2.976  12.404  23.135  0.00  0.00    +0.000 N 
ATOM     12  C   UNL     1      -4.005  12.790  23.929  0.00  0.00    +0.000 C 
ATOM     13  C   UNL     1      -4.528  14.200  23.958  0.00  0.00    +0.000 C 
ATOM     14  O   UNL     1      -4.494  11.940  24.687  0.00  0.00    +0.000 OA
ATOM     15  C   UNL     1      -1.276  12.375  21.462  0.00  0.00    +0.000 A 
ATOM     16  H   UNL     1      -2.753  11.423  23.269  0.00  0.00    +0.000 HD
ENDBRANCH   5   6
BRANCH   4  17
ATOM     17  C   UNL     1       2.388  13.635  19.497  0.00  0.00    +0.000 A 
ATOM     18  C   UNL     1       2.552  14.636  18.529  0.00  0.00    +0.000 A 
ATOM     19  C   UNL     1       3.274  15.791  18.826  0.00  0.00    +0.000 A 
ATOM     20  C   UNL     1       3.835  15.944  20.089  0.00  0.00    +0.000 A 
ATOM     21  F   UNL     1       4.526  17.054  20.376  0.00  0.00    +0.000 F 
ATOM     22  C   UNL     1       3.692  14.963  21.063  0.00  0.00    +0.000 A 
ATOM     23  C   UNL     1       2.981  13.796  20.757  0.00  0.00    +0.000 A 
ENDBRANCH   4  17
BRANCH   1  24
ATOM     24  C   UNL     1      -1.092  10.059  19.141  0.00  0.00    +0.000 C 
BRANCH  24  25
ATOM     25  C   UNL     1      -2.178  10.268  18.057  0.00  0.00    +0.000 C 
BRANCH  25  27
ATOM     26  C   UNL     1      -2.634  10.175  15.690  0.00  0.00    +0.000 C 
ATOM     27  O   UNL     1      -1.725   9.904  16.745  0.00  0.00    +0.000 OA
ENDBRANCH  25  27
BRANCH  25  28
ATOM     28  O   UNL     1      -2.640  11.627  18.048  0.00  0.00    +0.000 OA
ATOM     29  C   UNL     1      -3.840  11.829  18.782  0.00  0.00    +0.000 C 
ENDBRANCH  25  28
ENDBRANCH  24  25
ENDBRANCH   1  24
BRANCH   2  30
ATOM     30  S   UNL     1       1.679   8.904  17.747  0.00  0.00    +0.000 S 
BRANCH  30  31
ATOM     31  C   UNL     1       2.163   7.908  19.220  0.00  0.00    +0.000 C 
BRANCH  31  32
ATOM     32  C   UNL     1       2.449   6.413  19.083  0.00  0.00    +0.000 C 
BRANCH  32  33
ATOM     33  C   UNL     1       3.850   6.084  18.639  0.00  0.00    +0.000 C 
ATOM     34  O   UNL     1       4.353   6.484  17.599  0.00  0.00    +0.000 OA
BRANCH  33  35
ATOM     35  O   UNL     1       4.521   5.314  19.526  0.00  0.00    +0.000 OA
ATOM     36  H   UNL     1       4.435   4.357  19.345  0.00  0.00    +0.000 HD
ENDBRANCH  33  35
ENDBRANCH  32  33
ENDBRANCH  31  32
ENDBRANCH  30  31
ENDBRANCH   2  30
TORSDOF 11
ENDMDL
MODEL 9
REMARK VINA RESULT:      -6.3      6.586      9.621
REMARK  Name = 
REMARK  14 active torsions:
REMARK  status: ('A' for Active; 'I' for Inactive)
REMARK    1  A    between atoms: C_1  and  O_2
REMARK    2  A    between atoms: O_2  and  C_3
REMARK    3  A    between atoms: C_3  and  C_4
REMARK    4  A    between atoms: C_3  and  O_33
REMARK    5  A    between atoms: C_4  and  N_5
REMARK    6  A    between atoms: C_6  and  S_7
REMARK    7  A    between atoms: S_7  and  C_8
REMARK    8  A    between atoms: C_8  and  C_9
REMARK    9  A    between atoms: C_9  and  C_10
REMARK   10  A    between atoms: C_10  and  O_12
REMARK   11  A    between atoms: C_14  and  C_15
REMARK   12  A    between atoms: C_22  and  C_23
REMARK   13  A    between atoms: C_29  and  C_30
REMARK   14  A    between atoms: O_33  and  C_34
REMARK                            x       y       z     vdW  Elec       q    Type
REMARK                         _______ _______ _______ _____ _____    ______ ____
ROOT
ATOM      1  N   UNL     1      -1.063  13.155  19.589  0.00  0.00    +0.000 N 
ATOM      2  C   UNL     1      -2.070  12.193  19.540  0.00  0.00    +0.000 A 
ATOM      3  N   UNL     1      -1.585  10.996  19.330  0.00  0.00    +0.000 NA
ATOM      4  C   UNL     1      -0.222  11.148  19.321  0.00  0.00    +0.000 A 
ATOM      5  C   UNL     1       0.166  12.481  19.480  0.00  0.00    +0.000 A 
ENDROOT
BRANCH   5   6
ATOM      6  C   UNL     1       1.522  13.077  19.498  0.00  0.00    +0.000 A 
ATOM      7  C   UNL     1       2.170  13.502  18.337  0.00  0.00    +0.000 A 
ATOM      8  C   UNL     1       3.428  14.083  18.446  0.00  0.00    +0.000 A 
ATOM      9  N   UNL     1       4.048  14.321  19.618  0.00  0.00    +0.000 NA
ATOM     10  C   UNL     1       3.402  13.992  20.745  0.00  0.00    +0.000 A 
ATOM     11  N   UNL     1       3.898  14.368  21.994  0.00  0.00    +0.000 N 
ATOM     12  C   UNL     1       5.018  15.047  22.347  0.00  0.00    +0.000 C 
ATOM     13  C   UNL     1       6.080  15.442  21.356  0.00  0.00    +0.000 C 
ATOM     14  O   UNL     1       5.177  15.305  23.549  0.00  0.00    +0.000 OA
ATOM     15  C   UNL     1       2.171  13.333  20.717  0.00  0.00    +0.000 A 
ATOM     16  H   UNL     1       3.313  14.175  22.800  0.00  0.00    +0.000 HD
ENDBRANCH   5   6
BRANCH   4  17
ATOM     17  C   UNL     1       0.648   9.991  19.192  0.00  0.00    +0.000 A 
ATOM     18  C   UNL     1       0.909   9.202  20.321  0.00  0.00    +0.000 A 
ATOM     19  C   UNL     1       1.740   8.087  20.225  0.00  0.00    +0.000 A 
ATOM     20  C   UNL     1       2.314   7.763  19.001  0.00  0.00    +0.000 A 
ATOM     21  F   UNL     1       3.110   6.691  18.907  0.00  0.00    +0.000 F 
ATOM     22  C   UNL     1       2.076   8.533  17.868  0.00  0.00    +0.000 A 
ATOM     23  C   UNL     1       1.255   9.662  17.971  0.00  0.00    +0.000 A 
ENDBRANCH   4  17
BRANCH   1  24
ATOM     24  C   UNL     1      -1.216  14.590  19.822  0.00  0.00    +0.000 C 
BRANCH  24  25
ATOM     25  C   UNL     1      -1.603  14.996  21.265  0.00  0.00    +0.000 C 
BRANCH  25  27
ATOM     26  C   UNL     1      -2.985  16.901  21.798  0.00  0.00    +0.000 C 
ATOM     27  O   UNL     1      -1.702  16.419  21.430  0.00  0.00    +0.000 OA
ENDBRANCH  25  27
BRANCH  25  28
ATOM     28  O   UNL     1      -0.669  14.464  22.216  0.00  0.00    +0.000 OA
ATOM     29  C   UNL     1      -1.284  13.833  23.331  0.00  0.00    +0.000 C 
ENDBRANCH  25  28
ENDBRANCH  24  25
ENDBRANCH   1  24
BRANCH   2  30
ATOM     30  S   UNL     1      -3.747  12.459  19.920  0.00  0.00    +0.000 S 
BRANCH  30  31
ATOM     31  C   UNL     1      -4.704  11.523  18.654  0.00  0.00    +0.000 C 
BRANCH  31  32
ATOM     32  C   UNL     1      -4.483  11.786  17.166  0.00  0.00    +0.000 C 
BRANCH  32  33
ATOM     33  C   UNL     1      -3.823  10.654  16.423  0.00  0.00    +0.000 C 
ATOM     34  O   UNL     1      -3.756  10.577  15.206  0.00  0.00    +0.000 OA
BRANCH  33  35
ATOM     35  O   UNL     1      -3.277   9.729  17.245  0.00  0.00    +0.000 OA
ATOM     36  H   UNL     1      -3.119  10.064  18.150  0.00  0.00    +0.000 HD
ENDBRANCH  33  35
ENDBRANCH  32  33
ENDBRANCH  31  32
ENDBRANCH  30  31
ENDBRANCH   2  30
TORSDOF 11
ENDMDL
