MODEL 1
REMARK VINA RESULT:      -7.7      0.000      0.000
REMARK  Name = 
REMARK  4 active torsions:
REMARK  status: ('A' for Active; 'I' for Inactive)
REMARK    1  A    between atoms: C_1  and  C_2
REMARK    2  A    between atoms: C_2  and  N_3
REMARK    3  A    between atoms: C_7  and  C_8
REMARK    4  A    between atoms: C_11  and  C_12
REMARK                            x       y       z     vdW  Elec       q    Type
REMARK                         _______ _______ _______ _____ _____    ______ ____
ROOT
ATOM      1  C   UNL     1       1.332   8.830  19.450  0.00  0.00    +0.000 A 
ATOM      2  C   UNL     1       0.779   9.162  20.675  0.00  0.00    +0.000 A 
ATOM      3  C   UNL     1       0.001  10.355  20.629  0.00  0.00    +0.000 A 
ATOM      4  C   UNL     1      -0.040  10.910  19.366  0.00  0.00    +0.000 A 
ATOM      5  S   UNL     1       0.898   9.992  18.263  0.00  0.00    +0.000 S 
ENDROOT
BRANCH   1  10
ATOM      6  N   UNL     1       5.395   5.098  16.941  0.00  0.00    +0.000 N 
ATOM      7  C   UNL     1       4.810   6.382  16.588  0.00  0.00    +0.000 C 
ATOM      8  C   UNL     1       3.867   6.627  17.719  0.00  0.00    +0.000 A 
ATOM      9  C   UNL     1       3.030   7.707  17.961  0.00  0.00    +0.000 A 
ATOM     10  C   UNL     1       2.223   7.703  19.117  0.00  0.00    +0.000 A 
ATOM     11  C   UNL     1       2.270   6.583  19.986  0.00  0.00    +0.000 A 
ATOM     12  C   UNL     1       3.109   5.494  19.733  0.00  0.00    +0.000 A 
ATOM     13  C   UNL     1       3.896   5.551  18.603  0.00  0.00    +0.000 A 
ATOM     14  C   UNL     1       4.856   4.565  18.099  0.00  0.00    +0.000 C 
ATOM     15  O   UNL     1       5.085   3.490  18.618  0.00  0.00    +0.000 OA
BRANCH   6  17
ATOM     16  C   UNL     1       5.713   4.320  14.631  0.00  0.00    +0.000 C 
ATOM     17  C   UNL     1       6.262   4.360  16.047  0.00  0.00    +0.000 C 
ENDBRANCH   6  17
ENDBRANCH   1  10
BRANCH   4  18
ATOM     18  C   UNL     1      -0.694  12.090  18.927  0.00  0.00    +0.000 C 
ATOM     19  C   UNL     1      -0.110  13.289  18.967  0.00  0.00    +0.000 C 
ATOM     20  N   UNL     1      -0.724  14.458  18.592  0.00  0.00    +0.000 N 
ATOM     21  C   UNL     1       0.136  15.521  18.789  0.00  0.00    +0.000 C 
ATOM     22  S   UNL     1      -0.210  17.103  18.487  0.00  0.00    +0.000 S 
ATOM     23  N   UNL     1       1.315  15.035  19.279  0.00  0.00    +0.000 N 
ATOM     24  C   UNL     1       1.275  13.672  19.421  0.00  0.00    +0.000 C 
ATOM     25  O   UNL     1       2.172  12.955  19.817  0.00  0.00    +0.000 OA
ATOM     26  H   UNL     1      -1.670  14.550  18.247  0.00  0.00    +0.000 HD
ATOM     27  H   UNL     1       2.123  15.590  19.510  0.00  0.00    +0.000 HD
ENDBRANCH   4  18
TORSDOF 3
ENDMDL
MODEL 2
REMARK VINA RESULT:      -7.6      1.916      2.061
REMARK  Name = 
REMARK  4 active torsions:
REMARK  status: ('A' for Active; 'I' for Inactive)
REMARK    1  A    between atoms: C_1  and  C_2
REMARK    2  A    between atoms: C_2  and  N_3
REMARK    3  A    between atoms: C_7  and  C_8
REMARK    4  A    between atoms: C_11  and  C_12
REMARK                            x       y       z     vdW  Elec       q    Type
REMARK                         _______ _______ _______ _____ _____    ______ ____
ROOT
ATOM      1  C   UNL     1       1.385   8.876  18.982  0.00  0.00    +0.000 A 
ATOM      2  C   UNL     1       0.743   9.629  18.013  0.00  0.00    +0.000 A 
ATOM      3  C   UNL     1      -0.169  10.577  18.559  0.00  0.00    +0.000 A 
ATOM      4  C   UNL     1      -0.201  10.545  19.938  0.00  0.00    +0.000 A 
ATOM      5  S   UNL     1       0.851   9.336  20.547  0.00  0.00    +0.000 S 
ENDROOT
BRANCH   1  10
ATOM      6  N   UNL     1       5.760   5.165  17.031  0.00  0.00    +0.000 N 
ATOM      7  C   UNL     1       5.115   6.364  16.521  0.00  0.00    +0.000 C 
ATOM      8  C   UNL     1       4.114   6.667  17.587  0.00  0.00    +0.000 A 
ATOM      9  C   UNL     1       3.205   7.712  17.682  0.00  0.00    +0.000 A 
ATOM     10  C   UNL     1       2.354   7.779  18.804  0.00  0.00    +0.000 A 
ATOM     11  C   UNL     1       2.433   6.763  19.790  0.00  0.00    +0.000 A 
ATOM     12  C   UNL     1       3.345   5.709  19.686  0.00  0.00    +0.000 A 
ATOM     13  C   UNL     1       4.172   5.696  18.583  0.00  0.00    +0.000 A 
ATOM     14  C   UNL     1       5.208   4.725  18.221  0.00  0.00    +0.000 C 
ATOM     15  O   UNL     1       5.481   3.728  18.862  0.00  0.00    +0.000 OA
BRANCH   6  17
ATOM     16  C   UNL     1       6.142   4.014  14.893  0.00  0.00    +0.000 C 
ATOM     17  C   UNL     1       6.705   4.392  16.252  0.00  0.00    +0.000 C 
ENDBRANCH   6  17
ENDBRANCH   1  10
BRANCH   4  18
ATOM     18  C   UNL     1      -0.982  11.320  20.834  0.00  0.00    +0.000 C 
ATOM     19  C   UNL     1      -0.541  12.461  21.366  0.00  0.00    +0.000 C 
ATOM     20  N   UNL     1      -1.249  13.216  22.268  0.00  0.00    +0.000 N 
ATOM     21  C   UNL     1      -0.499  14.311  22.651  0.00  0.00    +0.000 C 
ATOM     22  S   UNL     1      -0.966  15.462  23.733  0.00  0.00    +0.000 S 
ATOM     23  N   UNL     1       0.692  14.272  21.982  0.00  0.00    +0.000 N 
ATOM     24  C   UNL     1       0.769  13.178  21.159  0.00  0.00    +0.000 C 
ATOM     25  O   UNL     1       1.692  12.881  20.429  0.00  0.00    +0.000 OA
ATOM     26  H   UNL     1      -2.169  13.004  22.629  0.00  0.00    +0.000 HD
ATOM     27  H   UNL     1       1.430  14.951  22.066  0.00  0.00    +0.000 HD
ENDBRANCH   4  18
TORSDOF 3
ENDMDL
MODEL 3
REMARK VINA RESULT:      -7.5      2.736      3.267
REMARK  Name = 
REMARK  4 active torsions:
REMARK  status: ('A' for Active; 'I' for Inactive)
REMARK    1  A    between atoms: C_1  and  C_2
REMARK    2  A    between atoms: C_2  and  N_3
REMARK    3  A    between atoms: C_7  and  C_8
REMARK    4  A    between atoms: C_11  and  C_12
REMARK                            x       y       z     vdW  Elec       q    Type
REMARK                         _______ _______ _______ _____ _____    ______ ____
ROOT
ATOM      1  C   UNL     1       1.329   9.541  18.752  0.00  0.00    +0.000 A 
ATOM      2  C   UNL     1       1.633  10.838  18.373  0.00  0.00    +0.000 A 
ATOM      3  C   UNL     1       0.547  11.741  18.560  0.00  0.00    +0.000 A 
ATOM      4  C   UNL     1      -0.567  11.124  19.091  0.00  0.00    +0.000 A 
ATOM      5  S   UNL     1      -0.288   9.448  19.321  0.00  0.00    +0.000 S 
ENDROOT
BRANCH   1  10
ATOM      6  N   UNL     1       5.373   5.302  17.206  0.00  0.00    +0.000 N 
ATOM      7  C   UNL     1       4.914   6.555  16.628  0.00  0.00    +0.000 C 
ATOM      8  C   UNL     1       3.877   6.998  17.608  0.00  0.00    +0.000 A 
ATOM      9  C   UNL     1       3.093   8.143  17.616  0.00  0.00    +0.000 A 
ATOM     10  C   UNL     1       2.173   8.335  18.667  0.00  0.00    +0.000 A 
ATOM     11  C   UNL     1       2.058   7.342  19.672  0.00  0.00    +0.000 A 
ATOM     12  C   UNL     1       2.846   6.187  19.655  0.00  0.00    +0.000 A 
ATOM     13  C   UNL     1       3.745   6.051  18.621  0.00  0.00    +0.000 A 
ATOM     14  C   UNL     1       4.685   4.958  18.356  0.00  0.00    +0.000 C 
ATOM     15  O   UNL     1       4.789   3.952  19.031  0.00  0.00    +0.000 OA
BRANCH   6  17
ATOM     16  C   UNL     1       5.812   4.115  15.098  0.00  0.00    +0.000 C 
ATOM     17  C   UNL     1       6.277   4.406  16.514  0.00  0.00    +0.000 C 
ENDBRANCH   6  17
ENDBRANCH   1  10
BRANCH   4  18
ATOM     18  C   UNL     1      -1.834  11.679  19.406  0.00  0.00    +0.000 C 
ATOM     19  C   UNL     1      -2.861  11.650  18.553  0.00  0.00    +0.000 C 
ATOM     20  N   UNL     1      -4.087  12.213  18.804  0.00  0.00    +0.000 N 
ATOM     21  C   UNL     1      -4.913  12.041  17.710  0.00  0.00    +0.000 C 
ATOM     22  S   UNL     1      -6.463  12.583  17.583  0.00  0.00    +0.000 S 
ATOM     23  N   UNL     1      -4.221  11.351  16.754  0.00  0.00    +0.000 N 
ATOM     24  C   UNL     1      -2.949  11.053  17.172  0.00  0.00    +0.000 C 
ATOM     25  O   UNL     1      -2.106  10.437  16.553  0.00  0.00    +0.000 OA
ATOM     26  H   UNL     1      -4.356  12.706  19.645  0.00  0.00    +0.000 HD
ATOM     27  H   UNL     1      -4.583  11.082  15.853  0.00  0.00    +0.000 HD
ENDBRANCH   4  18
TORSDOF 3
ENDMDL
MODEL 4
REMARK VINA RESULT:      -7.4      2.446      2.739
REMARK  Name = 
REMARK  4 active torsions:
REMARK  status: ('A' for Active; 'I' for Inactive)
REMARK    1  A    between atoms: C_1  and  C_2
REMARK    2  A    between atoms: C_2  and  N_3
REMARK    3  A    between atoms: C_7  and  C_8
REMARK    4  A    between atoms: C_11  and  C_12
REMARK                            x       y       z     vdW  Elec       q    Type
REMARK                         _______ _______ _______ _____ _____    ______ ____
ROOT
ATOM      1  C   UNL     1       1.966   9.076  18.658  0.00  0.00    +0.000 A 
ATOM      2  C   UNL     1       2.158  10.309  18.057  0.00  0.00    +0.000 A 
ATOM      3  C   UNL     1       1.386  11.345  18.655  0.00  0.00    +0.000 A 
ATOM      4  C   UNL     1       0.624  10.893  19.713  0.00  0.00    +0.000 A 
ATOM      5  S   UNL     1       0.832   9.206  19.940  0.00  0.00    +0.000 S 
ENDROOT
BRANCH   1  10
ATOM      6  N   UNL     1       5.315   4.580  16.356  0.00  0.00    +0.000 N 
ATOM      7  C   UNL     1       5.245   6.020  16.169  0.00  0.00    +0.000 C 
ATOM      8  C   UNL     1       4.137   6.410  17.091  0.00  0.00    +0.000 A 
ATOM      9  C   UNL     1       3.613   7.664  17.371  0.00  0.00    +0.000 A 
ATOM     10  C   UNL     1       2.552   7.772  18.293  0.00  0.00    +0.000 A 
ATOM     11  C   UNL     1       2.034   6.594  18.889  0.00  0.00    +0.000 A 
ATOM     12  C   UNL     1       2.561   5.332  18.598  0.00  0.00    +0.000 A 
ATOM     13  C   UNL     1       3.611   5.277  17.707  0.00  0.00    +0.000 A 
ATOM     14  C   UNL     1       4.348   4.105  17.225  0.00  0.00    +0.000 C 
ATOM     15  O   UNL     1       4.107   2.955  17.538  0.00  0.00    +0.000 OA
BRANCH   6  17
ATOM     16  C   UNL     1       6.188   4.190  14.092  0.00  0.00    +0.000 C 
ATOM     17  C   UNL     1       6.146   3.722  15.536  0.00  0.00    +0.000 C 
ENDBRANCH   6  17
ENDBRANCH   1  10
BRANCH   4  18
ATOM     18  C   UNL     1      -0.273  11.613  20.543  0.00  0.00    +0.000 C 
ATOM     19  C   UNL     1      -1.514  11.917  20.160  0.00  0.00    +0.000 C 
ATOM     20  N   UNL     1      -2.397  12.648  20.917  0.00  0.00    +0.000 N 
ATOM     21  C   UNL     1      -3.579  12.818  20.222  0.00  0.00    +0.000 C 
ATOM     22  S   UNL     1      -4.895  13.651  20.757  0.00  0.00    +0.000 S 
ATOM     23  N   UNL     1      -3.464  12.181  19.018  0.00  0.00    +0.000 N 
ATOM     24  C   UNL     1      -2.236  11.587  18.879  0.00  0.00    +0.000 C 
ATOM     25  O   UNL     1      -1.846  10.938  17.931  0.00  0.00    +0.000 OA
ATOM     26  H   UNL     1      -2.218  13.034  21.834  0.00  0.00    +0.000 HD
ATOM     27  H   UNL     1      -4.180  12.139  18.311  0.00  0.00    +0.000 HD
ENDBRANCH   4  18
TORSDOF 3
ENDMDL
MODEL 5
REMARK VINA RESULT:      -7.3      3.408      4.246
REMARK  Name = 
REMARK  4 active torsions:
REMARK  status: ('A' for Active; 'I' for Inactive)
REMARK    1  A    between atoms: C_1  and  C_2
REMARK    2  A    between atoms: C_2  and  N_3
REMARK    3  A    between atoms: C_7  and  C_8
REMARK    4  A    between atoms: C_11  and  C_12
REMARK                            x       y       z     vdW  Elec       q    Type
REMARK                         _______ _______ _______ _____ _____    ______ ____
ROOT
ATOM      1  C   UNL     1       0.691  10.413  19.830  0.00  0.00    +0.000 A 
ATOM      2  C   UNL     1       1.204  11.592  20.346  0.00  0.00    +0.000 A 
ATOM      3  C   UNL     1       0.197  12.553  20.645  0.00  0.00    +0.000 A 
ATOM      4  C   UNL     1      -1.074  12.091  20.367  0.00  0.00    +0.000 A 
ATOM      5  S   UNL     1      -1.019  10.507  19.711  0.00  0.00    +0.000 S 
ENDROOT
BRANCH   1  10
ATOM      6  N   UNL     1       3.239   4.945  19.257  0.00  0.00    +0.000 N 
ATOM      7  C   UNL     1       2.542   5.657  20.316  0.00  0.00    +0.000 C 
ATOM      8  C   UNL     1       2.244   6.972  19.675  0.00  0.00    +0.000 A 
ATOM      9  C   UNL     1       1.571   8.076  20.181  0.00  0.00    +0.000 A 
ATOM     10  C   UNL     1       1.418   9.217  19.367  0.00  0.00    +0.000 A 
ATOM     11  C   UNL     1       1.978   9.213  18.064  0.00  0.00    +0.000 A 
ATOM     12  C   UNL     1       2.661   8.102  17.561  0.00  0.00    +0.000 A 
ATOM     13  C   UNL     1       2.767   7.002  18.385  0.00  0.00    +0.000 A 
ATOM     14  C   UNL     1       3.420   5.716  18.122  0.00  0.00    +0.000 C 
ATOM     15  O   UNL     1       4.014   5.434  17.099  0.00  0.00    +0.000 OA
BRANCH   6  17
ATOM     16  C   UNL     1       2.986   2.701  20.229  0.00  0.00    +0.000 C 
ATOM     17  C   UNL     1       3.880   3.663  19.465  0.00  0.00    +0.000 C 
ENDBRANCH   6  17
ENDBRANCH   1  10
BRANCH   4  18
ATOM     18  C   UNL     1      -2.320  12.751  20.517  0.00  0.00    +0.000 C 
ATOM     19  C   UNL     1      -3.031  12.690  21.645  0.00  0.00    +0.000 C 
ATOM     20  N   UNL     1      -4.259  13.280  21.814  0.00  0.00    +0.000 N 
ATOM     21  C   UNL     1      -4.743  12.996  23.077  0.00  0.00    +0.000 C 
ATOM     22  S   UNL     1      -6.192  13.493  23.683  0.00  0.00    +0.000 S 
ATOM     23  N   UNL     1      -3.817  12.233  23.731  0.00  0.00    +0.000 N 
ATOM     24  C   UNL     1      -2.721  11.991  22.943  0.00  0.00    +0.000 C 
ATOM     25  O   UNL     1      -1.730  11.360  23.250  0.00  0.00    +0.000 OA
ATOM     26  H   UNL     1      -4.762  13.820  21.123  0.00  0.00    +0.000 HD
ATOM     27  H   UNL     1      -3.907  11.886  24.672  0.00  0.00    +0.000 HD
ENDBRANCH   4  18
TORSDOF 3
ENDMDL
MODEL 6
REMARK VINA RESULT:      -7.3      1.495      2.164
REMARK  Name = 
REMARK  4 active torsions:
REMARK  status: ('A' for Active; 'I' for Inactive)
REMARK    1  A    between atoms: C_1  and  C_2
REMARK    2  A    between atoms: C_2  and  N_3
REMARK    3  A    between atoms: C_7  and  C_8
REMARK    4  A    between atoms: C_11  and  C_12
REMARK                            x       y       z     vdW  Elec       q    Type
REMARK                         _______ _______ _______ _____ _____    ______ ____
ROOT
ATOM      1  C   UNL     1       1.085   9.320  19.956  0.00  0.00    +0.000 A 
ATOM      2  C   UNL     1       0.940   9.778  21.255  0.00  0.00    +0.000 A 
ATOM      3  C   UNL     1       0.191  10.987  21.337  0.00  0.00    +0.000 A 
ATOM      4  C   UNL     1      -0.237  11.429  20.102  0.00  0.00    +0.000 A 
ATOM      5  S   UNL     1       0.310  10.386  18.855  0.00  0.00    +0.000 S 
ENDROOT
BRANCH   1  10
ATOM      6  N   UNL     1       3.565   3.839  19.225  0.00  0.00    +0.000 N 
ATOM      7  C   UNL     1       2.797   4.498  20.270  0.00  0.00    +0.000 C 
ATOM      8  C   UNL     1       2.578   5.859  19.696  0.00  0.00    +0.000 A 
ATOM      9  C   UNL     1       1.888   6.944  20.219  0.00  0.00    +0.000 A 
ATOM     10  C   UNL     1       1.824   8.139  19.473  0.00  0.00    +0.000 A 
ATOM     11  C   UNL     1       2.488   8.206  18.222  0.00  0.00    +0.000 A 
ATOM     12  C   UNL     1       3.188   7.112  17.703  0.00  0.00    +0.000 A 
ATOM     13  C   UNL     1       3.206   5.959  18.457  0.00  0.00    +0.000 A 
ATOM     14  C   UNL     1       3.853   4.677  18.163  0.00  0.00    +0.000 C 
ATOM     15  O   UNL     1       4.523   4.447  17.174  0.00  0.00    +0.000 OA
BRANCH   6  17
ATOM     16  C   UNL     1       3.505   1.487  18.511  0.00  0.00    +0.000 C 
ATOM     17  C   UNL     1       4.162   2.531  19.398  0.00  0.00    +0.000 C 
ENDBRANCH   6  17
ENDBRANCH   1  10
BRANCH   4  18
ATOM     18  C   UNL     1      -0.989  12.586  19.776  0.00  0.00    +0.000 C 
ATOM     19  C   UNL     1      -0.415  13.734  19.411  0.00  0.00    +0.000 C 
ATOM     20  N   UNL     1      -1.107  14.886  19.130  0.00  0.00    +0.000 N 
ATOM     21  C   UNL     1      -0.219  15.900  18.822  0.00  0.00    +0.000 C 
ATOM     22  S   UNL     1      -0.628  17.450  18.443  0.00  0.00    +0.000 S 
ATOM     23  N   UNL     1       1.049  15.396  18.890  0.00  0.00    +0.000 N 
ATOM     24  C   UNL     1       1.044  14.069  19.238  0.00  0.00    +0.000 C 
ATOM     25  O   UNL     1       2.011  13.347  19.362  0.00  0.00    +0.000 OA
ATOM     26  H   UNL     1      -2.110  15.002  19.164  0.00  0.00    +0.000 HD
ATOM     27  H   UNL     1       1.893  15.915  18.708  0.00  0.00    +0.000 HD
ENDBRANCH   4  18
TORSDOF 3
ENDMDL
MODEL 7
REMARK VINA RESULT:      -7.2      2.699      3.257
REMARK  Name = 
REMARK  4 active torsions:
REMARK  status: ('A' for Active; 'I' for Inactive)
REMARK    1  A    between atoms: C_1  and  C_2
REMARK    2  A    between atoms: C_2  and  N_3
REMARK    3  A    between atoms: C_7  and  C_8
REMARK    4  A    between atoms: C_11  and  C_12
REMARK                            x       y       z     vdW  Elec       q    Type
REMARK                         _______ _______ _______ _____ _____    ______ ____
ROOT
ATOM      1  C   UNL     1       0.582   9.287  21.129  0.00  0.00    +0.000 A 
ATOM      2  C   UNL     1      -0.268   9.061  22.199  0.00  0.00    +0.000 A 
ATOM      3  C   UNL     1      -0.789  10.262  22.758  0.00  0.00    +0.000 A 
ATOM      4  C   UNL     1      -0.341  11.389  22.100  0.00  0.00    +0.000 A 
ATOM      5  S   UNL     1       0.737  10.971  20.834  0.00  0.00    +0.000 S 
ENDROOT
BRANCH   1  10
ATOM      6  N   UNL     1       3.353   4.336  18.997  0.00  0.00    +0.000 N 
ATOM      7  C   UNL     1       2.680   4.695  20.236  0.00  0.00    +0.000 C 
ATOM      8  C   UNL     1       2.286   6.114  19.987  0.00  0.00    +0.000 A 
ATOM      9  C   UNL     1       1.590   6.999  20.799  0.00  0.00    +0.000 A 
ATOM     10  C   UNL     1       1.339   8.305  20.331  0.00  0.00    +0.000 A 
ATOM     11  C   UNL     1       1.827   8.685  19.054  0.00  0.00    +0.000 A 
ATOM     12  C   UNL     1       2.534   7.791  18.244  0.00  0.00    +0.000 A 
ATOM     13  C   UNL     1       2.737   6.520  18.734  0.00  0.00    +0.000 A 
ATOM     14  C   UNL     1       3.436   5.393  18.108  0.00  0.00    +0.000 C 
ATOM     15  O   UNL     1       3.986   5.432  17.024  0.00  0.00    +0.000 OA
BRANCH   6  17
ATOM     16  C   UNL     1       3.213   2.043  18.122  0.00  0.00    +0.000 C 
ATOM     17  C   UNL     1       4.064   3.086  18.826  0.00  0.00    +0.000 C 
ENDBRANCH   6  17
ENDBRANCH   1  10
BRANCH   4  18
ATOM     18  C   UNL     1      -0.625  12.754  22.365  0.00  0.00    +0.000 C 
ATOM     19  C   UNL     1      -1.534  13.443  21.674  0.00  0.00    +0.000 C 
ATOM     20  N   UNL     1      -1.806  14.774  21.873  0.00  0.00    +0.000 N 
ATOM     21  C   UNL     1      -2.768  15.194  20.973  0.00  0.00    +0.000 C 
ATOM     22  S   UNL     1      -3.369  16.723  20.855  0.00  0.00    +0.000 S 
ATOM     23  N   UNL     1      -3.129  14.125  20.201  0.00  0.00    +0.000 N 
ATOM     24  C   UNL     1      -2.435  12.995  20.552  0.00  0.00    +0.000 C 
ATOM     25  O   UNL     1      -2.548  11.891  20.061  0.00  0.00    +0.000 OA
ATOM     26  H   UNL     1      -1.362  15.379  22.551  0.00  0.00    +0.000 HD
ATOM     27  H   UNL     1      -3.816  14.144  19.465  0.00  0.00    +0.000 HD
ENDBRANCH   4  18
TORSDOF 3
ENDMDL
MODEL 8
REMARK VINA RESULT:      -7.2      2.905      3.710
REMARK  Name = 
REMARK  4 active torsions:
REMARK  status: ('A' for Active; 'I' for Inactive)
REMARK    1  A    between atoms: C_1  and  C_2
REMARK    2  A    between atoms: C_2  and  N_3
REMARK    3  A    between atoms: C_7  and  C_8
REMARK    4  A    between atoms: C_11  and  C_12
REMARK                            x       y       z     vdW  Elec       q    Type
REMARK                         _______ _______ _______ _____ _____    ______ ____
ROOT
ATOM      1  C   UNL     1       1.151   9.883  19.319  0.00  0.00    +0.000 A 
ATOM      2  C   UNL     1       1.374  11.168  18.852  0.00  0.00    +0.000 A 
ATOM      3  C   UNL     1       0.431  12.112  19.351  0.00  0.00    +0.000 A 
ATOM      4  C   UNL     1      -0.491  11.538  20.202  0.00  0.00    +0.000 A 
ATOM      5  S   UNL     1      -0.219   9.852  20.353  0.00  0.00    +0.000 S 
ENDROOT
BRANCH   1  10
ATOM      6  N   UNL     1       3.557   4.321  19.282  0.00  0.00    +0.000 N 
ATOM      7  C   UNL     1       2.773   5.104  20.223  0.00  0.00    +0.000 C 
ATOM      8  C   UNL     1       2.592   6.395  19.494  0.00  0.00    +0.000 A 
ATOM      9  C   UNL     1       1.907   7.542  19.871  0.00  0.00    +0.000 A 
ATOM     10  C   UNL     1       1.883   8.645  18.994  0.00  0.00    +0.000 A 
ATOM     11  C   UNL     1       2.581   8.561  17.762  0.00  0.00    +0.000 A 
ATOM     12  C   UNL     1       3.276   7.406  17.390  0.00  0.00    +0.000 A 
ATOM     13  C   UNL     1       3.254   6.346  18.269  0.00  0.00    +0.000 A 
ATOM     14  C   UNL     1       3.887   5.030  18.140  0.00  0.00    +0.000 C 
ATOM     15  O   UNL     1       4.579   4.681  17.203  0.00  0.00    +0.000 OA
BRANCH   6  17
ATOM     16  C   UNL     1       3.384   1.892  18.944  0.00  0.00    +0.000 C 
ATOM     17  C   UNL     1       4.127   3.033  19.618  0.00  0.00    +0.000 C 
ENDBRANCH   6  17
ENDBRANCH   1  10
BRANCH   4  18
ATOM     18  C   UNL     1      -1.580  12.143  20.881  0.00  0.00    +0.000 C 
ATOM     19  C   UNL     1      -2.768  12.332  20.303  0.00  0.00    +0.000 C 
ATOM     20  N   UNL     1      -3.832  12.950  20.913  0.00  0.00    +0.000 N 
ATOM     21  C   UNL     1      -4.897  13.020  20.035  0.00  0.00    +0.000 C 
ATOM     22  S   UNL     1      -6.361  13.703  20.355  0.00  0.00    +0.000 S 
ATOM     23  N   UNL     1      -4.524  12.430  18.859  0.00  0.00    +0.000 N 
ATOM     24  C   UNL     1      -3.235  11.966  18.918  0.00  0.00    +0.000 C 
ATOM     25  O   UNL     1      -2.631  11.385  18.040  0.00  0.00    +0.000 OA
ATOM     26  H   UNL     1      -3.844  13.328  21.850  0.00  0.00    +0.000 HD
ATOM     27  H   UNL     1      -5.108  12.336  18.044  0.00  0.00    +0.000 HD
ENDBRANCH   4  18
TORSDOF 3
ENDMDL
MODEL 9
REMARK VINA RESULT:      -7.1      1.952      2.835
REMARK  Name = 
REMARK  4 active torsions:
REMARK  status: ('A' for Active; 'I' for Inactive)
REMARK    1  A    between atoms: C_1  and  C_2
REMARK    2  A    between atoms: C_2  and  N_3
REMARK    3  A    between atoms: C_7  and  C_8
REMARK    4  A    between atoms: C_11  and  C_12
REMARK                            x       y       z     vdW  Elec       q    Type
REMARK                         _______ _______ _______ _____ _____    ______ ____
ROOT
ATOM      1  C   UNL     1       0.859  10.051  19.911  0.00  0.00    +0.000 A 
ATOM      2  C   UNL     1       0.706  10.642  21.154  0.00  0.00    +0.000 A 
ATOM      3  C   UNL     1       0.121  11.938  21.086  0.00  0.00    +0.000 A 
ATOM      4  C   UNL     1      -0.178  12.315  19.792  0.00  0.00    +0.000 A 
ATOM      5  S   UNL     1       0.292  11.101  18.676  0.00  0.00    +0.000 S 
ENDROOT
BRANCH   1  10
ATOM      6  N   UNL     1       2.727   4.286  19.869  0.00  0.00    +0.000 N 
ATOM      7  C   UNL     1       2.051   5.149  20.824  0.00  0.00    +0.000 C 
ATOM      8  C   UNL     1       1.970   6.444  20.085  0.00  0.00    +0.000 A 
ATOM      9  C   UNL     1       1.408   7.654  20.468  0.00  0.00    +0.000 A 
ATOM     10  C   UNL     1       1.460   8.746  19.579  0.00  0.00    +0.000 A 
ATOM     11  C   UNL     1       2.107   8.585  18.327  0.00  0.00    +0.000 A 
ATOM     12  C   UNL     1       2.678   7.366  17.948  0.00  0.00    +0.000 A 
ATOM     13  C   UNL     1       2.585   6.321  18.841  0.00  0.00    +0.000 A 
ATOM     14  C   UNL     1       3.087   4.950  18.709  0.00  0.00    +0.000 C 
ATOM     15  O   UNL     1       3.712   4.528  17.755  0.00  0.00    +0.000 OA
BRANCH   6  17
ATOM     16  C   UNL     1       2.614   2.477  21.529  0.00  0.00    +0.000 C 
ATOM     17  C   UNL     1       3.184   2.953  20.204  0.00  0.00    +0.000 C 
ENDBRANCH   6  17
ENDBRANCH   1  10
BRANCH   4  18
ATOM     18  C   UNL     1      -0.752  13.524  19.322  0.00  0.00    +0.000 C 
ATOM     19  C   UNL     1      -0.015  14.587  18.993  0.00  0.00    +0.000 C 
ATOM     20  N   UNL     1      -0.535  15.786  18.575  0.00  0.00    +0.000 N 
ATOM     21  C   UNL     1       0.489  16.687  18.352  0.00  0.00    +0.000 C 
ATOM     22  S   UNL     1       0.303  18.248  17.860  0.00  0.00    +0.000 S 
ATOM     23  N   UNL     1       1.676  16.061  18.612  0.00  0.00    +0.000 N 
ATOM     24  C   UNL     1       1.482  14.763  19.007  0.00  0.00    +0.000 C 
ATOM     25  O   UNL     1       2.341  13.953  19.291  0.00  0.00    +0.000 OA
ATOM     26  H   UNL     1      -1.516  16.005  18.467  0.00  0.00    +0.000 HD
ATOM     27  H   UNL     1       2.587  16.481  18.526  0.00  0.00    +0.000 HD
ENDBRANCH   4  18
TORSDOF 3
ENDMDL
