MODEL 1
REMARK VINA RESULT:      -7.1      0.000      0.000
REMARK  Name = 
REMARK  4 active torsions:
REMARK  status: ('A' for Active; 'I' for Inactive)
REMARK    1  A    between atoms: C_1  and  O_2
REMARK    2  A    between atoms: O_2  and  C_3
REMARK    3  A    between atoms: C_9  and  C_10
REMARK    4  A    between atoms: C_19  and  N_20
REMARK                            x       y       z     vdW  Elec       q    Type
REMARK                         _______ _______ _______ _____ _____    ______ ____
ROOT
ATOM      1  C   UNL     1       1.529   7.609  19.960  0.00  0.00    +0.000 A 
ATOM      2  C   UNL     1       1.847   8.597  19.009  0.00  0.00    +0.000 A 
ATOM      3 BR   UNL     1       1.106  10.348  19.112  0.00  0.00    +0.000 Br
ATOM      4  C   UNL     1       2.741   8.346  17.953  0.00  0.00    +0.000 A 
ATOM      5  C   UNL     1       3.340   7.093  17.822  0.00  0.00    +0.000 A 
ATOM      6  C   UNL     1       4.320   6.805  16.784  0.00  0.00    +0.000 A 
ATOM      7  C   UNL     1       4.904   5.599  16.699  0.00  0.00    +0.000 A 
ATOM      8  C   UNL     1       4.522   4.512  17.638  0.00  0.00    +0.000 A 
ATOM      9  O   UNL     1       5.024   3.393  17.566  0.00  0.00    +0.000 OA
ATOM     10  O   UNL     1       3.570   4.814  18.600  0.00  0.00    +0.000 OA
ATOM     11  C   UNL     1       3.007   6.099  18.732  0.00  0.00    +0.000 A 
ATOM     12  C   UNL     1       2.111   6.351  19.780  0.00  0.00    +0.000 A 
ENDROOT
BRANCH   7  13
ATOM     13  C   UNL     1       5.899   5.384  15.710  0.00  0.00    +0.000 A 
ATOM     14  N   UNL     1       7.122   5.859  15.571  0.00  0.00    +0.000 NA
ATOM     15  N   UNL     1       7.639   5.284  14.437  0.00  0.00    +0.000 NA
ATOM     16  N   UNL     1       6.760   4.469  13.874  0.00  0.00    +0.000 NA
ATOM     17  N   UNL     1       5.678   4.528  14.657  0.00  0.00    +0.000 N 
ATOM     18  H   UNL     1       4.851   3.979  14.437  0.00  0.00    +0.000 HD
ENDBRANCH   7  13
BRANCH  12  19
ATOM     19  N   UNL     1       1.792   5.236  20.635  0.00  0.00    +0.000 N 
ATOM     20  O   UNL     1       2.593   4.970  21.539  0.00  0.00    +0.000 OA
ATOM     21  O   UNL     1       0.738   4.631  20.392  0.00  0.00    +0.000 OA
ENDBRANCH  12  19
BRANCH   1  23
ATOM     22  C   UNL     1       1.126   8.668  22.080  0.00  0.00    +0.000 C 
ATOM     23  O   UNL     1       0.640   7.977  20.931  0.00  0.00    +0.000 OA
ENDBRANCH   1  23
TORSDOF 3
ENDMDL
MODEL 2
REMARK VINA RESULT:      -7.0      2.529      3.857
REMARK  Name = 
REMARK  4 active torsions:
REMARK  status: ('A' for Active; 'I' for Inactive)
REMARK    1  A    between atoms: C_1  and  O_2
REMARK    2  A    between atoms: O_2  and  C_3
REMARK    3  A    between atoms: C_9  and  C_10
REMARK    4  A    between atoms: C_19  and  N_20
REMARK                            x       y       z     vdW  Elec       q    Type
REMARK                         _______ _______ _______ _____ _____    ______ ____
ROOT
ATOM      1  C   UNL     1       0.415  10.981  20.638  0.00  0.00    +0.000 A 
ATOM      2  C   UNL     1       0.771  11.267  19.305  0.00  0.00    +0.000 A 
ATOM      3 BR   UNL     1       0.480  12.989  18.549  0.00  0.00    +0.000 Br
ATOM      4  C   UNL     1       1.375  10.302  18.480  0.00  0.00    +0.000 A 
ATOM      5  C   UNL     1       1.637   9.023  18.969  0.00  0.00    +0.000 A 
ATOM      6  C   UNL     1       2.318   8.011  18.173  0.00  0.00    +0.000 A 
ATOM      7  C   UNL     1       2.585   6.797  18.680  0.00  0.00    +0.000 A 
ATOM      8  C   UNL     1       2.144   6.442  20.054  0.00  0.00    +0.000 A 
ATOM      9  O   UNL     1       2.356   5.330  20.531  0.00  0.00    +0.000 OA
ATOM     10  O   UNL     1       1.480   7.422  20.776  0.00  0.00    +0.000 OA
ATOM     11  C   UNL     1       1.258   8.718  20.270  0.00  0.00    +0.000 A 
ATOM     12  C   UNL     1       0.651   9.680  21.089  0.00  0.00    +0.000 A 
ENDROOT
BRANCH   7  13
ATOM     13  C   UNL     1       3.306   5.864  17.888  0.00  0.00    +0.000 A 
ATOM     14  N   UNL     1       4.432   5.971  17.206  0.00  0.00    +0.000 NA
ATOM     15  N   UNL     1       4.671   4.737  16.652  0.00  0.00    +0.000 NA
ATOM     16  N   UNL     1       3.717   3.877  16.975  0.00  0.00    +0.000 NA
ATOM     17  N   UNL     1       2.867   4.571  17.740  0.00  0.00    +0.000 N 
ATOM     18  H   UNL     1       2.037   4.126  18.125  0.00  0.00    +0.000 HD
ENDBRANCH   7  13
BRANCH  12  19
ATOM     19  N   UNL     1       0.248   9.244  22.401  0.00  0.00    +0.000 N 
ATOM     20  O   UNL     1      -0.772   8.551  22.478  0.00  0.00    +0.000 OA
ATOM     21  O   UNL     1       0.961   9.602  23.350  0.00  0.00    +0.000 OA
ENDBRANCH  12  19
BRANCH   1  23
ATOM     22  C   UNL     1      -1.590  11.995  21.492  0.00  0.00    +0.000 C 
ATOM     23  O   UNL     1      -0.173  12.002  21.332  0.00  0.00    +0.000 OA
ENDBRANCH   1  23
TORSDOF 3
ENDMDL
MODEL 3
REMARK VINA RESULT:      -7.0      0.153      1.022
REMARK  Name = 
REMARK  4 active torsions:
REMARK  status: ('A' for Active; 'I' for Inactive)
REMARK    1  A    between atoms: C_1  and  O_2
REMARK    2  A    between atoms: O_2  and  C_3
REMARK    3  A    between atoms: C_9  and  C_10
REMARK    4  A    between atoms: C_19  and  N_20
REMARK                            x       y       z     vdW  Elec       q    Type
REMARK                         _______ _______ _______ _____ _____    ______ ____
ROOT
ATOM      1  C   UNL     1       1.605   7.663  19.915  0.00  0.00    +0.000 A 
ATOM      2  C   UNL     1       1.930   8.636  18.950  0.00  0.00    +0.000 A 
ATOM      3 BR   UNL     1       1.241  10.407  19.057  0.00  0.00    +0.000 Br
ATOM      4  C   UNL     1       2.793   8.352  17.877  0.00  0.00    +0.000 A 
ATOM      5  C   UNL     1       3.352   7.082  17.742  0.00  0.00    +0.000 A 
ATOM      6  C   UNL     1       4.301   6.759  16.685  0.00  0.00    +0.000 A 
ATOM      7  C   UNL     1       4.848   5.536  16.596  0.00  0.00    +0.000 A 
ATOM      8  C   UNL     1       4.456   4.466  17.551  0.00  0.00    +0.000 A 
ATOM      9  O   UNL     1       4.924   3.333  17.476  0.00  0.00    +0.000 OA
ATOM     10  O   UNL     1       3.535   4.802  18.531  0.00  0.00    +0.000 OA
ATOM     11  C   UNL     1       3.011   6.103  18.666  0.00  0.00    +0.000 A 
ATOM     12  C   UNL     1       2.145   6.388  19.732  0.00  0.00    +0.000 A 
ENDROOT
BRANCH   7  13
ATOM     13  C   UNL     1       5.814   5.286  15.587  0.00  0.00    +0.000 A 
ATOM     14  N   UNL     1       5.753   4.607  14.456  0.00  0.00    +0.000 NA
ATOM     15  N   UNL     1       6.985   4.727  13.862  0.00  0.00    +0.000 NA
ATOM     16  N   UNL     1       7.802   5.459  14.603  0.00  0.00    +0.000 NA
ATOM     17  N   UNL     1       7.083   5.807  15.675  0.00  0.00    +0.000 N 
ATOM     18  H   UNL     1       7.491   6.386  16.405  0.00  0.00    +0.000 HD
ENDBRANCH   7  13
BRANCH  12  19
ATOM     19  N   UNL     1       1.814   5.288  20.601  0.00  0.00    +0.000 N 
ATOM     20  O   UNL     1       0.797   4.640  20.329  0.00  0.00    +0.000 OA
ATOM     21  O   UNL     1       2.578   5.081  21.554  0.00  0.00    +0.000 OA
ENDBRANCH  12  19
BRANCH   1  23
ATOM     22  C   UNL     1       1.282   8.721  22.049  0.00  0.00    +0.000 C 
ATOM     23  O   UNL     1       0.748   8.063  20.903  0.00  0.00    +0.000 OA
ENDBRANCH   1  23
TORSDOF 3
ENDMDL
MODEL 4
REMARK VINA RESULT:      -6.7      4.056      6.320
REMARK  Name = 
REMARK  4 active torsions:
REMARK  status: ('A' for Active; 'I' for Inactive)
REMARK    1  A    between atoms: C_1  and  O_2
REMARK    2  A    between atoms: O_2  and  C_3
REMARK    3  A    between atoms: C_9  and  C_10
REMARK    4  A    between atoms: C_19  and  N_20
REMARK                            x       y       z     vdW  Elec       q    Type
REMARK                         _______ _______ _______ _____ _____    ______ ____
ROOT
ATOM      1  C   UNL     1       3.308   4.113  18.968  0.00  0.00    +0.000 A 
ATOM      2  C   UNL     1       3.843   4.981  17.997  0.00  0.00    +0.000 A 
ATOM      3 BR   UNL     1       5.028   4.350  16.647  0.00  0.00    +0.000 Br
ATOM      4  C   UNL     1       3.512   6.347  17.965  0.00  0.00    +0.000 A 
ATOM      5  C   UNL     1       2.635   6.879  18.910  0.00  0.00    +0.000 A 
ATOM      6  C   UNL     1       2.213   8.273  18.878  0.00  0.00    +0.000 A 
ATOM      7  C   UNL     1       1.343   8.752  19.782  0.00  0.00    +0.000 A 
ATOM      8  C   UNL     1       0.830   7.878  20.869  0.00  0.00    +0.000 A 
ATOM      9  O   UNL     1       0.052   8.299  21.722  0.00  0.00    +0.000 OA
ATOM     10  O   UNL     1       1.269   6.563  20.881  0.00  0.00    +0.000 OA
ATOM     11  C   UNL     1       2.129   6.041  19.894  0.00  0.00    +0.000 A 
ATOM     12  C   UNL     1       2.466   4.681  19.926  0.00  0.00    +0.000 A 
ENDROOT
BRANCH   7  13
ATOM     13  C   UNL     1       0.913  10.101  19.675  0.00  0.00    +0.000 A 
ATOM     14  N   UNL     1       0.404  10.787  18.668  0.00  0.00    +0.000 NA
ATOM     15  N   UNL     1       0.145  12.049  19.146  0.00  0.00    +0.000 NA
ATOM     16  N   UNL     1       0.487  12.154  20.421  0.00  0.00    +0.000 NA
ATOM     17  N   UNL     1       0.965  10.950  20.754  0.00  0.00    +0.000 N 
ATOM     18  H   UNL     1       1.296  10.769  21.699  0.00  0.00    +0.000 HD
ENDBRANCH   7  13
BRANCH  12  19
ATOM     19  N   UNL     1       1.930   3.913  21.021  0.00  0.00    +0.000 N 
ATOM     20  O   UNL     1       2.577   3.904  22.074  0.00  0.00    +0.000 OA
ATOM     21  O   UNL     1       0.861   3.321  20.815  0.00  0.00    +0.000 OA
ENDBRANCH  12  19
BRANCH   1  23
ATOM     22  C   UNL     1       2.870   1.861  18.250  0.00  0.00    +0.000 C 
ATOM     23  O   UNL     1       3.717   2.809  18.895  0.00  0.00    +0.000 OA
ENDBRANCH   1  23
TORSDOF 3
ENDMDL
MODEL 5
REMARK VINA RESULT:      -6.7      3.860      6.136
REMARK  Name = 
REMARK  4 active torsions:
REMARK  status: ('A' for Active; 'I' for Inactive)
REMARK    1  A    between atoms: C_1  and  O_2
REMARK    2  A    between atoms: O_2  and  C_3
REMARK    3  A    between atoms: C_9  and  C_10
REMARK    4  A    between atoms: C_19  and  N_20
REMARK                            x       y       z     vdW  Elec       q    Type
REMARK                         _______ _______ _______ _____ _____    ______ ____
ROOT
ATOM      1  C   UNL     1       3.342   4.514  18.570  0.00  0.00    +0.000 A 
ATOM      2  C   UNL     1       3.925   5.281  17.543  0.00  0.00    +0.000 A 
ATOM      3 BR   UNL     1       5.080   4.494  16.251  0.00  0.00    +0.000 Br
ATOM      4  C   UNL     1       3.665   6.656  17.411  0.00  0.00    +0.000 A 
ATOM      5  C   UNL     1       2.814   7.300  18.308  0.00  0.00    +0.000 A 
ATOM      6  C   UNL     1       2.465   8.708  18.174  0.00  0.00    +0.000 A 
ATOM      7  C   UNL     1       1.618   9.295  19.034  0.00  0.00    +0.000 A 
ATOM      8  C   UNL     1       1.056   8.529  20.177  0.00  0.00    +0.000 A 
ATOM      9  O   UNL     1       0.298   9.051  20.992  0.00  0.00    +0.000 OA
ATOM     10  O   UNL     1       1.426   7.198  20.287  0.00  0.00    +0.000 OA
ATOM     11  C   UNL     1       2.262   6.563  19.347  0.00  0.00    +0.000 A 
ATOM     12  C   UNL     1       2.527   5.192  19.479  0.00  0.00    +0.000 A 
ENDROOT
BRANCH   7  13
ATOM     13  C   UNL     1       1.259  10.653  18.827  0.00  0.00    +0.000 A 
ATOM     14  N   UNL     1       1.982  11.729  18.578  0.00  0.00    +0.000 NA
ATOM     15  N   UNL     1       1.098  12.771  18.441  0.00  0.00    +0.000 NA
ATOM     16  N   UNL     1      -0.150  12.361  18.604  0.00  0.00    +0.000 NA
ATOM     17  N   UNL     1      -0.057  11.049  18.846  0.00  0.00    +0.000 N 
ATOM     18  H   UNL     1      -0.894  10.493  19.004  0.00  0.00    +0.000 HD
ENDBRANCH   7  13
BRANCH  12  19
ATOM     19  N   UNL     1       1.948   4.534  20.622  0.00  0.00    +0.000 N 
ATOM     20  O   UNL     1       0.817   4.054  20.484  0.00  0.00    +0.000 OA
ATOM     21  O   UNL     1       2.633   4.504  21.654  0.00  0.00    +0.000 OA
ENDBRANCH  12  19
BRANCH   1  23
ATOM     22  C   UNL     1       2.767   2.237  18.057  0.00  0.00    +0.000 C 
ATOM     23  O   UNL     1       3.682   3.189  18.594  0.00  0.00    +0.000 OA
ENDBRANCH   1  23
TORSDOF 3
ENDMDL
MODEL 6
REMARK VINA RESULT:      -6.7      3.701      6.410
REMARK  Name = 
REMARK  4 active torsions:
REMARK  status: ('A' for Active; 'I' for Inactive)
REMARK    1  A    between atoms: C_1  and  O_2
REMARK    2  A    between atoms: O_2  and  C_3
REMARK    3  A    between atoms: C_9  and  C_10
REMARK    4  A    between atoms: C_19  and  N_20
REMARK                            x       y       z     vdW  Elec       q    Type
REMARK                         _______ _______ _______ _____ _____    ______ ____
ROOT
ATOM      1  C   UNL     1       3.456   3.821  19.497  0.00  0.00    +0.000 A 
ATOM      2  C   UNL     1       2.531   3.998  20.545  0.00  0.00    +0.000 A 
ATOM      3 BR   UNL     1       2.184   2.615  21.806  0.00  0.00    +0.000 Br
ATOM      4  C   UNL     1       1.838   5.209  20.721  0.00  0.00    +0.000 A 
ATOM      5  C   UNL     1       2.053   6.275  19.848  0.00  0.00    +0.000 A 
ATOM      6  C   UNL     1       1.407   7.568  20.028  0.00  0.00    +0.000 A 
ATOM      7  C   UNL     1       1.656   8.588  19.190  0.00  0.00    +0.000 A 
ATOM      8  C   UNL     1       2.562   8.401  18.027  0.00  0.00    +0.000 A 
ATOM      9  O   UNL     1       2.786   9.311  17.233  0.00  0.00    +0.000 OA
ATOM     10  O   UNL     1       3.142   7.151  17.874  0.00  0.00    +0.000 OA
ATOM     11  C   UNL     1       2.935   6.101  18.790  0.00  0.00    +0.000 A 
ATOM     12  C   UNL     1       3.620   4.891  18.614  0.00  0.00    +0.000 A 
ENDROOT
BRANCH   7  13
ATOM     13  C   UNL     1       1.052   9.848  19.441  0.00  0.00    +0.000 A 
ATOM     14  N   UNL     1       0.842  10.518  20.559  0.00  0.00    +0.000 NA
ATOM     15  N   UNL     1       0.241  11.699  20.199  0.00  0.00    +0.000 NA
ATOM     16  N   UNL     1       0.073  11.768  18.887  0.00  0.00    +0.000 NA
ATOM     17  N   UNL     1       0.572  10.622  18.412  0.00  0.00    +0.000 N 
ATOM     18  H   UNL     1       0.566  10.431  17.413  0.00  0.00    +0.000 HD
ENDBRANCH   7  13
BRANCH  12  19
ATOM     19  N   UNL     1       4.468   4.797  17.454  0.00  0.00    +0.000 N 
ATOM     20  O   UNL     1       5.642   5.165  17.581  0.00  0.00    +0.000 OA
ATOM     21  O   UNL     1       3.950   4.355  16.418  0.00  0.00    +0.000 OA
ENDBRANCH  12  19
BRANCH   1  23
ATOM     22  C   UNL     1       3.504   1.608  18.561  0.00  0.00    +0.000 C 
ATOM     23  O   UNL     1       4.056   2.594  19.430  0.00  0.00    +0.000 OA
ENDBRANCH   1  23
TORSDOF 3
ENDMDL
MODEL 7
REMARK VINA RESULT:      -6.6      2.419      3.552
REMARK  Name = 
REMARK  4 active torsions:
REMARK  status: ('A' for Active; 'I' for Inactive)
REMARK    1  A    between atoms: C_1  and  O_2
REMARK    2  A    between atoms: O_2  and  C_3
REMARK    3  A    between atoms: C_9  and  C_10
REMARK    4  A    between atoms: C_19  and  N_20
REMARK                            x       y       z     vdW  Elec       q    Type
REMARK                         _______ _______ _______ _____ _____    ______ ____
ROOT
ATOM      1  C   UNL     1      -0.103  10.763  20.318  0.00  0.00    +0.000 A 
ATOM      2  C   UNL     1       0.154  11.142  18.986  0.00  0.00    +0.000 A 
ATOM      3 BR   UNL     1      -0.547  12.757  18.262  0.00  0.00    +0.000 Br
ATOM      4  C   UNL     1       0.955  10.358  18.137  0.00  0.00    +0.000 A 
ATOM      5  C   UNL     1       1.519   9.171  18.601  0.00  0.00    +0.000 A 
ATOM      6  C   UNL     1       2.407   8.359  17.779  0.00  0.00    +0.000 A 
ATOM      7  C   UNL     1       2.961   7.236  18.262  0.00  0.00    +0.000 A 
ATOM      8  C   UNL     1       2.639   6.768  19.636  0.00  0.00    +0.000 A 
ATOM      9  O   UNL     1       3.114   5.731  20.092  0.00  0.00    +0.000 OA
ATOM     10  O   UNL     1       1.774   7.554  20.382  0.00  0.00    +0.000 OA
ATOM     11  C   UNL     1       1.244   8.768  19.901  0.00  0.00    +0.000 A 
ATOM     12  C   UNL     1       0.441   9.548  20.744  0.00  0.00    +0.000 A 
ENDROOT
BRANCH   7  13
ATOM     13  C   UNL     1       3.869   6.510  17.446  0.00  0.00    +0.000 A 
ATOM     14  N   UNL     1       3.943   5.230  17.132  0.00  0.00    +0.000 NA
ATOM     15  N   UNL     1       5.012   5.098  16.280  0.00  0.00    +0.000 NA
ATOM     16  N   UNL     1       5.598   6.267  16.068  0.00  0.00    +0.000 NA
ATOM     17  N   UNL     1       4.896   7.146  16.790  0.00  0.00    +0.000 N 
ATOM     18  H   UNL     1       5.148   8.131  16.792  0.00  0.00    +0.000 HD
ENDBRANCH   7  13
BRANCH  12  19
ATOM     19  N   UNL     1       0.174   9.012  22.054  0.00  0.00    +0.000 N 
ATOM     20  O   UNL     1       0.920   9.368  22.973  0.00  0.00    +0.000 OA
ATOM     21  O   UNL     1      -0.785   8.233  22.152  0.00  0.00    +0.000 OA
ENDBRANCH  12  19
BRANCH   1  23
ATOM     22  C   UNL     1      -0.293  12.551  21.913  0.00  0.00    +0.000 C 
ATOM     23  O   UNL     1      -0.904  11.607  21.036  0.00  0.00    +0.000 OA
ENDBRANCH   1  23
TORSDOF 3
ENDMDL
MODEL 8
REMARK VINA RESULT:      -6.6      3.614      6.932
REMARK  Name = 
REMARK  4 active torsions:
REMARK  status: ('A' for Active; 'I' for Inactive)
REMARK    1  A    between atoms: C_1  and  O_2
REMARK    2  A    between atoms: O_2  and  C_3
REMARK    3  A    between atoms: C_9  and  C_10
REMARK    4  A    between atoms: C_19  and  N_20
REMARK                            x       y       z     vdW  Elec       q    Type
REMARK                         _______ _______ _______ _____ _____    ______ ____
ROOT
ATOM      1  C   UNL     1       5.015   4.968  17.995  0.00  0.00    +0.000 A 
ATOM      2  C   UNL     1       4.174   4.471  19.010  0.00  0.00    +0.000 A 
ATOM      3 BR   UNL     1       4.430   2.735  19.748  0.00  0.00    +0.000 Br
ATOM      4  C   UNL     1       3.123   5.239  19.540  0.00  0.00    +0.000 A 
ATOM      5  C   UNL     1       2.885   6.528  19.063  0.00  0.00    +0.000 A 
ATOM      6  C   UNL     1       1.849   7.385  19.624  0.00  0.00    +0.000 A 
ATOM      7  C   UNL     1       1.662   8.633  19.167  0.00  0.00    +0.000 A 
ATOM      8  C   UNL     1       2.478   9.151  18.038  0.00  0.00    +0.000 A 
ATOM      9  O   UNL     1       2.310  10.281  17.586  0.00  0.00    +0.000 OA
ATOM     10  O   UNL     1       3.440   8.301  17.514  0.00  0.00    +0.000 OA
ATOM     11  C   UNL     1       3.683   7.016  18.037  0.00  0.00    +0.000 A 
ATOM     12  C   UNL     1       4.728   6.245  17.507  0.00  0.00    +0.000 A 
ENDROOT
BRANCH   7  13
ATOM     13  C   UNL     1       0.682   9.453  19.786  0.00  0.00    +0.000 A 
ATOM     14  N   UNL     1       0.434   9.727  21.054  0.00  0.00    +0.000 NA
ATOM     15  N   UNL     1      -0.620  10.607  21.065  0.00  0.00    +0.000 NA
ATOM     16  N   UNL     1      -1.027  10.877  19.834  0.00  0.00    +0.000 NA
ATOM     17  N   UNL     1      -0.225  10.163  19.037  0.00  0.00    +0.000 N 
ATOM     18  H   UNL     1      -0.334  10.202  18.027  0.00  0.00    +0.000 HD
ENDBRANCH   7  13
BRANCH  12  19
ATOM     19  N   UNL     1       5.459   6.823  16.410  0.00  0.00    +0.000 N 
ATOM     20  O   UNL     1       5.051   6.581  15.268  0.00  0.00    +0.000 OA
ATOM     21  O   UNL     1       6.443   7.518  16.700  0.00  0.00    +0.000 OA
ENDBRANCH  12  19
BRANCH   1  23
ATOM     22  C   UNL     1       7.357   4.475  17.776  0.00  0.00    +0.000 C 
ATOM     23  O   UNL     1       5.994   4.118  17.560  0.00  0.00    +0.000 OA
ENDBRANCH   1  23
TORSDOF 3
ENDMDL
MODEL 9
REMARK VINA RESULT:      -6.5      3.867      6.007
REMARK  Name = 
REMARK  4 active torsions:
REMARK  status: ('A' for Active; 'I' for Inactive)
REMARK    1  A    between atoms: C_1  and  O_2
REMARK    2  A    between atoms: O_2  and  C_3
REMARK    3  A    between atoms: C_9  and  C_10
REMARK    4  A    between atoms: C_19  and  N_20
REMARK                            x       y       z     vdW  Elec       q    Type
REMARK                         _______ _______ _______ _____ _____    ______ ____
ROOT
ATOM      1  C   UNL     1       3.307   4.437  18.516  0.00  0.00    +0.000 A 
ATOM      2  C   UNL     1       3.930   5.172  17.489  0.00  0.00    +0.000 A 
ATOM      3 BR   UNL     1       5.075   4.332  16.222  0.00  0.00    +0.000 Br
ATOM      4  C   UNL     1       3.720   6.554  17.339  0.00  0.00    +0.000 A 
ATOM      5  C   UNL     1       2.879   7.237  18.217  0.00  0.00    +0.000 A 
ATOM      6  C   UNL     1       2.580   8.654  18.063  0.00  0.00    +0.000 A 
ATOM      7  C   UNL     1       1.743   9.280  18.906  0.00  0.00    +0.000 A 
ATOM      8  C   UNL     1       1.139   8.546  20.049  0.00  0.00    +0.000 A 
ATOM      9  O   UNL     1       0.389   9.102  20.847  0.00  0.00    +0.000 OA
ATOM     10  O   UNL     1       1.462   7.204  20.178  0.00  0.00    +0.000 OA
ATOM     11  C   UNL     1       2.288   6.530  19.256  0.00  0.00    +0.000 A 
ATOM     12  C   UNL     1       2.504   5.153  19.406  0.00  0.00    +0.000 A 
ENDROOT
BRANCH   7  13
ATOM     13  C   UNL     1       1.433  10.647  18.679  0.00  0.00    +0.000 A 
ATOM     14  N   UNL     1       0.379  11.376  18.996  0.00  0.00    +0.000 NA
ATOM     15  N   UNL     1       0.637  12.649  18.550  0.00  0.00    +0.000 NA
ATOM     16  N   UNL     1       1.823  12.717  17.963  0.00  0.00    +0.000 NA
ATOM     17  N   UNL     1       2.320  11.478  18.039  0.00  0.00    +0.000 N 
ATOM     18  H   UNL     1       3.238  11.266  17.657  0.00  0.00    +0.000 HD
ENDBRANCH   7  13
BRANCH  12  19
ATOM     19  N   UNL     1       1.887   4.528  20.547  0.00  0.00    +0.000 N 
ATOM     20  O   UNL     1       2.550   4.475  21.590  0.00  0.00    +0.000 OA
ATOM     21  O   UNL     1       0.738   4.090  20.391  0.00  0.00    +0.000 OA
ENDBRANCH  12  19
BRANCH   1  23
ATOM     22  C   UNL     1       2.661   2.175  18.019  0.00  0.00    +0.000 C 
ATOM     23  O   UNL     1       3.601   3.102  18.558  0.00  0.00    +0.000 OA
ENDBRANCH   1  23
TORSDOF 3
ENDMDL
