MODEL 1
REMARK VINA RESULT:      -7.6      0.000      0.000
REMARK  Name = 
REMARK  3 active torsions:
REMARK  status: ('A' for Active; 'I' for Inactive)
REMARK    1  A    between atoms: C_2  and  C_4
REMARK    2  A    between atoms: C_9  and  C_11
REMARK    3  A    between atoms: N_18  and  C_19
REMARK                            x       y       z     vdW  Elec       q    Type
REMARK                         _______ _______ _______ _____ _____    ______ ____
ROOT
ATOM      1  C   UNL     1       1.137   9.475  19.152  0.00  0.00    +0.000 A 
ATOM      2  C   UNL     1       1.092   8.717  20.317  0.00  0.00    +0.000 A 
ATOM      3  N   UNL     1       1.653   7.495  20.506  0.00  0.00    +0.000 NA
ATOM      4  C   UNL     1       2.378   7.084  19.444  0.00  0.00    +0.000 A 
ATOM      5  C   UNL     1       2.581   7.776  18.258  0.00  0.00    +0.000 A 
ATOM      6  C   UNL     1       3.459   6.954  17.522  0.00  0.00    +0.000 A 
ATOM      7  N   UNL     1       3.759   5.814  18.154  0.00  0.00    +0.000 NA
ATOM      8  N   UNL     1       3.071   5.904  19.318  0.00  0.00    +0.000 N 
ATOM      9  C   UNL     1       1.936   9.012  18.093  0.00  0.00    +0.000 A 
ENDROOT
BRANCH   1  15
ATOM     10  C   UNL     1      -2.772  12.332  18.593  0.00  0.00    +0.000 C 
ATOM     11  C   UNL     1      -3.540  11.153  17.973  0.00  0.00    +0.000 C 
ATOM     12  C   UNL     1      -2.768   9.832  18.009  0.00  0.00    +0.000 C 
ATOM     13  C   UNL     1      -1.365  10.033  17.446  0.00  0.00    +0.000 C 
ATOM     14  N   UNL     1      -0.670  11.006  18.286  0.00  0.00    +0.000 N 
ATOM     15  C   UNL     1       0.495  10.806  19.027  0.00  0.00    +0.000 C 
ATOM     16  O   UNL     1       1.030  11.729  19.645  0.00  0.00    +0.000 OA
ATOM     17  C   UNL     1      -1.275  12.346  18.248  0.00  0.00    +0.000 C 
BRANCH  10  19
ATOM     18  N   UNL     1      -4.326  12.750  20.472  0.00  0.00    +0.000 N 
ATOM     19  C   UNL     1      -3.059  12.445  20.082  0.00  0.00    +0.000 C 
ATOM     20  O   UNL     1      -2.167  12.366  20.925  0.00  0.00    +0.000 OA
ATOM     21  H   UNL     1      -4.483  12.733  21.473  0.00  0.00    +0.000 HD
ATOM     22  H   UNL     1      -5.117  12.473  19.902  0.00  0.00    +0.000 HD
ENDBRANCH  10  19
ENDBRANCH   1  15
BRANCH   8  23
ATOM     23  C   UNL     1       3.071   4.812  20.265  0.00  0.00    +0.000 C 
ATOM     24  C   UNL     1       1.679   4.279  20.600  0.00  0.00    +0.000 C 
ATOM     25  C   UNL     1       1.966   2.953  21.294  0.00  0.00    +0.000 C 
ATOM     26  C   UNL     1       3.272   2.440  20.687  0.00  0.00    +0.000 C 
ATOM     27  C   UNL     1       3.809   3.559  19.794  0.00  0.00    +0.000 C 
ENDBRANCH   8  23
TORSDOF 3
ENDMDL
MODEL 2
REMARK VINA RESULT:      -7.4      3.543      8.163
REMARK  Name = 
REMARK  3 active torsions:
REMARK  status: ('A' for Active; 'I' for Inactive)
REMARK    1  A    between atoms: C_2  and  C_4
REMARK    2  A    between atoms: C_9  and  C_11
REMARK    3  A    between atoms: N_18  and  C_19
REMARK                            x       y       z     vdW  Elec       q    Type
REMARK                         _______ _______ _______ _____ _____    ______ ____
ROOT
ATOM      1  C   UNL     1       2.517   7.087  18.585  0.00  0.00    +0.000 A 
ATOM      2  C   UNL     1       2.173   7.142  19.931  0.00  0.00    +0.000 A 
ATOM      3  N   UNL     1       1.566   8.177  20.566  0.00  0.00    +0.000 NA
ATOM      4  C   UNL     1       1.219   9.174  19.725  0.00  0.00    +0.000 A 
ATOM      5  C   UNL     1       1.421   9.212  18.352  0.00  0.00    +0.000 A 
ATOM      6  C   UNL     1       0.819  10.421  17.945  0.00  0.00    +0.000 A 
ATOM      7  N   UNL     1       0.316  11.123  18.967  0.00  0.00    +0.000 NA
ATOM      8  N   UNL     1       0.591  10.353  20.048  0.00  0.00    +0.000 N 
ATOM      9  C   UNL     1       2.099   8.139  17.752  0.00  0.00    +0.000 A 
ENDROOT
BRANCH   1  15
ATOM     10  C   UNL     1       6.421   4.833  16.731  0.00  0.00    +0.000 C 
ATOM     11  C   UNL     1       7.075   6.198  16.460  0.00  0.00    +0.000 C 
ATOM     12  C   UNL     1       6.272   7.381  17.004  0.00  0.00    +0.000 C 
ATOM     13  C   UNL     1       4.819   7.279  16.549  0.00  0.00    +0.000 C 
ATOM     14  N   UNL     1       4.258   6.042  17.088  0.00  0.00    +0.000 N 
ATOM     15  C   UNL     1       3.181   5.914  17.966  0.00  0.00    +0.000 C 
ATOM     16  O   UNL     1       2.750   4.807  18.297  0.00  0.00    +0.000 OA
ATOM     17  C   UNL     1       4.896   4.831  16.553  0.00  0.00    +0.000 C 
BRANCH  10  19
ATOM     18  N   UNL     1       5.943   3.765  18.911  0.00  0.00    +0.000 N 
ATOM     19  C   UNL     1       6.883   4.265  18.065  0.00  0.00    +0.000 C 
ATOM     20  O   UNL     1       8.055   4.333  18.431  0.00  0.00    +0.000 OA
ATOM     21  H   UNL     1       6.309   3.325  19.748  0.00  0.00    +0.000 HD
ATOM     22  H   UNL     1       5.088   3.361  18.545  0.00  0.00    +0.000 HD
ENDBRANCH  10  19
ENDBRANCH   1  15
BRANCH   8  23
ATOM     23  C   UNL     1       0.271  10.809  21.381  0.00  0.00    +0.000 C 
ATOM     24  C   UNL     1      -0.458  12.152  21.422  0.00  0.00    +0.000 C 
ATOM     25  C   UNL     1      -0.989  12.223  22.848  0.00  0.00    +0.000 C 
ATOM     26  C   UNL     1      -1.234  10.775  23.274  0.00  0.00    +0.000 C 
ATOM     27  C   UNL     1      -0.670   9.891  22.162  0.00  0.00    +0.000 C 
ENDBRANCH   8  23
TORSDOF 3
ENDMDL
MODEL 3
REMARK VINA RESULT:      -7.4      3.362      8.409
REMARK  Name = 
REMARK  3 active torsions:
REMARK  status: ('A' for Active; 'I' for Inactive)
REMARK    1  A    between atoms: C_2  and  C_4
REMARK    2  A    between atoms: C_9  and  C_11
REMARK    3  A    between atoms: N_18  and  C_19
REMARK                            x       y       z     vdW  Elec       q    Type
REMARK                         _______ _______ _______ _____ _____    ______ ____
ROOT
ATOM      1  C   UNL     1       2.423   7.044  18.522  0.00  0.00    +0.000 A 
ATOM      2  C   UNL     1       2.052   8.171  17.796  0.00  0.00    +0.000 A 
ATOM      3  N   UNL     1       1.402   9.262  18.277  0.00  0.00    +0.000 NA
ATOM      4  C   UNL     1       1.209   9.207  19.612  0.00  0.00    +0.000 A 
ATOM      5  C   UNL     1       1.605   8.189  20.469  0.00  0.00    +0.000 A 
ATOM      6  C   UNL     1       1.235   8.649  21.750  0.00  0.00    +0.000 A 
ATOM      7  N   UNL     1       0.615   9.833  21.719  0.00  0.00    +0.000 NA
ATOM      8  N   UNL     1       0.590  10.147  20.401  0.00  0.00    +0.000 N 
ATOM      9  C   UNL     1       2.228   7.061  19.913  0.00  0.00    +0.000 A 
ENDROOT
BRANCH   1  15
ATOM     10  C   UNL     1       6.443   4.883  16.808  0.00  0.00    +0.000 C 
ATOM     11  C   UNL     1       7.082   6.263  16.578  0.00  0.00    +0.000 C 
ATOM     12  C   UNL     1       6.234   7.425  17.102  0.00  0.00    +0.000 C 
ATOM     13  C   UNL     1       4.804   7.301  16.586  0.00  0.00    +0.000 C 
ATOM     14  N   UNL     1       4.244   6.048  17.088  0.00  0.00    +0.000 N 
ATOM     15  C   UNL     1       3.134   5.891  17.919  0.00  0.00    +0.000 C 
ATOM     16  O   UNL     1       2.711   4.773  18.220  0.00  0.00    +0.000 OA
ATOM     17  C   UNL     1       4.926   4.855  16.567  0.00  0.00    +0.000 C 
BRANCH  10  19
ATOM     18  N   UNL     1       5.897   3.767  18.948  0.00  0.00    +0.000 N 
ATOM     19  C   UNL     1       6.859   4.308  18.154  0.00  0.00    +0.000 C 
ATOM     20  O   UNL     1       8.010   4.407  18.576  0.00  0.00    +0.000 OA
ATOM     21  H   UNL     1       6.237   3.326  19.794  0.00  0.00    +0.000 HD
ATOM     22  H   UNL     1       5.073   3.343  18.537  0.00  0.00    +0.000 HD
ENDBRANCH  10  19
ENDBRANCH   1  15
BRANCH   8  23
ATOM     23  C   UNL     1      -0.079  11.340  19.936  0.00  0.00    +0.000 C 
ATOM     24  C   UNL     1      -1.449  11.083  19.311  0.00  0.00    +0.000 C 
ATOM     25  C   UNL     1      -2.075  12.470  19.249  0.00  0.00    +0.000 C 
ATOM     26  C   UNL     1      -1.482  13.249  20.423  0.00  0.00    +0.000 C 
ATOM     27  C   UNL     1      -0.392  12.364  21.028  0.00  0.00    +0.000 C 
ENDBRANCH   8  23
TORSDOF 3
ENDMDL
MODEL 4
REMARK VINA RESULT:      -7.3      2.967      8.131
REMARK  Name = 
REMARK  3 active torsions:
REMARK  status: ('A' for Active; 'I' for Inactive)
REMARK    1  A    between atoms: C_2  and  C_4
REMARK    2  A    between atoms: C_9  and  C_11
REMARK    3  A    between atoms: N_18  and  C_19
REMARK                            x       y       z     vdW  Elec       q    Type
REMARK                         _______ _______ _______ _____ _____    ______ ____
ROOT
ATOM      1  C   UNL     1       2.426   6.972  19.897  0.00  0.00    +0.000 A 
ATOM      2  C   UNL     1       1.630   7.340  20.976  0.00  0.00    +0.000 A 
ATOM      3  N   UNL     1       0.863   8.457  21.068  0.00  0.00    +0.000 NA
ATOM      4  C   UNL     1       0.862   9.184  19.931  0.00  0.00    +0.000 A 
ATOM      5  C   UNL     1       1.537   8.890  18.754  0.00  0.00    +0.000 A 
ATOM      6  C   UNL     1       1.148   9.912  17.865  0.00  0.00    +0.000 A 
ATOM      7  N   UNL     1       0.335  10.812  18.428  0.00  0.00    +0.000 NA
ATOM      8  N   UNL     1       0.190  10.360  19.698  0.00  0.00    +0.000 N 
ATOM      9  C   UNL     1       2.356   7.750  18.728  0.00  0.00    +0.000 A 
ENDROOT
BRANCH   1  15
ATOM     10  C   UNL     1       2.914   2.163  19.268  0.00  0.00    +0.000 C 
ATOM     11  C   UNL     1       1.408   1.981  19.523  0.00  0.00    +0.000 C 
ATOM     12  C   UNL     1       0.649   3.301  19.674  0.00  0.00    +0.000 C 
ATOM     13  C   UNL     1       1.354   4.196  20.688  0.00  0.00    +0.000 C 
ATOM     14  N   UNL     1       2.698   4.481  20.189  0.00  0.00    +0.000 N 
ATOM     15  C   UNL     1       3.236   5.730  19.874  0.00  0.00    +0.000 C 
ATOM     16  O   UNL     1       4.412   5.854  19.527  0.00  0.00    +0.000 OA
ATOM     17  C   UNL     1       3.551   3.288  20.097  0.00  0.00    +0.000 C 
BRANCH  10  19
ATOM     18  N   UNL     1       4.442   2.672  17.389  0.00  0.00    +0.000 N 
ATOM     19  C   UNL     1       3.205   2.260  17.778  0.00  0.00    +0.000 C 
ATOM     20  O   UNL     1       2.333   2.073  16.931  0.00  0.00    +0.000 OA
ATOM     21  H   UNL     1       4.610   2.640  16.390  0.00  0.00    +0.000 HD
ATOM     22  H   UNL     1       5.249   2.486  17.973  0.00  0.00    +0.000 HD
ENDBRANCH  10  19
ENDBRANCH   1  15
BRANCH   8  23
ATOM     23  C   UNL     1      -0.570  11.113  20.669  0.00  0.00    +0.000 C 
ATOM     24  C   UNL     1       0.248  12.162  21.422  0.00  0.00    +0.000 C 
ATOM     25  C   UNL     1      -0.814  13.030  22.084  0.00  0.00    +0.000 C 
ATOM     26  C   UNL     1      -2.032  12.976  21.160  0.00  0.00    +0.000 C 
ATOM     27  C   UNL     1      -1.718  11.936  20.085  0.00  0.00    +0.000 C 
ENDBRANCH   8  23
TORSDOF 3
ENDMDL
MODEL 5
REMARK VINA RESULT:      -7.3      3.157      8.298
REMARK  Name = 
REMARK  3 active torsions:
REMARK  status: ('A' for Active; 'I' for Inactive)
REMARK    1  A    between atoms: C_2  and  C_4
REMARK    2  A    between atoms: C_9  and  C_11
REMARK    3  A    between atoms: N_18  and  C_19
REMARK                            x       y       z     vdW  Elec       q    Type
REMARK                         _______ _______ _______ _____ _____    ______ ____
ROOT
ATOM      1  C   UNL     1       1.840   6.444  20.232  0.00  0.00    +0.000 A 
ATOM      2  C   UNL     1       1.065   7.334  20.967  0.00  0.00    +0.000 A 
ATOM      3  N   UNL     1       0.856   8.645  20.684  0.00  0.00    +0.000 NA
ATOM      4  C   UNL     1       1.420   9.023  19.517  0.00  0.00    +0.000 A 
ATOM      5  C   UNL     1       2.142   8.222  18.644  0.00  0.00    +0.000 A 
ATOM      6  C   UNL     1       2.440   9.070  17.558  0.00  0.00    +0.000 A 
ATOM      7  N   UNL     1       1.993  10.318  17.734  0.00  0.00    +0.000 NA
ATOM      8  N   UNL     1       1.391  10.273  18.948  0.00  0.00    +0.000 N 
ATOM      9  C   UNL     1       2.372   6.886  19.008  0.00  0.00    +0.000 A 
ENDROOT
BRANCH   1  15
ATOM     10  C   UNL     1       3.081   1.842  19.210  0.00  0.00    +0.000 C 
ATOM     11  C   UNL     1       2.861   2.119  17.713  0.00  0.00    +0.000 C 
ATOM     12  C   UNL     1       2.546   3.584  17.402  0.00  0.00    +0.000 C 
ATOM     13  C   UNL     1       1.421   4.079  18.305  0.00  0.00    +0.000 C 
ATOM     14  N   UNL     1       1.870   3.980  19.692  0.00  0.00    +0.000 N 
ATOM     15  C   UNL     1       2.017   5.021  20.609  0.00  0.00    +0.000 C 
ATOM     16  O   UNL     1       2.338   4.805  21.780  0.00  0.00    +0.000 OA
ATOM     17  C   UNL     1       2.110   2.598  20.130  0.00  0.00    +0.000 C 
BRANCH  10  19
ATOM     18  N   UNL     1       5.227   0.937  20.045  0.00  0.00    +0.000 N 
ATOM     19  C   UNL     1       4.544   2.020  19.587  0.00  0.00    +0.000 C 
ATOM     20  O   UNL     1       5.089   3.123  19.579  0.00  0.00    +0.000 OA
ATOM     21  H   UNL     1       6.217   1.089  20.203  0.00  0.00    +0.000 HD
ATOM     22  H   UNL     1       4.974   0.005  19.739  0.00  0.00    +0.000 HD
ENDBRANCH  10  19
ENDBRANCH   1  15
BRANCH   8  23
ATOM     23  C   UNL     1       0.837  11.468  19.544  0.00  0.00    +0.000 C 
ATOM     24  C   UNL     1       1.434  12.767  19.003  0.00  0.00    +0.000 C 
ATOM     25  C   UNL     1       0.463  13.833  19.496  0.00  0.00    +0.000 C 
ATOM     26  C   UNL     1      -0.902  13.148  19.578  0.00  0.00    +0.000 C 
ATOM     27  C   UNL     1      -0.661  11.662  19.312  0.00  0.00    +0.000 C 
ENDBRANCH   8  23
TORSDOF 3
ENDMDL
MODEL 6
REMARK VINA RESULT:      -7.3      2.507      3.188
REMARK  Name = 
REMARK  3 active torsions:
REMARK  status: ('A' for Active; 'I' for Inactive)
REMARK    1  A    between atoms: C_2  and  C_4
REMARK    2  A    between atoms: C_9  and  C_11
REMARK    3  A    between atoms: N_18  and  C_19
REMARK                            x       y       z     vdW  Elec       q    Type
REMARK                         _______ _______ _______ _____ _____    ______ ____
ROOT
ATOM      1  C   UNL     1       0.554   9.896  21.338  0.00  0.00    +0.000 A 
ATOM      2  C   UNL     1       1.056   8.646  21.683  0.00  0.00    +0.000 A 
ATOM      3  N   UNL     1       1.636   7.750  20.843  0.00  0.00    +0.000 NA
ATOM      4  C   UNL     1       1.779   8.228  19.589  0.00  0.00    +0.000 A 
ATOM      5  C   UNL     1       1.406   9.484  19.129  0.00  0.00    +0.000 A 
ATOM      6  C   UNL     1       1.836   9.505  17.787  0.00  0.00    +0.000 A 
ATOM      7  N   UNL     1       2.393   8.352  17.399  0.00  0.00    +0.000 NA
ATOM      8  N   UNL     1       2.328   7.578  18.510  0.00  0.00    +0.000 N 
ATOM      9  C   UNL     1       0.764  10.353  20.026  0.00  0.00    +0.000 A 
ENDROOT
BRANCH   1  15
ATOM     10  C   UNL     1      -2.582  13.431  22.535  0.00  0.00    +0.000 C 
ATOM     11  C   UNL     1      -2.632  13.879  21.064  0.00  0.00    +0.000 C 
ATOM     12  C   UNL     1      -1.856  12.960  20.117  0.00  0.00    +0.000 C 
ATOM     13  C   UNL     1      -0.448  12.726  20.655  0.00  0.00    +0.000 C 
ATOM     14  N   UNL     1      -0.558  12.073  21.957  0.00  0.00    +0.000 N 
ATOM     15  C   UNL     1      -0.068  10.818  22.319  0.00  0.00    +0.000 C 
ATOM     16  O   UNL     1      -0.160  10.400  23.475  0.00  0.00    +0.000 OA
ATOM     17  C   UNL     1      -1.205  12.912  22.977  0.00  0.00    +0.000 C 
BRANCH  10  19
ATOM     18  N   UNL     1      -4.802  12.468  22.022  0.00  0.00    +0.000 N 
ATOM     19  C   UNL     1      -3.726  12.481  22.853  0.00  0.00    +0.000 C 
ATOM     20  O   UNL     1      -3.745  11.805  23.881  0.00  0.00    +0.000 OA
ATOM     21  H   UNL     1      -5.498  11.762  22.231  0.00  0.00    +0.000 HD
ATOM     22  H   UNL     1      -4.693  12.694  21.040  0.00  0.00    +0.000 HD
ENDBRANCH  10  19
ENDBRANCH   1  15
BRANCH   8  23
ATOM     23  C   UNL     1       2.767   6.202  18.479  0.00  0.00    +0.000 C 
ATOM     24  C   UNL     1       1.734   5.231  17.906  0.00  0.00    +0.000 C 
ATOM     25  C   UNL     1       2.543   3.967  17.648  0.00  0.00    +0.000 C 
ATOM     26  C   UNL     1       3.965   4.437  17.340  0.00  0.00    +0.000 C 
ATOM     27  C   UNL     1       3.995   5.942  17.606  0.00  0.00    +0.000 C 
ENDBRANCH   8  23
TORSDOF 3
ENDMDL
MODEL 7
REMARK VINA RESULT:      -7.2      2.567      3.724
REMARK  Name = 
REMARK  3 active torsions:
REMARK  status: ('A' for Active; 'I' for Inactive)
REMARK    1  A    between atoms: C_2  and  C_4
REMARK    2  A    between atoms: C_9  and  C_11
REMARK    3  A    between atoms: N_18  and  C_19
REMARK                            x       y       z     vdW  Elec       q    Type
REMARK                         _______ _______ _______ _____ _____    ______ ____
ROOT
ATOM      1  C   UNL     1       1.557   8.815  18.975  0.00  0.00    +0.000 A 
ATOM      2  C   UNL     1       2.351   8.786  17.834  0.00  0.00    +0.000 A 
ATOM      3  N   UNL     1       3.298   7.861  17.533  0.00  0.00    +0.000 NA
ATOM      4  C   UNL     1       3.354   6.860  18.437  0.00  0.00    +0.000 A 
ATOM      5  C   UNL     1       2.564   6.716  19.569  0.00  0.00    +0.000 A 
ATOM      6  C   UNL     1       2.968   5.483  20.121  0.00  0.00    +0.000 A 
ATOM      7  N   UNL     1       3.960   4.905  19.435  0.00  0.00    +0.000 NA
ATOM      8  N   UNL     1       4.196   5.774  18.422  0.00  0.00    +0.000 N 
ATOM      9  C   UNL     1       1.635   7.727  19.861  0.00  0.00    +0.000 A 
ENDROOT
BRANCH   1  15
ATOM     10  C   UNL     1      -1.054  11.645  21.964  0.00  0.00    +0.000 C 
ATOM     11  C   UNL     1      -0.816  10.647  23.110  0.00  0.00    +0.000 C 
ATOM     12  C   UNL     1       0.137   9.508  22.742  0.00  0.00    +0.000 C 
ATOM     13  C   UNL     1      -0.301   8.864  21.430  0.00  0.00    +0.000 C 
ATOM     14  N   UNL     1      -0.245   9.881  20.382  0.00  0.00    +0.000 N 
ATOM     15  C   UNL     1       0.540   9.865  19.228  0.00  0.00    +0.000 C 
ATOM     16  O   UNL     1       0.449  10.751  18.376  0.00  0.00    +0.000 OA
ATOM     17  C   UNL     1      -1.198  10.982  20.586  0.00  0.00    +0.000 C 
BRANCH  10  19
ATOM     18  N   UNL     1      -0.415  13.976  22.493  0.00  0.00    +0.000 N 
ATOM     19  C   UNL     1      -0.030  12.769  21.999  0.00  0.00    +0.000 C 
ATOM     20  O   UNL     1       1.092  12.643  21.511  0.00  0.00    +0.000 OA
ATOM     21  H   UNL     1       0.325  14.664  22.571  0.00  0.00    +0.000 HD
ATOM     22  H   UNL     1      -1.138  14.031  23.202  0.00  0.00    +0.000 HD
ENDBRANCH  10  19
ENDBRANCH   1  15
BRANCH   8  23
ATOM     23  C   UNL     1       5.271   5.543  17.484  0.00  0.00    +0.000 C 
ATOM     24  C   UNL     1       6.538   4.970  18.118  0.00  0.00    +0.000 C 
ATOM     25  C   UNL     1       7.346   4.490  16.920  0.00  0.00    +0.000 C 
ATOM     26  C   UNL     1       6.321   4.097  15.856  0.00  0.00    +0.000 C 
ATOM     27  C   UNL     1       4.954   4.528  16.386  0.00  0.00    +0.000 C 
ENDBRANCH   8  23
TORSDOF 3
ENDMDL
MODEL 8
REMARK VINA RESULT:      -7.2      2.907      8.159
REMARK  Name = 
REMARK  3 active torsions:
REMARK  status: ('A' for Active; 'I' for Inactive)
REMARK    1  A    between atoms: C_2  and  C_4
REMARK    2  A    between atoms: C_9  and  C_11
REMARK    3  A    between atoms: N_18  and  C_19
REMARK                            x       y       z     vdW  Elec       q    Type
REMARK                         _______ _______ _______ _____ _____    ______ ____
ROOT
ATOM      1  C   UNL     1       2.247   7.245  19.857  0.00  0.00    +0.000 A 
ATOM      2  C   UNL     1       1.974   8.183  18.867  0.00  0.00    +0.000 A 
ATOM      3  N   UNL     1       1.149   9.255  18.978  0.00  0.00    +0.000 NA
ATOM      4  C   UNL     1       0.650   9.403  20.223  0.00  0.00    +0.000 A 
ATOM      5  C   UNL     1       0.907   8.596  21.323  0.00  0.00    +0.000 A 
ATOM      6  C   UNL     1       0.211   9.218  22.380  0.00  0.00    +0.000 A 
ATOM      7  N   UNL     1      -0.471  10.300  21.991  0.00  0.00    +0.000 NA
ATOM      8  N   UNL     1      -0.206  10.383  20.664  0.00  0.00    +0.000 N 
ATOM      9  C   UNL     1       1.727   7.471  21.142  0.00  0.00    +0.000 A 
ENDROOT
BRANCH   1  15
ATOM     10  C   UNL     1       3.117   2.495  19.191  0.00  0.00    +0.000 C 
ATOM     11  C   UNL     1       1.748   2.162  19.807  0.00  0.00    +0.000 C 
ATOM     12  C   UNL     1       0.901   3.398  20.121  0.00  0.00    +0.000 C 
ATOM     13  C   UNL     1       1.721   4.404  20.921  0.00  0.00    +0.000 C 
ATOM     14  N   UNL     1       2.864   4.812  20.106  0.00  0.00    +0.000 N 
ATOM     15  C   UNL     1       3.164   6.098  19.654  0.00  0.00    +0.000 C 
ATOM     16  O   UNL     1       4.201   6.333  19.030  0.00  0.00    +0.000 OA
ATOM     17  C   UNL     1       3.801   3.715  19.826  0.00  0.00    +0.000 C 
BRANCH  10  19
ATOM     18  N   UNL     1       3.937   3.327  17.010  0.00  0.00    +0.000 N 
ATOM     19  C   UNL     1       3.029   2.563  17.674  0.00  0.00    +0.000 C 
ATOM     20  O   UNL     1       2.112   2.030  17.051  0.00  0.00    +0.000 OA
ATOM     21  H   UNL     1       3.886   3.273  15.999  0.00  0.00    +0.000 HD
ATOM     22  H   UNL     1       4.865   3.467  17.392  0.00  0.00    +0.000 HD
ENDBRANCH  10  19
ENDBRANCH   1  15
BRANCH   8  23
ATOM     23  C   UNL     1      -0.834  11.396  19.846  0.00  0.00    +0.000 C 
ATOM     24  C   UNL     1       0.153  12.344  19.164  0.00  0.00    +0.000 C 
ATOM     25  C   UNL     1      -0.701  13.046  18.116  0.00  0.00    +0.000 C 
ATOM     26  C   UNL     1      -1.783  12.042  17.718  0.00  0.00    +0.000 C 
ATOM     27  C   UNL     1      -1.649  10.855  18.671  0.00  0.00    +0.000 C 
ENDBRANCH   8  23
TORSDOF 3
ENDMDL
MODEL 9
REMARK VINA RESULT:      -7.2      1.322      1.483
REMARK  Name = 
REMARK  3 active torsions:
REMARK  status: ('A' for Active; 'I' for Inactive)
REMARK    1  A    between atoms: C_2  and  C_4
REMARK    2  A    between atoms: C_9  and  C_11
REMARK    3  A    between atoms: N_18  and  C_19
REMARK                            x       y       z     vdW  Elec       q    Type
REMARK                         _______ _______ _______ _____ _____    ______ ____
ROOT
ATOM      1  C   UNL     1       0.659   9.901  20.391  0.00  0.00    +0.000 A 
ATOM      2  C   UNL     1       0.729   8.907  21.361  0.00  0.00    +0.000 A 
ATOM      3  N   UNL     1       1.271   7.671  21.210  0.00  0.00    +0.000 NA
ATOM      4  C   UNL     1       1.851   7.499  20.003  0.00  0.00    +0.000 A 
ATOM      5  C   UNL     1       1.932   8.432  18.979  0.00  0.00    +0.000 A 
ATOM      6  C   UNL     1       2.689   7.787  17.980  0.00  0.00    +0.000 A 
ATOM      7  N   UNL     1       3.027   6.535  18.308  0.00  0.00    +0.000 NA
ATOM      8  N   UNL     1       2.486   6.372  19.540  0.00  0.00    +0.000 N 
ATOM      9  C   UNL     1       1.311   9.677  19.166  0.00  0.00    +0.000 A 
ENDROOT
BRANCH   1  15
ATOM     10  C   UNL     1      -3.086  13.016  20.215  0.00  0.00    +0.000 C 
ATOM     11  C   UNL     1      -3.725  12.178  19.095  0.00  0.00    +0.000 C 
ATOM     12  C   UNL     1      -2.970  10.882  18.793  0.00  0.00    +0.000 C 
ATOM     13  C   UNL     1      -1.487  11.177  18.589  0.00  0.00    +0.000 C 
ATOM     14  N   UNL     1      -0.961  11.750  19.826  0.00  0.00    +0.000 N 
ATOM     15  C   UNL     1       0.049  11.230  20.637  0.00  0.00    +0.000 C 
ATOM     16  O   UNL     1       0.460  11.843  21.624  0.00  0.00    +0.000 OA
ATOM     17  C   UNL     1      -1.551  13.054  20.162  0.00  0.00    +0.000 C 
BRANCH  10  19
ATOM     18  N   UNL     1      -2.766  12.437  22.599  0.00  0.00    +0.000 N 
ATOM     19  C   UNL     1      -3.642  12.621  21.574  0.00  0.00    +0.000 C 
ATOM     20  O   UNL     1      -4.835  12.373  21.743  0.00  0.00    +0.000 OA
ATOM     21  H   UNL     1      -3.193  12.255  23.500  0.00  0.00    +0.000 HD
ATOM     22  H   UNL     1      -1.894  12.952  22.626  0.00  0.00    +0.000 HD
ENDBRANCH  10  19
ENDBRANCH   1  15
BRANCH   8  23
ATOM     23  C   UNL     1       2.565   5.099  20.221  0.00  0.00    +0.000 C 
ATOM     24  C   UNL     1       1.233   4.354  20.305  0.00  0.00    +0.000 C 
ATOM     25  C   UNL     1       1.643   2.945  20.714  0.00  0.00    +0.000 C 
ATOM     26  C   UNL     1       3.039   2.730  20.129  0.00  0.00    +0.000 C 
ATOM     27  C   UNL     1       3.484   4.075  19.556  0.00  0.00    +0.000 C 
ENDBRANCH   8  23
TORSDOF 3
ENDMDL
