MODEL 1
REMARK VINA RESULT:      -8.5      0.000      0.000
REMARK  Name = 
REMARK  8 active torsions:
REMARK  status: ('A' for Active; 'I' for Inactive)
REMARK    1  A    between atoms: C_1  and  O_2
REMARK    2  A    between atoms: O_2  and  C_3
REMARK    3  A    between atoms: C_6  and  C_7
REMARK    4  A    between atoms: C_9  and  C_10
REMARK    5  A    between atoms: C_12  and  C_13
REMARK    6  A    between atoms: N_18  and  C_19
REMARK    7  A    between atoms: C_29  and  O_30
REMARK    8  A    between atoms: O_30  and  C_31
REMARK                            x       y       z     vdW  Elec       q    Type
REMARK                         _______ _______ _______ _____ _____    ______ ____
ROOT
ATOM      1  C   UNL     1       3.380   5.135  18.293  0.00  0.00    +0.000 A 
ATOM      2  N   UNL     1       3.027   4.032  19.053  0.00  0.00    +0.000 NA
ATOM      3  C   UNL     1       2.006   4.446  19.766  0.00  0.00    +0.000 A 
ATOM      4  C   UNL     1       1.256   3.747  20.826  0.00  0.00    +0.000 C 
ATOM      5  O   UNL     1       1.632   5.730  19.520  0.00  0.00    +0.000 OA
ATOM      6  C   UNL     1       2.550   6.200  18.606  0.00  0.00    +0.000 A 
ENDROOT
BRANCH   6   7
ATOM      7  C   UNL     1       2.427   7.560  18.137  0.00  0.00    +0.000 C 
ATOM      8  O   UNL     1       2.679   7.875  16.971  0.00  0.00    +0.000 OA
ATOM      9  N   UNL     1       1.980   8.523  19.044  0.00  0.00    +0.000 N 
ATOM     10  C   UNL     1       1.657   9.871  18.567  0.00  0.00    +0.000 C 
ATOM     11  C   UNL     1       0.272  10.310  19.085  0.00  0.00    +0.000 C 
ATOM     12  N   UNL     1       0.247  10.205  20.558  0.00  0.00    +0.000 N 
ATOM     13  C   UNL     1       0.569   8.852  21.071  0.00  0.00    +0.000 C 
ATOM     14  C   UNL     1       1.929   8.392  20.510  0.00  0.00    +0.000 C 
BRANCH  12  15
ATOM     15  C   UNL     1      -0.704  10.919  21.282  0.00  0.00    +0.000 A 
ATOM     16  C   UNL     1      -0.866  10.813  22.670  0.00  0.00    +0.000 A 
ATOM     17  C   UNL     1      -1.882  11.508  23.339  0.00  0.00    +0.000 A 
ATOM     18  C   UNL     1      -2.762  12.317  22.625  0.00  0.00    +0.000 A 
ATOM     19  C   UNL     1      -2.612  12.439  21.250  0.00  0.00    +0.000 A 
ATOM     20 CL   UNL     1      -3.703  13.418  20.348  0.00  0.00    +0.000 Cl
ATOM     21  C   UNL     1      -1.594  11.754  20.588  0.00  0.00    +0.000 A 
ENDBRANCH  12  15
ENDBRANCH   6   7
BRANCH   1  25
ATOM     22  C   UNL     1       6.665   5.115  15.533  0.00  0.00    +0.000 A 
ATOM     23  C   UNL     1       5.673   4.125  15.464  0.00  0.00    +0.000 A 
ATOM     24  C   UNL     1       4.584   4.125  16.343  0.00  0.00    +0.000 A 
ATOM     25  C   UNL     1       4.488   5.082  17.352  0.00  0.00    +0.000 A 
ATOM     26  C   UNL     1       5.496   6.051  17.437  0.00  0.00    +0.000 A 
ATOM     27  C   UNL     1       6.587   6.078  16.551  0.00  0.00    +0.000 A 
BRANCH  22  29
ATOM     28  C   UNL     1       7.405   4.933  13.274  0.00  0.00    +0.000 C 
ATOM     29  O   UNL     1       7.708   5.159  14.648  0.00  0.00    +0.000 OA
ENDBRANCH  22  29
BRANCH  27  30
ATOM     30  O   UNL     1       7.434   7.120  16.821  0.00  0.00    +0.000 OA
ATOM     31  C   UNL     1       7.867   7.336  18.153  0.00  0.00    +0.000 C 
ENDBRANCH  27  30
ENDBRANCH   1  25
TORSDOF 5
ENDMDL
MODEL 2
REMARK VINA RESULT:      -8.4      4.044      9.220
REMARK  Name = 
REMARK  8 active torsions:
REMARK  status: ('A' for Active; 'I' for Inactive)
REMARK    1  A    between atoms: C_1  and  O_2
REMARK    2  A    between atoms: O_2  and  C_3
REMARK    3  A    between atoms: C_6  and  C_7
REMARK    4  A    between atoms: C_9  and  C_10
REMARK    5  A    between atoms: C_12  and  C_13
REMARK    6  A    between atoms: N_18  and  C_19
REMARK    7  A    between atoms: C_29  and  O_30
REMARK    8  A    between atoms: O_30  and  C_31
REMARK                            x       y       z     vdW  Elec       q    Type
REMARK                         _______ _______ _______ _____ _____    ______ ____
ROOT
ATOM      1  C   UNL     1       2.528   5.526  19.695  0.00  0.00    +0.000 A 
ATOM      2  N   UNL     1       1.555   4.602  20.037  0.00  0.00    +0.000 NA
ATOM      3  C   UNL     1       2.206   3.466  20.122  0.00  0.00    +0.000 A 
ATOM      4  C   UNL     1       1.692   2.105  20.368  0.00  0.00    +0.000 C 
ATOM      5  O   UNL     1       3.543   3.564  19.892  0.00  0.00    +0.000 OA
ATOM      6  C   UNL     1       3.750   4.886  19.561  0.00  0.00    +0.000 A 
ENDROOT
BRANCH   6   7
ATOM      7  C   UNL     1       5.092   5.320  19.250  0.00  0.00    +0.000 C 
ATOM      8  O   UNL     1       5.946   5.481  20.125  0.00  0.00    +0.000 OA
ATOM      9  N   UNL     1       5.414   5.528  17.907  0.00  0.00    +0.000 N 
ATOM     10  C   UNL     1       6.808   5.780  17.528  0.00  0.00    +0.000 C 
ATOM     11  C   UNL     1       7.224   4.863  16.360  0.00  0.00    +0.000 C 
ATOM     12  N   UNL     1       6.284   5.048  15.236  0.00  0.00    +0.000 N 
ATOM     13  C   UNL     1       4.866   4.799  15.588  0.00  0.00    +0.000 C 
ATOM     14  C   UNL     1       4.465   5.678  16.790  0.00  0.00    +0.000 C 
BRANCH  12  15
ATOM     15  C   UNL     1       6.666   4.671  13.951  0.00  0.00    +0.000 A 
ATOM     16  C   UNL     1       7.581   5.390  13.169  0.00  0.00    +0.000 A 
ATOM     17  C   UNL     1       7.880   4.999  11.857  0.00  0.00    +0.000 A 
ATOM     18  C   UNL     1       7.261   3.883  11.302  0.00  0.00    +0.000 A 
ATOM     19  C   UNL     1       6.356   3.156  12.065  0.00  0.00    +0.000 A 
ATOM     20 CL   UNL     1       5.564   1.786  11.388  0.00  0.00    +0.000 Cl
ATOM     21  C   UNL     1       6.067   3.540  13.373  0.00  0.00    +0.000 A 
ENDBRANCH  12  15
ENDBRANCH   6   7
BRANCH   1  25
ATOM     22  C   UNL     1       1.477   9.660  19.235  0.00  0.00    +0.000 A 
ATOM     23  C   UNL     1       2.013   8.939  18.158  0.00  0.00    +0.000 A 
ATOM     24  C   UNL     1       2.345   7.586  18.282  0.00  0.00    +0.000 A 
ATOM     25  C   UNL     1       2.203   6.931  19.504  0.00  0.00    +0.000 A 
ATOM     26  C   UNL     1       1.695   7.662  20.586  0.00  0.00    +0.000 A 
ATOM     27  C   UNL     1       1.339   9.017  20.475  0.00  0.00    +0.000 A 
BRANCH  22  29
ATOM     28  C   UNL     1      -0.196  11.227  18.577  0.00  0.00    +0.000 C 
ATOM     29  O   UNL     1       1.099  10.970  19.116  0.00  0.00    +0.000 OA
ENDBRANCH  22  29
BRANCH  27  30
ATOM     30  O   UNL     1       0.857   9.514  21.657  0.00  0.00    +0.000 OA
ATOM     31  C   UNL     1      -0.301   8.936  22.234  0.00  0.00    +0.000 C 
ENDBRANCH  27  30
ENDBRANCH   1  25
TORSDOF 5
ENDMDL
MODEL 3
REMARK VINA RESULT:      -8.1      4.871      8.135
REMARK  Name = 
REMARK  8 active torsions:
REMARK  status: ('A' for Active; 'I' for Inactive)
REMARK    1  A    between atoms: C_1  and  O_2
REMARK    2  A    between atoms: O_2  and  C_3
REMARK    3  A    between atoms: C_6  and  C_7
REMARK    4  A    between atoms: C_9  and  C_10
REMARK    5  A    between atoms: C_12  and  C_13
REMARK    6  A    between atoms: N_18  and  C_19
REMARK    7  A    between atoms: C_29  and  O_30
REMARK    8  A    between atoms: O_30  and  C_31
REMARK                            x       y       z     vdW  Elec       q    Type
REMARK                         _______ _______ _______ _____ _____    ______ ____
ROOT
ATOM      1  C   UNL     1       5.431   4.413  16.062  0.00  0.00    +0.000 A 
ATOM      2  N   UNL     1       5.371   4.198  14.695  0.00  0.00    +0.000 NA
ATOM      3  C   UNL     1       6.594   4.429  14.279  0.00  0.00    +0.000 A 
ATOM      4  C   UNL     1       7.131   4.447  12.906  0.00  0.00    +0.000 C 
ATOM      5  O   UNL     1       7.472   4.753  15.266  0.00  0.00    +0.000 OA
ATOM      6  C   UNL     1       6.714   4.797  16.416  0.00  0.00    +0.000 A 
ENDROOT
BRANCH   6   7
ATOM      7  C   UNL     1       7.366   5.125  17.663  0.00  0.00    +0.000 C 
ATOM      8  O   UNL     1       7.911   4.266  18.361  0.00  0.00    +0.000 OA
ATOM      9  N   UNL     1       7.390   6.465  18.052  0.00  0.00    +0.000 N 
ATOM     10  C   UNL     1       8.202   6.870  19.204  0.00  0.00    +0.000 C 
ATOM     11  C   UNL     1       9.081   8.085  18.846  0.00  0.00    +0.000 C 
ATOM     12  N   UNL     1       8.222   9.176  18.342  0.00  0.00    +0.000 N 
ATOM     13  C   UNL     1       7.390   8.798  17.175  0.00  0.00    +0.000 C 
ATOM     14  C   UNL     1       6.550   7.550  17.516  0.00  0.00    +0.000 C 
BRANCH  12  15
ATOM     15  C   UNL     1       8.697  10.486  18.350  0.00  0.00    +0.000 A 
ATOM     16  C   UNL     1       8.100  11.533  17.637  0.00  0.00    +0.000 A 
ATOM     17  C   UNL     1       8.659  12.819  17.631  0.00  0.00    +0.000 A 
ATOM     18  C   UNL     1       9.832  13.075  18.336  0.00  0.00    +0.000 A 
ATOM     19  C   UNL     1      10.433  12.048  19.054  0.00  0.00    +0.000 A 
ATOM     20 CL   UNL     1      11.895  12.340  19.913  0.00  0.00    +0.000 Cl
ATOM     21  C   UNL     1       9.870  10.773  19.066  0.00  0.00    +0.000 A 
ENDBRANCH  12  15
ENDBRANCH   6   7
BRANCH   1  25
ATOM     22  C   UNL     1       2.007   4.052  18.622  0.00  0.00    +0.000 A 
ATOM     23  C   UNL     1       2.508   2.932  17.943  0.00  0.00    +0.000 A 
ATOM     24  C   UNL     1       3.635   3.025  17.118  0.00  0.00    +0.000 A 
ATOM     25  C   UNL     1       4.256   4.253  16.905  0.00  0.00    +0.000 A 
ATOM     26  C   UNL     1       3.735   5.376  17.561  0.00  0.00    +0.000 A 
ATOM     27  C   UNL     1       2.616   5.298  18.408  0.00  0.00    +0.000 A 
BRANCH  22  29
ATOM     28  C   UNL     1       1.004   2.986  20.504  0.00  0.00    +0.000 C 
ATOM     29  O   UNL     1       0.938   3.968  19.472  0.00  0.00    +0.000 OA
ENDBRANCH  22  29
BRANCH  27  30
ATOM     30  O   UNL     1       2.299   6.518  18.944  0.00  0.00    +0.000 OA
ATOM     31  C   UNL     1       2.404   7.680  18.138  0.00  0.00    +0.000 C 
ENDBRANCH  27  30
ENDBRANCH   1  25
TORSDOF 5
ENDMDL
MODEL 4
REMARK VINA RESULT:      -8.1      4.328      9.134
REMARK  Name = 
REMARK  8 active torsions:
REMARK  status: ('A' for Active; 'I' for Inactive)
REMARK    1  A    between atoms: C_1  and  O_2
REMARK    2  A    between atoms: O_2  and  C_3
REMARK    3  A    between atoms: C_6  and  C_7
REMARK    4  A    between atoms: C_9  and  C_10
REMARK    5  A    between atoms: C_12  and  C_13
REMARK    6  A    between atoms: N_18  and  C_19
REMARK    7  A    between atoms: C_29  and  O_30
REMARK    8  A    between atoms: O_30  and  C_31
REMARK                            x       y       z     vdW  Elec       q    Type
REMARK                         _______ _______ _______ _____ _____    ______ ____
ROOT
ATOM      1  C   UNL     1      -0.957  11.968  18.535  0.00  0.00    +0.000 A 
ATOM      2  N   UNL     1      -1.909  12.095  17.536  0.00  0.00    +0.000 NA
ATOM      3  C   UNL     1      -2.383  10.880  17.388  0.00  0.00    +0.000 A 
ATOM      4  C   UNL     1      -3.360  10.366  16.411  0.00  0.00    +0.000 C 
ATOM      5  O   UNL     1      -1.843   9.958  18.230  0.00  0.00    +0.000 OA
ATOM      6  C   UNL     1      -0.881  10.645  18.939  0.00  0.00    +0.000 A 
ENDROOT
BRANCH   6   7
ATOM      7  C   UNL     1      -0.110   9.931  19.930  0.00  0.00    +0.000 C 
ATOM      8  O   UNL     1      -0.465   9.862  21.109  0.00  0.00    +0.000 OA
ATOM      9  N   UNL     1       1.053   9.284  19.508  0.00  0.00    +0.000 N 
ATOM     10  C   UNL     1       1.761   8.392  20.432  0.00  0.00    +0.000 C 
ATOM     11  C   UNL     1       2.062   7.040  19.754  0.00  0.00    +0.000 C 
ATOM     12  N   UNL     1       2.812   7.279  18.504  0.00  0.00    +0.000 N 
ATOM     13  C   UNL     1       2.122   8.177  17.548  0.00  0.00    +0.000 C 
ATOM     14  C   UNL     1       1.773   9.508  18.243  0.00  0.00    +0.000 C 
BRANCH  12  15
ATOM     15  C   UNL     1       3.554   6.244  17.938  0.00  0.00    +0.000 A 
ATOM     16  C   UNL     1       4.666   6.447  17.111  0.00  0.00    +0.000 A 
ATOM     17  C   UNL     1       5.336   5.369  16.518  0.00  0.00    +0.000 A 
ATOM     18  C   UNL     1       4.897   4.066  16.737  0.00  0.00    +0.000 A 
ATOM     19  C   UNL     1       3.799   3.847  17.559  0.00  0.00    +0.000 A 
ATOM     20 CL   UNL     1       3.228   2.245  17.825  0.00  0.00    +0.000 Cl
ATOM     21  C   UNL     1       3.140   4.920  18.157  0.00  0.00    +0.000 A 
ENDBRANCH  12  15
ENDBRANCH   6   7
BRANCH   1  25
ATOM     22  C   UNL     1       1.415  15.273  19.900  0.00  0.00    +0.000 A 
ATOM     23  C   UNL     1       0.055  15.189  20.232  0.00  0.00    +0.000 A 
ATOM     24  C   UNL     1      -0.732  14.110  19.812  0.00  0.00    +0.000 A 
ATOM     25  C   UNL     1      -0.192  13.114  19.000  0.00  0.00    +0.000 A 
ATOM     26  C   UNL     1       1.159  13.216  18.645  0.00  0.00    +0.000 A 
ATOM     27  C   UNL     1       1.969  14.282  19.074  0.00  0.00    +0.000 A 
BRANCH  22  29
ATOM     28  C   UNL     1       1.850  17.616  19.953  0.00  0.00    +0.000 C 
ATOM     29  O   UNL     1       2.209  16.294  20.345  0.00  0.00    +0.000 OA
ENDBRANCH  22  29
BRANCH  27  30
ATOM     30  O   UNL     1       3.253  14.162  18.612  0.00  0.00    +0.000 OA
ATOM     31  C   UNL     1       3.765  15.136  17.718  0.00  0.00    +0.000 C 
ENDBRANCH  27  30
ENDBRANCH   1  25
TORSDOF 5
ENDMDL
MODEL 5
REMARK VINA RESULT:      -8.0      4.188      9.817
REMARK  Name = 
REMARK  8 active torsions:
REMARK  status: ('A' for Active; 'I' for Inactive)
REMARK    1  A    between atoms: C_1  and  O_2
REMARK    2  A    between atoms: O_2  and  C_3
REMARK    3  A    between atoms: C_6  and  C_7
REMARK    4  A    between atoms: C_9  and  C_10
REMARK    5  A    between atoms: C_12  and  C_13
REMARK    6  A    between atoms: N_18  and  C_19
REMARK    7  A    between atoms: C_29  and  O_30
REMARK    8  A    between atoms: O_30  and  C_31
REMARK                            x       y       z     vdW  Elec       q    Type
REMARK                         _______ _______ _______ _____ _____    ______ ____
ROOT
ATOM      1  C   UNL     1      -1.352  11.702  19.807  0.00  0.00    +0.000 A 
ATOM      2  N   UNL     1      -2.040  12.044  18.655  0.00  0.00    +0.000 NA
ATOM      3  C   UNL     1      -1.976  10.966  17.910  0.00  0.00    +0.000 A 
ATOM      4  C   UNL     1      -2.450  10.748  16.530  0.00  0.00    +0.000 C 
ATOM      5  O   UNL     1      -1.324   9.921  18.487  0.00  0.00    +0.000 OA
ATOM      6  C   UNL     1      -0.870  10.408  19.694  0.00  0.00    +0.000 A 
ENDROOT
BRANCH   6   7
ATOM      7  C   UNL     1      -0.121   9.526  20.559  0.00  0.00    +0.000 C 
ATOM      8  O   UNL     1      -0.479   9.285  21.715  0.00  0.00    +0.000 OA
ATOM      9  N   UNL     1       1.022   8.918  20.036  0.00  0.00    +0.000 N 
ATOM     10  C   UNL     1       1.702   7.872  20.807  0.00  0.00    +0.000 C 
ATOM     11  C   UNL     1       1.962   6.634  19.926  0.00  0.00    +0.000 C 
ATOM     12  N   UNL     1       2.719   7.042  18.725  0.00  0.00    +0.000 N 
ATOM     13  C   UNL     1       2.056   8.097  17.923  0.00  0.00    +0.000 C 
ATOM     14  C   UNL     1       1.748   9.315  18.817  0.00  0.00    +0.000 C 
BRANCH  12  15
ATOM     15  C   UNL     1       3.429   6.086  18.002  0.00  0.00    +0.000 A 
ATOM     16  C   UNL     1       2.945   4.800  17.729  0.00  0.00    +0.000 A 
ATOM     17  C   UNL     1       3.729   3.856  17.052  0.00  0.00    +0.000 A 
ATOM     18  C   UNL     1       5.018   4.184  16.641  0.00  0.00    +0.000 A 
ATOM     19  C   UNL     1       5.512   5.457  16.898  0.00  0.00    +0.000 A 
ATOM     20 CL   UNL     1       7.111   5.873  16.418  0.00  0.00    +0.000 Cl
ATOM     21  C   UNL     1       4.726   6.397  17.563  0.00  0.00    +0.000 A 
ENDBRANCH  12  15
ENDBRANCH   6   7
BRANCH   1  25
ATOM     22  C   UNL     1      -0.760  14.451  23.048  0.00  0.00    +0.000 A 
ATOM     23  C   UNL     1      -2.024  13.889  22.814  0.00  0.00    +0.000 A 
ATOM     24  C   UNL     1      -2.234  12.977  21.774  0.00  0.00    +0.000 A 
ATOM     25  C   UNL     1      -1.197  12.645  20.904  0.00  0.00    +0.000 A 
ATOM     26  C   UNL     1       0.057  13.231  21.122  0.00  0.00    +0.000 A 
ATOM     27  C   UNL     1       0.290  14.134  22.173  0.00  0.00    +0.000 A 
BRANCH  22  29
ATOM     28  C   UNL     1      -1.508  15.350  25.126  0.00  0.00    +0.000 C 
ATOM     29  O   UNL     1      -0.527  15.304  24.092  0.00  0.00    +0.000 OA
ENDBRANCH  22  29
BRANCH  27  30
ATOM     30  O   UNL     1       1.591  14.564  22.193  0.00  0.00    +0.000 OA
ATOM     31  C   UNL     1       2.298  14.699  20.972  0.00  0.00    +0.000 C 
ENDBRANCH  27  30
ENDBRANCH   1  25
TORSDOF 5
ENDMDL
MODEL 6
REMARK VINA RESULT:      -8.0      4.600      9.267
REMARK  Name = 
REMARK  8 active torsions:
REMARK  status: ('A' for Active; 'I' for Inactive)
REMARK    1  A    between atoms: C_1  and  O_2
REMARK    2  A    between atoms: O_2  and  C_3
REMARK    3  A    between atoms: C_6  and  C_7
REMARK    4  A    between atoms: C_9  and  C_10
REMARK    5  A    between atoms: C_12  and  C_13
REMARK    6  A    between atoms: N_18  and  C_19
REMARK    7  A    between atoms: C_29  and  O_30
REMARK    8  A    between atoms: O_30  and  C_31
REMARK                            x       y       z     vdW  Elec       q    Type
REMARK                         _______ _______ _______ _____ _____    ______ ____
ROOT
ATOM      1  C   UNL     1      -0.783  11.908  18.453  0.00  0.00    +0.000 A 
ATOM      2  N   UNL     1      -1.826  12.022  17.549  0.00  0.00    +0.000 NA
ATOM      3  C   UNL     1      -2.449  10.870  17.629  0.00  0.00    +0.000 A 
ATOM      4  C   UNL     1      -3.587  10.361  16.841  0.00  0.00    +0.000 C 
ATOM      5  O   UNL     1      -1.920  10.007  18.537  0.00  0.00    +0.000 OA
ATOM      6  C   UNL     1      -0.809  10.651  19.036  0.00  0.00    +0.000 A 
ENDROOT
BRANCH   6   7
ATOM      7  C   UNL     1      -0.012   9.982  20.038  0.00  0.00    +0.000 C 
ATOM      8  O   UNL     1      -0.285  10.043  21.239  0.00  0.00    +0.000 OA
ATOM      9  N   UNL     1       1.079   9.227  19.603  0.00  0.00    +0.000 N 
ATOM     10  C   UNL     1       1.798   8.378  20.558  0.00  0.00    +0.000 C 
ATOM     11  C   UNL     1       1.972   6.954  19.992  0.00  0.00    +0.000 C 
ATOM     12  N   UNL     1       2.643   7.030  18.679  0.00  0.00    +0.000 N 
ATOM     13  C   UNL     1       1.939   7.881  17.690  0.00  0.00    +0.000 C 
ATOM     14  C   UNL     1       1.718   9.289  18.277  0.00  0.00    +0.000 C 
BRANCH  12  15
ATOM     15  C   UNL     1       3.281   5.903  18.166  0.00  0.00    +0.000 A 
ATOM     16  C   UNL     1       2.605   4.753  17.741  0.00  0.00    +0.000 A 
ATOM     17  C   UNL     1       3.302   3.623  17.293  0.00  0.00    +0.000 A 
ATOM     18  C   UNL     1       4.694   3.625  17.270  0.00  0.00    +0.000 A 
ATOM     19  C   UNL     1       5.381   4.760  17.682  0.00  0.00    +0.000 A 
ATOM     20 CL   UNL     1       7.102   4.773  17.681  0.00  0.00    +0.000 Cl
ATOM     21  C   UNL     1       4.684   5.886  18.118  0.00  0.00    +0.000 A 
ENDBRANCH  12  15
ENDBRANCH   6   7
BRANCH   1  25
ATOM     22  C   UNL     1       1.893  15.211  19.035  0.00  0.00    +0.000 A 
ATOM     23  C   UNL     1       2.395  13.923  18.798  0.00  0.00    +0.000 A 
ATOM     24  C   UNL     1       1.539  12.836  18.588  0.00  0.00    +0.000 A 
ATOM     25  C   UNL     1       0.157  12.998  18.665  0.00  0.00    +0.000 A 
ATOM     26  C   UNL     1      -0.341  14.280  18.932  0.00  0.00    +0.000 A 
ATOM     27  C   UNL     1       0.504  15.386  19.127  0.00  0.00    +0.000 A 
BRANCH  22  29
ATOM     28  C   UNL     1       3.157  16.589  20.514  0.00  0.00    +0.000 C 
ATOM     29  O   UNL     1       2.716  16.293  19.191  0.00  0.00    +0.000 OA
ENDBRANCH  22  29
BRANCH  27  30
ATOM     30  O   UNL     1      -0.208  16.533  19.360  0.00  0.00    +0.000 OA
ATOM     31  C   UNL     1      -0.762  17.243  18.265  0.00  0.00    +0.000 C 
ENDBRANCH  27  30
ENDBRANCH   1  25
TORSDOF 5
ENDMDL
MODEL 7
REMARK VINA RESULT:      -7.9      4.335      9.223
REMARK  Name = 
REMARK  8 active torsions:
REMARK  status: ('A' for Active; 'I' for Inactive)
REMARK    1  A    between atoms: C_1  and  O_2
REMARK    2  A    between atoms: O_2  and  C_3
REMARK    3  A    between atoms: C_6  and  C_7
REMARK    4  A    between atoms: C_9  and  C_10
REMARK    5  A    between atoms: C_12  and  C_13
REMARK    6  A    between atoms: N_18  and  C_19
REMARK    7  A    between atoms: C_29  and  O_30
REMARK    8  A    between atoms: O_30  and  C_31
REMARK                            x       y       z     vdW  Elec       q    Type
REMARK                         _______ _______ _______ _____ _____    ______ ____
ROOT
ATOM      1  C   UNL     1      -1.215  11.872  18.461  0.00  0.00    +0.000 A 
ATOM      2  N   UNL     1      -2.036  11.872  17.346  0.00  0.00    +0.000 NA
ATOM      3  C   UNL     1      -2.324  10.605  17.159  0.00  0.00    +0.000 A 
ATOM      4  C   UNL     1      -3.090   9.966  16.072  0.00  0.00    +0.000 C 
ATOM      5  O   UNL     1      -1.782   9.763  18.079  0.00  0.00    +0.000 OA
ATOM      6  C   UNL     1      -1.019  10.571  18.894  0.00  0.00    +0.000 A 
ENDROOT
BRANCH   6   7
ATOM      7  C   UNL     1      -0.297   9.965  19.989  0.00  0.00    +0.000 C 
ATOM      8  O   UNL     1      -0.729   9.981  21.144  0.00  0.00    +0.000 OA
ATOM      9  N   UNL     1       0.909   9.324  19.698  0.00  0.00    +0.000 N 
ATOM     10  C   UNL     1       1.577   8.534  20.736  0.00  0.00    +0.000 C 
ATOM     11  C   UNL     1       1.960   7.142  20.194  0.00  0.00    +0.000 C 
ATOM     12  N   UNL     1       2.785   7.303  18.979  0.00  0.00    +0.000 N 
ATOM     13  C   UNL     1       2.136   8.097  17.910  0.00  0.00    +0.000 C 
ATOM     14  C   UNL     1       1.705   9.469  18.467  0.00  0.00    +0.000 C 
BRANCH  12  15
ATOM     15  C   UNL     1       3.591   6.250  18.550  0.00  0.00    +0.000 A 
ATOM     16  C   UNL     1       3.995   5.194  19.377  0.00  0.00    +0.000 A 
ATOM     17  C   UNL     1       4.859   4.195  18.910  0.00  0.00    +0.000 A 
ATOM     18  C   UNL     1       5.340   4.241  17.604  0.00  0.00    +0.000 A 
ATOM     19  C   UNL     1       4.943   5.278  16.769  0.00  0.00    +0.000 A 
ATOM     20 CL   UNL     1       5.544   5.363  15.158  0.00  0.00    +0.000 Cl
ATOM     21  C   UNL     1       4.076   6.266  17.233  0.00  0.00    +0.000 A 
ENDBRANCH  12  15
ENDBRANCH   6   7
BRANCH   1  25
ATOM     22  C   UNL     1       0.509  15.476  20.025  0.00  0.00    +0.000 A 
ATOM     23  C   UNL     1      -0.743  15.033  20.477  0.00  0.00    +0.000 A 
ATOM     24  C   UNL     1      -1.314  13.850  19.993  0.00  0.00    +0.000 A 
ATOM     25  C   UNL     1      -0.674  13.110  19.001  0.00  0.00    +0.000 A 
ATOM     26  C   UNL     1       0.562  13.571  18.531  0.00  0.00    +0.000 A 
ATOM     27  C   UNL     1       1.160  14.746  19.019  0.00  0.00    +0.000 A 
BRANCH  22  29
ATOM     28  C   UNL     1       0.925  17.813  19.794  0.00  0.00    +0.000 C 
ATOM     29  O   UNL     1       1.104  16.602  20.526  0.00  0.00    +0.000 OA
ENDBRANCH  22  29
BRANCH  27  30
ATOM     30  O   UNL     1       2.367  14.989  18.419  0.00  0.00    +0.000 OA
ATOM     31  C   UNL     1       3.538  14.386  18.944  0.00  0.00    +0.000 C 
ENDBRANCH  27  30
ENDBRANCH   1  25
TORSDOF 5
ENDMDL
MODEL 8
REMARK VINA RESULT:      -7.9      4.914      9.476
REMARK  Name = 
REMARK  8 active torsions:
REMARK  status: ('A' for Active; 'I' for Inactive)
REMARK    1  A    between atoms: C_1  and  O_2
REMARK    2  A    between atoms: O_2  and  C_3
REMARK    3  A    between atoms: C_6  and  C_7
REMARK    4  A    between atoms: C_9  and  C_10
REMARK    5  A    between atoms: C_12  and  C_13
REMARK    6  A    between atoms: N_18  and  C_19
REMARK    7  A    between atoms: C_29  and  O_30
REMARK    8  A    between atoms: O_30  and  C_31
REMARK                            x       y       z     vdW  Elec       q    Type
REMARK                         _______ _______ _______ _____ _____    ______ ____
ROOT
ATOM      1  C   UNL     1      -1.794  13.468  20.628  0.00  0.00    +0.000 A 
ATOM      2  N   UNL     1      -1.659  14.843  20.526  0.00  0.00    +0.000 NA
ATOM      3  C   UNL     1      -1.251  15.215  21.717  0.00  0.00    +0.000 A 
ATOM      4  C   UNL     1      -1.018  16.570  22.249  0.00  0.00    +0.000 C 
ATOM      5  O   UNL     1      -1.075  14.192  22.596  0.00  0.00    +0.000 OA
ATOM      6  C   UNL     1      -1.476  13.063  21.914  0.00  0.00    +0.000 A 
ENDROOT
BRANCH   6   7
ATOM      7  C   UNL     1      -1.412  11.788  22.589  0.00  0.00    +0.000 C 
ATOM      8  O   UNL     1      -2.238  11.459  23.444  0.00  0.00    +0.000 OA
ATOM      9  N   UNL     1      -0.391  10.908  22.223  0.00  0.00    +0.000 N 
ATOM     10  C   UNL     1      -0.400   9.536  22.738  0.00  0.00    +0.000 C 
ATOM     11  C   UNL     1      -0.201   8.526  21.589  0.00  0.00    +0.000 C 
ATOM     12  N   UNL     1       1.042   8.855  20.862  0.00  0.00    +0.000 N 
ATOM     13  C   UNL     1       1.080  10.237  20.328  0.00  0.00    +0.000 C 
ATOM     14  C   UNL     1       0.828  11.244  21.468  0.00  0.00    +0.000 C 
BRANCH  12  15
ATOM     15  C   UNL     1       1.657   7.883  20.076  0.00  0.00    +0.000 A 
ATOM     16  C   UNL     1       2.162   8.126  18.792  0.00  0.00    +0.000 A 
ATOM     17  C   UNL     1       2.714   7.094  18.021  0.00  0.00    +0.000 A 
ATOM     18  C   UNL     1       2.763   5.796  18.522  0.00  0.00    +0.000 A 
ATOM     19  C   UNL     1       2.272   5.539  19.796  0.00  0.00    +0.000 A 
ATOM     20 CL   UNL     1       2.304   3.937  20.424  0.00  0.00    +0.000 Cl
ATOM     21  C   UNL     1       1.733   6.569  20.566  0.00  0.00    +0.000 A 
ENDBRANCH  12  15
ENDBRANCH   6   7
BRANCH   1  25
ATOM     22  C   UNL     1      -3.187  11.046  17.372  0.00  0.00    +0.000 A 
ATOM     23  C   UNL     1      -1.857  11.490  17.409  0.00  0.00    +0.000 A 
ATOM     24  C   UNL     1      -1.379  12.266  18.471  0.00  0.00    +0.000 A 
ATOM     25  C   UNL     1      -2.233  12.666  19.497  0.00  0.00    +0.000 A 
ATOM     26  C   UNL     1      -3.568  12.245  19.442  0.00  0.00    +0.000 A 
ATOM     27  C   UNL     1      -4.061  11.450  18.393  0.00  0.00    +0.000 A 
BRANCH  22  29
ATOM     28  C   UNL     1      -2.980  10.307  15.114  0.00  0.00    +0.000 C 
ATOM     29  O   UNL     1      -3.657  10.245  16.367  0.00  0.00    +0.000 OA
ENDBRANCH  22  29
BRANCH  27  30
ATOM     30  O   UNL     1      -5.389  11.156  18.560  0.00  0.00    +0.000 OA
ATOM     31  C   UNL     1      -6.096  11.728  19.647  0.00  0.00    +0.000 C 
ENDBRANCH  27  30
ENDBRANCH   1  25
TORSDOF 5
ENDMDL
MODEL 9
REMARK VINA RESULT:      -7.9      4.361      8.976
REMARK  Name = 
REMARK  8 active torsions:
REMARK  status: ('A' for Active; 'I' for Inactive)
REMARK    1  A    between atoms: C_1  and  O_2
REMARK    2  A    between atoms: O_2  and  C_3
REMARK    3  A    between atoms: C_6  and  C_7
REMARK    4  A    between atoms: C_9  and  C_10
REMARK    5  A    between atoms: C_12  and  C_13
REMARK    6  A    between atoms: N_18  and  C_19
REMARK    7  A    between atoms: C_29  and  O_30
REMARK    8  A    between atoms: O_30  and  C_31
REMARK                            x       y       z     vdW  Elec       q    Type
REMARK                         _______ _______ _______ _____ _____    ______ ____
ROOT
ATOM      1  C   UNL     1      -0.487  11.987  18.986  0.00  0.00    +0.000 A 
ATOM      2  N   UNL     1      -1.428  12.338  18.031  0.00  0.00    +0.000 NA
ATOM      3  C   UNL     1      -2.111  11.235  17.833  0.00  0.00    +0.000 A 
ATOM      4  C   UNL     1      -3.189  10.960  16.864  0.00  0.00    +0.000 C 
ATOM      5  O   UNL     1      -1.719  10.184  18.601  0.00  0.00    +0.000 OA
ATOM      6  C   UNL     1      -0.633  10.648  19.311  0.00  0.00    +0.000 A 
ENDROOT
BRANCH   6   7
ATOM      7  C   UNL     1       0.026   9.751  20.232  0.00  0.00    +0.000 C 
ATOM      8  O   UNL     1      -0.379   9.585  21.385  0.00  0.00    +0.000 OA
ATOM      9  N   UNL     1       1.136   9.043  19.769  0.00  0.00    +0.000 N 
ATOM     10  C   UNL     1       1.718   7.985  20.600  0.00  0.00    +0.000 C 
ATOM     11  C   UNL     1       1.913   6.696  19.776  0.00  0.00    +0.000 C 
ATOM     12  N   UNL     1       2.730   6.999  18.583  0.00  0.00    +0.000 N 
ATOM     13  C   UNL     1       2.167   8.065  17.721  0.00  0.00    +0.000 C 
ATOM     14  C   UNL     1       1.922   9.337  18.558  0.00  0.00    +0.000 C 
BRANCH  12  15
ATOM     15  C   UNL     1       3.389   5.966  17.920  0.00  0.00    +0.000 A 
ATOM     16  C   UNL     1       2.876   4.668  17.800  0.00  0.00    +0.000 A 
ATOM     17  C   UNL     1       3.612   3.651  17.176  0.00  0.00    +0.000 A 
ATOM     18  C   UNL     1       4.880   3.917  16.668  0.00  0.00    +0.000 A 
ATOM     19  C   UNL     1       5.401   5.200  16.773  0.00  0.00    +0.000 A 
ATOM     20 CL   UNL     1       6.976   5.543  16.170  0.00  0.00    +0.000 Cl
ATOM     21  C   UNL     1       4.663   6.213  17.385  0.00  0.00    +0.000 A 
ENDBRANCH  12  15
ENDBRANCH   6   7
BRANCH   1  25
ATOM     22  C   UNL     1       2.459  14.777  20.379  0.00  0.00    +0.000 A 
ATOM     23  C   UNL     1       1.363  14.438  21.186  0.00  0.00    +0.000 A 
ATOM     24  C   UNL     1       0.401  13.516  20.758  0.00  0.00    +0.000 A 
ATOM     25  C   UNL     1       0.479  12.952  19.486  0.00  0.00    +0.000 A 
ATOM     26  C   UNL     1       1.559  13.315  18.670  0.00  0.00    +0.000 A 
ATOM     27  C   UNL     1       2.544  14.225  19.092  0.00  0.00    +0.000 A 
BRANCH  22  29
ATOM     28  C   UNL     1       3.940  15.447  22.123  0.00  0.00    +0.000 C 
ATOM     29  O   UNL     1       3.435  15.637  20.804  0.00  0.00    +0.000 OA
ENDBRANCH  22  29
BRANCH  27  30
ATOM     30  O   UNL     1       3.503  14.415  18.132  0.00  0.00    +0.000 OA
ATOM     31  C   UNL     1       3.537  15.639  17.417  0.00  0.00    +0.000 C 
ENDBRANCH  27  30
ENDBRANCH   1  25
TORSDOF 5
ENDMDL
