MODEL 1
REMARK VINA RESULT:      -8.0      0.000      0.000
REMARK  Name = 
REMARK  9 active torsions:
REMARK  status: ('A' for Active; 'I' for Inactive)
REMARK    1  A    between atoms: C_1  and  O_2
REMARK    2  A    between atoms: O_2  and  C_3
REMARK    3  A    between atoms: C_6  and  C_7
REMARK    4  A    between atoms: C_9  and  O_10
REMARK    5  A    between atoms: O_10  and  C_11
REMARK    6  A    between atoms: C_12  and  C_13
REMARK    7  A    between atoms: C_13  and  C_14
REMARK    8  A    between atoms: C_26  and  O_27
REMARK    9  A    between atoms: O_27  and  C_28
REMARK                            x       y       z     vdW  Elec       q    Type
REMARK                         _______ _______ _______ _____ _____    ______ ____
ROOT
ATOM      1  C   UNL     1       6.103   4.712  16.118  0.00  0.00    +0.000 A 
ATOM      2  C   UNL     1       5.303   3.660  16.587  0.00  0.00    +0.000 A 
ATOM      3  C   UNL     1       4.378   3.808  17.631  0.00  0.00    +0.000 A 
ATOM      4  C   UNL     1       3.554   2.753  18.069  0.00  0.00    +0.000 A 
ATOM      5  C   UNL     1       3.684   1.322  17.596  0.00  0.00    +0.000 C 
ATOM      6  N   UNL     1       2.579   2.911  18.980  0.00  0.00    +0.000 NA
ATOM      7  C   UNL     1       2.429   4.120  19.551  0.00  0.00    +0.000 A 
ATOM      8  C   UNL     1       3.276   5.218  19.299  0.00  0.00    +0.000 A 
ATOM      9  C   UNL     1       4.246   5.057  18.271  0.00  0.00    +0.000 A 
ATOM     10  C   UNL     1       5.113   6.102  17.817  0.00  0.00    +0.000 A 
ATOM     11  C   UNL     1       6.021   5.947  16.754  0.00  0.00    +0.000 A 
ENDROOT
BRANCH   1  13
ATOM     12  C   UNL     1       6.372   4.155  13.842  0.00  0.00    +0.000 C 
ATOM     13  O   UNL     1       6.980   4.493  15.089  0.00  0.00    +0.000 OA
ENDBRANCH   1  13
BRANCH   7  14
ATOM     14  O   UNL     1       1.322   4.307  20.343  0.00  0.00    +0.000 OA
ATOM     15  C   UNL     1       1.064   3.227  21.241  0.00  0.00    +0.000 C 
ENDBRANCH   7  14
BRANCH  11  16
ATOM     16  O   UNL     1       6.731   7.091  16.473  0.00  0.00    +0.000 OA
ATOM     17  C   UNL     1       7.561   7.632  17.493  0.00  0.00    +0.000 C 
ENDBRANCH  11  16
BRANCH   8  18
ATOM     18  C   UNL     1       3.190   6.490  20.142  0.00  0.00    +0.000 C 
BRANCH  18  19
ATOM     19  C   UNL     1       2.222   7.560  19.679  0.00  0.00    +0.000 A 
ATOM     20  C   UNL     1       2.185   7.960  18.337  0.00  0.00    +0.000 A 
ATOM     21  C   UNL     1       1.436   9.073  17.952  0.00  0.00    +0.000 A 
ATOM     22  C   UNL     1       0.655   9.777  18.875  0.00  0.00    +0.000 A 
ATOM     23  C   UNL     1      -0.053  10.934  18.519  0.00  0.00    +0.000 A 
ATOM     24  C   UNL     1      -0.845  11.606  19.448  0.00  0.00    +0.000 A 
ATOM     25  C   UNL     1      -0.936  11.128  20.756  0.00  0.00    +0.000 A 
ATOM     26  C   UNL     1      -0.217   9.999  21.135  0.00  0.00    +0.000 A 
ATOM     27  C   UNL     1       0.593   9.310  20.216  0.00  0.00    +0.000 A 
ATOM     28  C   UNL     1       1.371   8.207  20.590  0.00  0.00    +0.000 A 
ENDBRANCH  18  19
ENDBRANCH   8  18
TORSDOF 5
ENDMDL
MODEL 2
REMARK VINA RESULT:      -7.9      4.172      9.046
REMARK  Name = 
REMARK  9 active torsions:
REMARK  status: ('A' for Active; 'I' for Inactive)
REMARK    1  A    between atoms: C_1  and  O_2
REMARK    2  A    between atoms: O_2  and  C_3
REMARK    3  A    between atoms: C_6  and  C_7
REMARK    4  A    between atoms: C_9  and  O_10
REMARK    5  A    between atoms: O_10  and  C_11
REMARK    6  A    between atoms: C_12  and  C_13
REMARK    7  A    between atoms: C_13  and  C_14
REMARK    8  A    between atoms: C_26  and  O_27
REMARK    9  A    between atoms: O_27  and  C_28
REMARK                            x       y       z     vdW  Elec       q    Type
REMARK                         _______ _______ _______ _____ _____    ______ ____
ROOT
ATOM      1  C   UNL     1      -3.794  11.047  17.747  0.00  0.00    +0.000 A 
ATOM      2  C   UNL     1      -3.405  11.758  18.892  0.00  0.00    +0.000 A 
ATOM      3  C   UNL     1      -2.075  11.839  19.328  0.00  0.00    +0.000 A 
ATOM      4  C   UNL     1      -1.692  12.587  20.459  0.00  0.00    +0.000 A 
ATOM      5  C   UNL     1      -2.665  13.236  21.416  0.00  0.00    +0.000 C 
ATOM      6  N   UNL     1      -0.411  12.775  20.816  0.00  0.00    +0.000 NA
ATOM      7  C   UNL     1       0.549  12.163  20.098  0.00  0.00    +0.000 A 
ATOM      8  C   UNL     1       0.288  11.280  19.030  0.00  0.00    +0.000 A 
ATOM      9  C   UNL     1      -1.066  11.161  18.613  0.00  0.00    +0.000 A 
ATOM     10  C   UNL     1      -1.492  10.393  17.482  0.00  0.00    +0.000 A 
ATOM     11  C   UNL     1      -2.827  10.337  17.042  0.00  0.00    +0.000 A 
ENDROOT
BRANCH   1  13
ATOM     12  C   UNL     1      -6.033  10.844  18.457  0.00  0.00    +0.000 C 
ATOM     13  O   UNL     1      -5.113  11.018  17.379  0.00  0.00    +0.000 OA
ENDBRANCH   1  13
BRANCH   7  14
ATOM     14  O   UNL     1       1.851  12.508  20.369  0.00  0.00    +0.000 OA
ATOM     15  C   UNL     1       2.011  13.850  20.827  0.00  0.00    +0.000 C 
ENDBRANCH   7  14
BRANCH  11  16
ATOM     16  O   UNL     1      -2.998   9.560  15.921  0.00  0.00    +0.000 OA
ATOM     17  C   UNL     1      -2.993  10.204  14.652  0.00  0.00    +0.000 C 
ENDBRANCH  11  16
BRANCH   8  18
ATOM     18  C   UNL     1       1.407  10.449  18.404  0.00  0.00    +0.000 C 
BRANCH  18  19
ATOM     19  C   UNL     1       1.573   9.028  18.903  0.00  0.00    +0.000 A 
ATOM     20  C   UNL     1       1.188   8.676  20.203  0.00  0.00    +0.000 A 
ATOM     21  C   UNL     1       1.517   7.424  20.724  0.00  0.00    +0.000 A 
ATOM     22  C   UNL     1       2.180   6.467  19.947  0.00  0.00    +0.000 A 
ATOM     23  C   UNL     1       2.575   5.229  20.473  0.00  0.00    +0.000 A 
ATOM     24  C   UNL     1       3.211   4.279  19.674  0.00  0.00    +0.000 A 
ATOM     25  C   UNL     1       3.466   4.561  18.332  0.00  0.00    +0.000 A 
ATOM     26  C   UNL     1       3.108   5.796  17.801  0.00  0.00    +0.000 A 
ATOM     27  C   UNL     1       2.472   6.770  18.589  0.00  0.00    +0.000 A 
ATOM     28  C   UNL     1       2.156   8.041  18.092  0.00  0.00    +0.000 A 
ENDBRANCH  18  19
ENDBRANCH   8  18
TORSDOF 5
ENDMDL
MODEL 3
REMARK VINA RESULT:      -7.5      4.544      9.439
REMARK  Name = 
REMARK  9 active torsions:
REMARK  status: ('A' for Active; 'I' for Inactive)
REMARK    1  A    between atoms: C_1  and  O_2
REMARK    2  A    between atoms: O_2  and  C_3
REMARK    3  A    between atoms: C_6  and  C_7
REMARK    4  A    between atoms: C_9  and  O_10
REMARK    5  A    between atoms: O_10  and  C_11
REMARK    6  A    between atoms: C_12  and  C_13
REMARK    7  A    between atoms: C_13  and  C_14
REMARK    8  A    between atoms: C_26  and  O_27
REMARK    9  A    between atoms: O_27  and  C_28
REMARK                            x       y       z     vdW  Elec       q    Type
REMARK                         _______ _______ _______ _____ _____    ______ ____
ROOT
ATOM      1  C   UNL     1      -4.278  11.777  17.756  0.00  0.00    +0.000 A 
ATOM      2  C   UNL     1      -4.181  12.119  19.112  0.00  0.00    +0.000 A 
ATOM      3  C   UNL     1      -2.960  12.205  19.795  0.00  0.00    +0.000 A 
ATOM      4  C   UNL     1      -2.873  12.585  21.149  0.00  0.00    +0.000 A 
ATOM      5  C   UNL     1      -4.068  12.776  22.055  0.00  0.00    +0.000 C 
ATOM      6  N   UNL     1      -1.706  12.792  21.781  0.00  0.00    +0.000 NA
ATOM      7  C   UNL     1      -0.564  12.558  21.107  0.00  0.00    +0.000 A 
ATOM      8  C   UNL     1      -0.518  12.044  19.795  0.00  0.00    +0.000 A 
ATOM      9  C   UNL     1      -1.760  11.913  19.114  0.00  0.00    +0.000 A 
ATOM     10  C   UNL     1      -1.885  11.509  17.747  0.00  0.00    +0.000 A 
ATOM     11  C   UNL     1      -3.115  11.448  17.066  0.00  0.00    +0.000 A 
ENDROOT
BRANCH   1  13
ATOM     12  C   UNL     1      -6.591  11.411  18.031  0.00  0.00    +0.000 C 
ATOM     13  O   UNL     1      -5.507  11.719  17.154  0.00  0.00    +0.000 OA
ENDBRANCH   1  13
BRANCH   7  14
ATOM     14  O   UNL     1       0.610  12.942  21.709  0.00  0.00    +0.000 OA
ATOM     15  C   UNL     1       0.747  14.354  21.862  0.00  0.00    +0.000 C 
ENDBRANCH   7  14
BRANCH  11  16
ATOM     16  O   UNL     1      -2.992  11.061  15.753  0.00  0.00    +0.000 OA
ATOM     17  C   UNL     1      -3.066   9.672  15.453  0.00  0.00    +0.000 C 
ENDBRANCH  11  16
BRANCH   8  18
ATOM     18  C   UNL     1       0.802  11.592  19.172  0.00  0.00    +0.000 C 
BRANCH  18  19
ATOM     19  C   UNL     1       1.161  10.126  19.305  0.00  0.00    +0.000 A 
ATOM     20  C   UNL     1       0.838   9.412  20.465  0.00  0.00    +0.000 A 
ATOM     21  C   UNL     1       1.337   8.124  20.665  0.00  0.00    +0.000 A 
ATOM     22  C   UNL     1       2.116   7.488  19.691  0.00  0.00    +0.000 A 
ATOM     23  C   UNL     1       2.678   6.221  19.902  0.00  0.00    +0.000 A 
ATOM     24  C   UNL     1       3.429   5.595  18.908  0.00  0.00    +0.000 A 
ATOM     25  C   UNL     1       3.632   6.236  17.685  0.00  0.00    +0.000 A 
ATOM     26  C   UNL     1       3.107   7.506  17.470  0.00  0.00    +0.000 A 
ATOM     27  C   UNL     1       2.353   8.158  18.460  0.00  0.00    +0.000 A 
ATOM     28  C   UNL     1       1.864   9.460  18.288  0.00  0.00    +0.000 A 
ENDBRANCH  18  19
ENDBRANCH   8  18
TORSDOF 5
ENDMDL
MODEL 4
REMARK VINA RESULT:      -7.3      5.029      9.846
REMARK  Name = 
REMARK  9 active torsions:
REMARK  status: ('A' for Active; 'I' for Inactive)
REMARK    1  A    between atoms: C_1  and  O_2
REMARK    2  A    between atoms: O_2  and  C_3
REMARK    3  A    between atoms: C_6  and  C_7
REMARK    4  A    between atoms: C_9  and  O_10
REMARK    5  A    between atoms: O_10  and  C_11
REMARK    6  A    between atoms: C_12  and  C_13
REMARK    7  A    between atoms: C_13  and  C_14
REMARK    8  A    between atoms: C_26  and  O_27
REMARK    9  A    between atoms: O_27  and  C_28
REMARK                            x       y       z     vdW  Elec       q    Type
REMARK                         _______ _______ _______ _____ _____    ______ ____
ROOT
ATOM      1  C   UNL     1      -4.745  11.795  18.067  0.00  0.00    +0.000 A 
ATOM      2  C   UNL     1      -4.901  12.174  19.408  0.00  0.00    +0.000 A 
ATOM      3  C   UNL     1      -3.818  12.417  20.265  0.00  0.00    +0.000 A 
ATOM      4  C   UNL     1      -3.987  12.834  21.601  0.00  0.00    +0.000 A 
ATOM      5  C   UNL     1      -5.323  12.902  22.306  0.00  0.00    +0.000 C 
ATOM      6  N   UNL     1      -2.964  13.190  22.395  0.00  0.00    +0.000 NA
ATOM      7  C   UNL     1      -1.713  13.077  21.913  0.00  0.00    +0.000 A 
ATOM      8  C   UNL     1      -1.404  12.545  20.645  0.00  0.00    +0.000 A 
ATOM      9  C   UNL     1      -2.502  12.254  19.788  0.00  0.00    +0.000 A 
ATOM     10  C   UNL     1      -2.365  11.810  18.434  0.00  0.00    +0.000 A 
ATOM     11  C   UNL     1      -3.459  11.590  17.577  0.00  0.00    +0.000 A 
ENDROOT
BRANCH   1  13
ATOM     12  C   UNL     1      -6.936  12.477  17.525  0.00  0.00    +0.000 C 
ATOM     13  O   UNL     1      -5.851  11.580  17.287  0.00  0.00    +0.000 OA
ENDBRANCH   1  13
BRANCH   7  14
ATOM     14  O   UNL     1      -0.698  13.609  22.672  0.00  0.00    +0.000 OA
ATOM     15  C   UNL     1      -1.149  14.447  23.736  0.00  0.00    +0.000 C 
ENDBRANCH   7  14
BRANCH  11  16
ATOM     16  O   UNL     1      -3.089  11.192  16.314  0.00  0.00    +0.000 OA
ATOM     17  C   UNL     1      -2.885   9.804  16.080  0.00  0.00    +0.000 C 
ENDBRANCH  11  16
BRANCH   8  18
ATOM     18  C   UNL     1       0.039  12.238  20.248  0.00  0.00    +0.000 C 
BRANCH  18  19
ATOM     19  C   UNL     1       0.447  10.779  20.205  0.00  0.00    +0.000 A 
ATOM     20  C   UNL     1       0.274   9.954  21.324  0.00  0.00    +0.000 A 
ATOM     21  C   UNL     1       0.825   8.672  21.348  0.00  0.00    +0.000 A 
ATOM     22  C   UNL     1       1.504   8.153  20.239  0.00  0.00    +0.000 A 
ATOM     23  C   UNL     1       2.118   6.892  20.269  0.00  0.00    +0.000 A 
ATOM     24  C   UNL     1       2.767   6.383  19.145  0.00  0.00    +0.000 A 
ATOM     25  C   UNL     1       2.816   7.137  17.972  0.00  0.00    +0.000 A 
ATOM     26  C   UNL     1       2.238   8.402  17.934  0.00  0.00    +0.000 A 
ATOM     27  C   UNL     1       1.584   8.937  19.057  0.00  0.00    +0.000 A 
ATOM     28  C   UNL     1       1.048  10.232  19.060  0.00  0.00    +0.000 A 
ENDBRANCH  18  19
ENDBRANCH   8  18
TORSDOF 5
ENDMDL
MODEL 5
REMARK VINA RESULT:      -7.2      4.613     10.147
REMARK  Name = 
REMARK  9 active torsions:
REMARK  status: ('A' for Active; 'I' for Inactive)
REMARK    1  A    between atoms: C_1  and  O_2
REMARK    2  A    between atoms: O_2  and  C_3
REMARK    3  A    between atoms: C_6  and  C_7
REMARK    4  A    between atoms: C_9  and  O_10
REMARK    5  A    between atoms: O_10  and  C_11
REMARK    6  A    between atoms: C_12  and  C_13
REMARK    7  A    between atoms: C_13  and  C_14
REMARK    8  A    between atoms: C_26  and  O_27
REMARK    9  A    between atoms: O_27  and  C_28
REMARK                            x       y       z     vdW  Elec       q    Type
REMARK                         _______ _______ _______ _____ _____    ______ ____
ROOT
ATOM      1  C   UNL     1      -3.873  13.134  22.451  0.00  0.00    +0.000 A 
ATOM      2  C   UNL     1      -4.526  12.889  21.234  0.00  0.00    +0.000 A 
ATOM      3  C   UNL     1      -3.860  12.434  20.086  0.00  0.00    +0.000 A 
ATOM      4  C   UNL     1      -4.532  12.157  18.879  0.00  0.00    +0.000 A 
ATOM      5  C   UNL     1      -5.990  12.471  18.628  0.00  0.00    +0.000 C 
ATOM      6  N   UNL     1      -3.930  11.605  17.813  0.00  0.00    +0.000 NA
ATOM      7  C   UNL     1      -2.607  11.369  17.878  0.00  0.00    +0.000 A 
ATOM      8  C   UNL     1      -1.798  11.728  18.975  0.00  0.00    +0.000 A 
ATOM      9  C   UNL     1      -2.465  12.231  20.126  0.00  0.00    +0.000 A 
ATOM     10  C   UNL     1      -1.810  12.543  21.360  0.00  0.00    +0.000 A 
ATOM     11  C   UNL     1      -2.492  12.978  22.511  0.00  0.00    +0.000 A 
ENDROOT
BRANCH   1  13
ATOM     12  C   UNL     1      -4.890  12.565  24.501  0.00  0.00    +0.000 C 
ATOM     13  O   UNL     1      -4.592  13.571  23.532  0.00  0.00    +0.000 OA
ENDBRANCH   1  13
BRANCH   7  14
ATOM     14  O   UNL     1      -2.047  10.647  16.851  0.00  0.00    +0.000 OA
ATOM     15  C   UNL     1      -2.812  10.666  15.646  0.00  0.00    +0.000 C 
ENDBRANCH   7  14
BRANCH  11  16
ATOM     16  O   UNL     1      -1.664  13.191  23.587  0.00  0.00    +0.000 OA
ATOM     17  C   UNL     1      -1.178  14.510  23.809  0.00  0.00    +0.000 C 
ENDBRANCH  11  16
BRANCH   8  18
ATOM     18  C   UNL     1      -0.275  11.637  18.895  0.00  0.00    +0.000 C 
BRANCH  18  19
ATOM     19  C   UNL     1       0.350  10.279  19.142  0.00  0.00    +0.000 A 
ATOM     20  C   UNL     1       0.152   9.610  20.357  0.00  0.00    +0.000 A 
ATOM     21  C   UNL     1       0.880   8.458  20.656  0.00  0.00    +0.000 A 
ATOM     22  C   UNL     1       1.774   7.904  19.732  0.00  0.00    +0.000 A 
ATOM     23  C   UNL     1       2.560   6.784  20.040  0.00  0.00    +0.000 A 
ATOM     24  C   UNL     1       3.425   6.233  19.096  0.00  0.00    +0.000 A 
ATOM     25  C   UNL     1       3.520   6.803  17.826  0.00  0.00    +0.000 A 
ATOM     26  C   UNL     1       2.770   7.932  17.513  0.00  0.00    +0.000 A 
ATOM     27  C   UNL     1       1.896   8.508  18.451  0.00  0.00    +0.000 A 
ATOM     28  C   UNL     1       1.176   9.678  18.178  0.00  0.00    +0.000 A 
ENDBRANCH  18  19
ENDBRANCH   8  18
TORSDOF 5
ENDMDL
MODEL 6
REMARK VINA RESULT:      -7.1      5.145     10.614
REMARK  Name = 
REMARK  9 active torsions:
REMARK  status: ('A' for Active; 'I' for Inactive)
REMARK    1  A    between atoms: C_1  and  O_2
REMARK    2  A    between atoms: O_2  and  C_3
REMARK    3  A    between atoms: C_6  and  C_7
REMARK    4  A    between atoms: C_9  and  O_10
REMARK    5  A    between atoms: O_10  and  C_11
REMARK    6  A    between atoms: C_12  and  C_13
REMARK    7  A    between atoms: C_13  and  C_14
REMARK    8  A    between atoms: C_26  and  O_27
REMARK    9  A    between atoms: O_27  and  C_28
REMARK                            x       y       z     vdW  Elec       q    Type
REMARK                         _______ _______ _______ _____ _____    ______ ____
ROOT
ATOM      1  C   UNL     1      -5.594  13.057  21.383  0.00  0.00    +0.000 A 
ATOM      2  C   UNL     1      -5.950  12.732  20.066  0.00  0.00    +0.000 A 
ATOM      3  C   UNL     1      -5.015  12.360  19.090  0.00  0.00    +0.000 A 
ATOM      4  C   UNL     1      -5.388  12.000  17.779  0.00  0.00    +0.000 A 
ATOM      5  C   UNL     1      -6.791  12.133  17.230  0.00  0.00    +0.000 C 
ATOM      6  N   UNL     1      -4.520  11.525  16.872  0.00  0.00    +0.000 NA
ATOM      7  C   UNL     1      -3.219  11.453  17.210  0.00  0.00    +0.000 A 
ATOM      8  C   UNL     1      -2.700  11.910  18.438  0.00  0.00    +0.000 A 
ATOM      9  C   UNL     1      -3.643  12.330  19.416  0.00  0.00    +0.000 A 
ATOM     10  C   UNL     1      -3.296  12.722  20.748  0.00  0.00    +0.000 A 
ATOM     11  C   UNL     1      -4.246  13.071  21.725  0.00  0.00    +0.000 A 
ENDROOT
BRANCH   1  13
ATOM     12  C   UNL     1      -7.677  12.510  22.344  0.00  0.00    +0.000 C 
ATOM     13  O   UNL     1      -6.566  13.404  22.284  0.00  0.00    +0.000 OA
ENDBRANCH   1  13
BRANCH   7  14
ATOM     14  O   UNL     1      -2.379  10.804  16.337  0.00  0.00    +0.000 OA
ATOM     15  C   UNL     1      -3.046  10.217  15.220  0.00  0.00    +0.000 C 
ENDBRANCH   7  14
BRANCH  11  16
ATOM     16  O   UNL     1      -3.686  13.386  22.941  0.00  0.00    +0.000 OA
ATOM     17  C   UNL     1      -3.346  12.320  23.819  0.00  0.00    +0.000 C 
ENDBRANCH  11  16
BRANCH   8  18
ATOM     18  C   UNL     1      -1.192  12.007  18.670  0.00  0.00    +0.000 C 
BRANCH  18  19
ATOM     19  C   UNL     1      -0.476  10.740  19.092  0.00  0.00    +0.000 A 
ATOM     20  C   UNL     1      -0.599  10.249  20.398  0.00  0.00    +0.000 A 
ATOM     21  C   UNL     1       0.209   9.199  20.837  0.00  0.00    +0.000 A 
ATOM     22  C   UNL     1       1.111   8.567  19.973  0.00  0.00    +0.000 A 
ATOM     23  C   UNL     1       1.974   7.554  20.414  0.00  0.00    +0.000 A 
ATOM     24  C   UNL     1       2.847   6.920  19.531  0.00  0.00    +0.000 A 
ATOM     25  C   UNL     1       2.872   7.299  18.188  0.00  0.00    +0.000 A 
ATOM     26  C   UNL     1       2.043   8.323  17.740  0.00  0.00    +0.000 A 
ATOM     27  C   UNL     1       1.160   8.979  18.614  0.00  0.00    +0.000 A 
ATOM     28  C   UNL     1       0.360  10.052  18.198  0.00  0.00    +0.000 A 
ENDBRANCH  18  19
ENDBRANCH   8  18
TORSDOF 5
ENDMDL
MODEL 7
REMARK VINA RESULT:      -6.9      4.497      9.953
REMARK  Name = 
REMARK  9 active torsions:
REMARK  status: ('A' for Active; 'I' for Inactive)
REMARK    1  A    between atoms: C_1  and  O_2
REMARK    2  A    between atoms: O_2  and  C_3
REMARK    3  A    between atoms: C_6  and  C_7
REMARK    4  A    between atoms: C_9  and  O_10
REMARK    5  A    between atoms: O_10  and  C_11
REMARK    6  A    between atoms: C_12  and  C_13
REMARK    7  A    between atoms: C_13  and  C_14
REMARK    8  A    between atoms: C_26  and  O_27
REMARK    9  A    between atoms: O_27  and  C_28
REMARK                            x       y       z     vdW  Elec       q    Type
REMARK                         _______ _______ _______ _____ _____    ______ ____
ROOT
ATOM      1  C   UNL     1      -4.149  12.963  20.440  0.00  0.00    +0.000 A 
ATOM      2  C   UNL     1      -3.245  13.329  21.449  0.00  0.00    +0.000 A 
ATOM      3  C   UNL     1      -1.863  13.116  21.351  0.00  0.00    +0.000 A 
ATOM      4  C   UNL     1      -0.960  13.522  22.355  0.00  0.00    +0.000 A 
ATOM      5  C   UNL     1      -1.379  14.066  23.702  0.00  0.00    +0.000 C 
ATOM      6  N   UNL     1       0.373  13.438  22.222  0.00  0.00    +0.000 NA
ATOM      7  C   UNL     1       0.869  12.877  21.104  0.00  0.00    +0.000 A 
ATOM      8  C   UNL     1       0.072  12.310  20.089  0.00  0.00    +0.000 A 
ATOM      9  C   UNL     1      -1.335  12.484  20.207  0.00  0.00    +0.000 A 
ATOM     10  C   UNL     1      -2.280  12.066  19.217  0.00  0.00    +0.000 A 
ATOM     11  C   UNL     1      -3.663  12.304  19.316  0.00  0.00    +0.000 A 
ENDROOT
BRANCH   1  13
ATOM     12  C   UNL     1      -6.186  12.231  21.376  0.00  0.00    +0.000 C 
ATOM     13  O   UNL     1      -5.487  13.208  20.604  0.00  0.00    +0.000 OA
ENDBRANCH   1  13
BRANCH   7  14
ATOM     14  O   UNL     1       2.227  12.960  20.909  0.00  0.00    +0.000 OA
ATOM     15  C   UNL     1       2.733  14.295  20.926  0.00  0.00    +0.000 C 
ENDBRANCH   7  14
BRANCH  11  16
ATOM     16  O   UNL     1      -4.374  11.838  18.235  0.00  0.00    +0.000 OA
ATOM     17  C   UNL     1      -3.648  11.380  17.101  0.00  0.00    +0.000 C 
ENDBRANCH  11  16
BRANCH   8  18
ATOM     18  C   UNL     1       0.697  11.494  18.959  0.00  0.00    +0.000 C 
BRANCH  18  19
ATOM     19  C   UNL     1       1.041  10.049  19.259  0.00  0.00    +0.000 A 
ATOM     20  C   UNL     1       0.714   9.477  20.495  0.00  0.00    +0.000 A 
ATOM     21  C   UNL     1       1.200   8.216  20.841  0.00  0.00    +0.000 A 
ATOM     22  C   UNL     1       1.968   7.463  19.945  0.00  0.00    +0.000 A 
ATOM     23  C   UNL     1       2.517   6.222  20.300  0.00  0.00    +0.000 A 
ATOM     24  C   UNL     1       3.258   5.477  19.383  0.00  0.00    +0.000 A 
ATOM     25  C   UNL     1       3.464   5.970  18.095  0.00  0.00    +0.000 A 
ATOM     26  C   UNL     1       2.952   7.213  17.735  0.00  0.00    +0.000 A 
ATOM     27  C   UNL     1       2.208   7.983  18.645  0.00  0.00    +0.000 A 
ATOM     28  C   UNL     1       1.733   9.262  18.324  0.00  0.00    +0.000 A 
ENDBRANCH  18  19
ENDBRANCH   8  18
TORSDOF 5
ENDMDL
MODEL 8
REMARK VINA RESULT:      -6.9      4.945      9.336
REMARK  Name = 
REMARK  9 active torsions:
REMARK  status: ('A' for Active; 'I' for Inactive)
REMARK    1  A    between atoms: C_1  and  O_2
REMARK    2  A    between atoms: O_2  and  C_3
REMARK    3  A    between atoms: C_6  and  C_7
REMARK    4  A    between atoms: C_9  and  O_10
REMARK    5  A    between atoms: O_10  and  C_11
REMARK    6  A    between atoms: C_12  and  C_13
REMARK    7  A    between atoms: C_13  and  C_14
REMARK    8  A    between atoms: C_26  and  O_27
REMARK    9  A    between atoms: O_27  and  C_28
REMARK                            x       y       z     vdW  Elec       q    Type
REMARK                         _______ _______ _______ _____ _____    ______ ____
ROOT
ATOM      1  C   UNL     1      -4.306  11.694  18.045  0.00  0.00    +0.000 A 
ATOM      2  C   UNL     1      -4.092  12.001  19.396  0.00  0.00    +0.000 A 
ATOM      3  C   UNL     1      -2.817  12.205  19.942  0.00  0.00    +0.000 A 
ATOM      4  C   UNL     1      -2.617  12.550  21.294  0.00  0.00    +0.000 A 
ATOM      5  C   UNL     1      -3.713  12.571  22.335  0.00  0.00    +0.000 C 
ATOM      6  N   UNL     1      -1.415  12.869  21.801  0.00  0.00    +0.000 NA
ATOM      7  C   UNL     1      -0.340  12.790  20.994  0.00  0.00    +0.000 A 
ATOM      8  C   UNL     1      -0.389  12.328  19.663  0.00  0.00    +0.000 A 
ATOM      9  C   UNL     1      -1.679  12.076  19.119  0.00  0.00    +0.000 A 
ATOM     10  C   UNL     1      -1.916  11.705  17.758  0.00  0.00    +0.000 A 
ATOM     11  C   UNL     1      -3.202  11.524  17.216  0.00  0.00    +0.000 A 
ENDROOT
BRANCH   1  13
ATOM     12  C   UNL     1      -6.612  11.814  18.526  0.00  0.00    +0.000 C 
ATOM     13  O   UNL     1      -5.583  11.514  17.582  0.00  0.00    +0.000 OA
ENDBRANCH   1  13
BRANCH   7  14
ATOM     14  O   UNL     1       0.846  13.288  21.478  0.00  0.00    +0.000 OA
ATOM     15  C   UNL     1       0.845  14.702  21.670  0.00  0.00    +0.000 C 
ENDBRANCH   7  14
BRANCH  11  16
ATOM     16  O   UNL     1      -3.189  11.196  15.881  0.00  0.00    +0.000 OA
ATOM     17  C   UNL     1      -2.928   9.843  15.525  0.00  0.00    +0.000 C 
ENDBRANCH  11  16
BRANCH   8  18
ATOM     18  C   UNL     1       0.891  12.051  18.877  0.00  0.00    +0.000 C 
BRANCH  18  19
ATOM     19  C   UNL     1       1.418  10.631  18.893  0.00  0.00    +0.000 A 
ATOM     20  C   UNL     1       2.109  10.111  17.791  0.00  0.00    +0.000 A 
ATOM     21  C   UNL     1       2.421   8.752  17.729  0.00  0.00    +0.000 A 
ATOM     22  C   UNL     1       2.114   7.888  18.787  0.00  0.00    +0.000 A 
ATOM     23  C   UNL     1       2.363   6.510  18.715  0.00  0.00    +0.000 A 
ATOM     24  C   UNL     1       2.073   5.672  19.791  0.00  0.00    +0.000 A 
ATOM     25  C   UNL     1       1.522   6.204  20.956  0.00  0.00    +0.000 A 
ATOM     26  C   UNL     1       1.240   7.565  21.033  0.00  0.00    +0.000 A 
ATOM     27  C   UNL     1       1.519   8.427  19.959  0.00  0.00    +0.000 A 
ATOM     28  C   UNL     1       1.189   9.789  19.993  0.00  0.00    +0.000 A 
ENDBRANCH  18  19
ENDBRANCH   8  18
TORSDOF 5
ENDMDL
MODEL 9
REMARK VINA RESULT:      -6.8      5.506     10.598
REMARK  Name = 
REMARK  9 active torsions:
REMARK  status: ('A' for Active; 'I' for Inactive)
REMARK    1  A    between atoms: C_1  and  O_2
REMARK    2  A    between atoms: O_2  and  C_3
REMARK    3  A    between atoms: C_6  and  C_7
REMARK    4  A    between atoms: C_9  and  O_10
REMARK    5  A    between atoms: O_10  and  C_11
REMARK    6  A    between atoms: C_12  and  C_13
REMARK    7  A    between atoms: C_13  and  C_14
REMARK    8  A    between atoms: C_26  and  O_27
REMARK    9  A    between atoms: O_27  and  C_28
REMARK                            x       y       z     vdW  Elec       q    Type
REMARK                         _______ _______ _______ _____ _____    ______ ____
ROOT
ATOM      1  C   UNL     1      -5.888  11.940  19.731  0.00  0.00    +0.000 A 
ATOM      2  C   UNL     1      -5.510  12.528  20.946  0.00  0.00    +0.000 A 
ATOM      3  C   UNL     1      -4.189  12.893  21.242  0.00  0.00    +0.000 A 
ATOM      4  C   UNL     1      -3.827  13.518  22.452  0.00  0.00    +0.000 A 
ATOM      5  C   UNL     1      -4.766  13.710  23.622  0.00  0.00    +0.000 C 
ATOM      6  N   UNL     1      -2.592  13.984  22.698  0.00  0.00    +0.000 NA
ATOM      7  C   UNL     1      -1.637  13.784  21.770  0.00  0.00    +0.000 A 
ATOM      8  C   UNL     1      -1.839  13.055  20.581  0.00  0.00    +0.000 A 
ATOM      9  C   UNL     1      -3.170  12.643  20.299  0.00  0.00    +0.000 A 
ATOM     10  C   UNL     1      -3.568  11.989  19.090  0.00  0.00    +0.000 A 
ATOM     11  C   UNL     1      -4.901  11.647  18.796  0.00  0.00    +0.000 A 
ENDROOT
BRANCH   1  13
ATOM     12  C   UNL     1      -7.739  10.646  20.411  0.00  0.00    +0.000 C 
ATOM     13  O   UNL     1      -7.201  11.616  19.511  0.00  0.00    +0.000 OA
ENDBRANCH   1  13
BRANCH   7  14
ATOM     14  O   UNL     1      -0.434  14.419  21.961  0.00  0.00    +0.000 OA
ATOM     15  C   UNL     1      -0.519  15.844  21.924  0.00  0.00    +0.000 C 
ENDBRANCH   7  14
BRANCH  11  16
ATOM     16  O   UNL     1      -5.051  11.051  17.566  0.00  0.00    +0.000 OA
ATOM     17  C   UNL     1      -4.058  11.293  16.577  0.00  0.00    +0.000 C 
ENDBRANCH  11  16
BRANCH   8  18
ATOM     18  C   UNL     1      -0.664  12.674  19.680  0.00  0.00    +0.000 C 
BRANCH  18  19
ATOM     19  C   UNL     1      -0.125  11.264  19.809  0.00  0.00    +0.000 A 
ATOM     20  C   UNL     1      -0.221  10.568  21.020  0.00  0.00    +0.000 A 
ATOM     21  C   UNL     1       0.443   9.353  21.192  0.00  0.00    +0.000 A 
ATOM     22  C   UNL     1       1.166   8.767  20.146  0.00  0.00    +0.000 A 
ATOM     23  C   UNL     1       1.891   7.579  20.321  0.00  0.00    +0.000 A 
ATOM     24  C   UNL     1       2.583   6.999  19.259  0.00  0.00    +0.000 A 
ATOM     25  C   UNL     1       2.563   7.606  18.003  0.00  0.00    +0.000 A 
ATOM     26  C   UNL     1       1.873   8.801  17.820  0.00  0.00    +0.000 A 
ATOM     27  C   UNL     1       1.174   9.406  18.878  0.00  0.00    +0.000 A 
ATOM     28  C   UNL     1       0.522  10.638  18.731  0.00  0.00    +0.000 A 
ENDBRANCH  18  19
ENDBRANCH   8  18
TORSDOF 5
ENDMDL
