MODEL 1
REMARK VINA RESULT:      -6.9      0.000      0.000
REMARK  Name = 
REMARK  5 active torsions:
REMARK  status: ('A' for Active; 'I' for Inactive)
REMARK    1  A    between atoms: C_1  and  C_2
REMARK    2  A    between atoms: C_2  and  O_3
REMARK    3  A    between atoms: O_3  and  C_4
REMARK    4  A    between atoms: C_4  and  C_6
REMARK    5  A    between atoms: C_16  and  O_17
REMARK                            x       y       z     vdW  Elec       q    Type
REMARK                         _______ _______ _______ _____ _____    ______ ____
ROOT
ATOM      1  C   UNL     1       4.275   4.834  18.470  0.00  0.00    +0.000 A 
ATOM      2  C   UNL     1       3.753   6.116  18.249  0.00  0.00    +0.000 A 
ATOM      3  F   UNL     1       4.225   6.885  17.255  0.00  0.00    +0.000 F 
ATOM      4  C   UNL     1       2.728   6.620  19.041  0.00  0.00    +0.000 A 
ATOM      5  F   UNL     1       2.257   7.855  18.812  0.00  0.00    +0.000 F 
ATOM      6  C   UNL     1       2.181   5.860  20.070  0.00  0.00    +0.000 A 
ATOM      7  F   UNL     1       1.192   6.337  20.835  0.00  0.00    +0.000 F 
ATOM      8  C   UNL     1       2.698   4.588  20.288  0.00  0.00    +0.000 A 
ATOM      9  N   UNL     1       2.377   3.630  21.214  0.00  0.00    +0.000 N 
ATOM     10  N   UNL     1       3.143   2.526  21.137  0.00  0.00    +0.000 NA
ATOM     11  C   UNL     1       3.948   2.807  20.121  0.00  0.00    +0.000 A 
ATOM     12  C   UNL     1       3.735   4.057  19.518  0.00  0.00    +0.000 A 
ATOM     13  H   UNL     1       1.660   3.676  21.932  0.00  0.00    +0.000 HD
ENDROOT
BRANCH   1  14
ATOM     14  C   UNL     1       5.371   4.300  17.649  0.00  0.00    +0.000 C 
ATOM     15  O   UNL     1       5.232   3.853  16.525  0.00  0.00    +0.000 OA
BRANCH  14  16
ATOM     16  O   UNL     1       6.494   4.268  18.401  0.00  0.00    +0.000 OA
BRANCH  16  18
ATOM     17  C   UNL     1       7.769   6.240  18.707  0.00  0.00    +0.000 C 
ATOM     18  C   UNL     1       7.618   4.983  17.872  0.00  0.00    +0.000 C 
ENDBRANCH  16  18
ENDBRANCH  14  16
ENDBRANCH   1  14
BRANCH  11  19
ATOM     19  O   UNL     1       4.853   1.870  19.862  0.00  0.00    +0.000 OA
ATOM     20  H   UNL     1       4.667   1.569  18.957  0.00  0.00    +0.000 HD
ENDBRANCH  11  19
TORSDOF 4
ENDMDL
MODEL 2
REMARK VINA RESULT:      -6.7      0.899      1.480
REMARK  Name = 
REMARK  5 active torsions:
REMARK  status: ('A' for Active; 'I' for Inactive)
REMARK    1  A    between atoms: C_1  and  C_2
REMARK    2  A    between atoms: C_2  and  O_3
REMARK    3  A    between atoms: O_3  and  C_4
REMARK    4  A    between atoms: C_4  and  C_6
REMARK    5  A    between atoms: C_16  and  O_17
REMARK                            x       y       z     vdW  Elec       q    Type
REMARK                         _______ _______ _______ _____ _____    ______ ____
ROOT
ATOM      1  C   UNL     1       4.419   4.785  18.641  0.00  0.00    +0.000 A 
ATOM      2  C   UNL     1       3.889   6.063  18.411  0.00  0.00    +0.000 A 
ATOM      3  F   UNL     1       4.416   6.864  17.472  0.00  0.00    +0.000 F 
ATOM      4  C   UNL     1       2.801   6.530  19.139  0.00  0.00    +0.000 A 
ATOM      5  F   UNL     1       2.324   7.761  18.905  0.00  0.00    +0.000 F 
ATOM      6  C   UNL     1       2.196   5.735  20.108  0.00  0.00    +0.000 A 
ATOM      7  F   UNL     1       1.146   6.177  20.811  0.00  0.00    +0.000 F 
ATOM      8  C   UNL     1       2.721   4.468  20.334  0.00  0.00    +0.000 A 
ATOM      9  N   UNL     1       2.354   3.482  21.212  0.00  0.00    +0.000 N 
ATOM     10  N   UNL     1       3.144   2.395  21.166  0.00  0.00    +0.000 NA
ATOM     11  C   UNL     1       4.014   2.714  20.217  0.00  0.00    +0.000 A 
ATOM     12  C   UNL     1       3.820   3.974  19.628  0.00  0.00    +0.000 A 
ATOM     13  H   UNL     1       1.586   3.498  21.878  0.00  0.00    +0.000 HD
ENDROOT
BRANCH   1  14
ATOM     14  C   UNL     1       5.580   4.291  17.888  0.00  0.00    +0.000 C 
ATOM     15  O   UNL     1       6.737   4.431  18.241  0.00  0.00    +0.000 OA
BRANCH  14  16
ATOM     16  O   UNL     1       5.147   3.799  16.705  0.00  0.00    +0.000 OA
BRANCH  16  18
ATOM     17  C   UNL     1       5.727   5.208  14.892  0.00  0.00    +0.000 C 
ATOM     18  C   UNL     1       6.065   3.915  15.610  0.00  0.00    +0.000 C 
ENDBRANCH  16  18
ENDBRANCH  14  16
ENDBRANCH   1  14
BRANCH  11  19
ATOM     19  O   UNL     1       4.953   1.800  20.002  0.00  0.00    +0.000 OA
ATOM     20  H   UNL     1       4.573   0.957  20.303  0.00  0.00    +0.000 HD
ENDBRANCH  11  19
TORSDOF 4
ENDMDL
MODEL 3
REMARK VINA RESULT:      -6.6      2.760      4.290
REMARK  Name = 
REMARK  5 active torsions:
REMARK  status: ('A' for Active; 'I' for Inactive)
REMARK    1  A    between atoms: C_1  and  C_2
REMARK    2  A    between atoms: C_2  and  O_3
REMARK    3  A    between atoms: O_3  and  C_4
REMARK    4  A    between atoms: C_4  and  C_6
REMARK    5  A    between atoms: C_16  and  O_17
REMARK                            x       y       z     vdW  Elec       q    Type
REMARK                         _______ _______ _______ _____ _____    ______ ____
ROOT
ATOM      1  C   UNL     1       3.926   4.719  18.597  0.00  0.00    +0.000 A 
ATOM      2  C   UNL     1       3.024   5.533  19.299  0.00  0.00    +0.000 A 
ATOM      3  F   UNL     1       2.391   5.072  20.389  0.00  0.00    +0.000 F 
ATOM      4  C   UNL     1       2.771   6.838  18.893  0.00  0.00    +0.000 A 
ATOM      5  F   UNL     1       1.896   7.588  19.578  0.00  0.00    +0.000 F 
ATOM      6  C   UNL     1       3.416   7.380  17.786  0.00  0.00    +0.000 A 
ATOM      7  F   UNL     1       3.180   8.636  17.391  0.00  0.00    +0.000 F 
ATOM      8  C   UNL     1       4.311   6.572  17.092  0.00  0.00    +0.000 A 
ATOM      9  N   UNL     1       5.072   6.818  15.979  0.00  0.00    +0.000 N 
ATOM     10  N   UNL     1       5.792   5.758  15.571  0.00  0.00    +0.000 NA
ATOM     11  C   UNL     1       5.477   4.835  16.472  0.00  0.00    +0.000 A 
ATOM     12  C   UNL     1       4.578   5.254  17.466  0.00  0.00    +0.000 A 
ATOM     13  H   UNL     1       5.132   7.681  15.446  0.00  0.00    +0.000 HD
ENDROOT
BRANCH   1  14
ATOM     14  C   UNL     1       4.185   3.332  19.009  0.00  0.00    +0.000 C 
ATOM     15  O   UNL     1       5.113   2.989  19.720  0.00  0.00    +0.000 OA
BRANCH  14  16
ATOM     16  O   UNL     1       3.319   2.523  18.358  0.00  0.00    +0.000 OA
BRANCH  16  18
ATOM     17  C   UNL     1       0.978   2.454  18.709  0.00  0.00    +0.000 C 
ATOM     18  C   UNL     1       2.314   1.905  19.172  0.00  0.00    +0.000 C 
ENDBRANCH  16  18
ENDBRANCH  14  16
ENDBRANCH   1  14
BRANCH  11  19
ATOM     19  O   UNL     1       6.038   3.650  16.263  0.00  0.00    +0.000 OA
ATOM     20  H   UNL     1       6.606   3.762  15.483  0.00  0.00    +0.000 HD
ENDBRANCH  11  19
TORSDOF 4
ENDMDL
MODEL 4
REMARK VINA RESULT:      -6.5      1.743      2.333
REMARK  Name = 
REMARK  5 active torsions:
REMARK  status: ('A' for Active; 'I' for Inactive)
REMARK    1  A    between atoms: C_1  and  C_2
REMARK    2  A    between atoms: C_2  and  O_3
REMARK    3  A    between atoms: O_3  and  C_4
REMARK    4  A    between atoms: C_4  and  C_6
REMARK    5  A    between atoms: C_16  and  O_17
REMARK                            x       y       z     vdW  Elec       q    Type
REMARK                         _______ _______ _______ _____ _____    ______ ____
ROOT
ATOM      1  C   UNL     1       3.518   5.479  18.577  0.00  0.00    +0.000 A 
ATOM      2  C   UNL     1       2.665   6.136  19.476  0.00  0.00    +0.000 A 
ATOM      3  F   UNL     1       2.720   7.469  19.623  0.00  0.00    +0.000 F 
ATOM      4  C   UNL     1       1.734   5.428  20.228  0.00  0.00    +0.000 A 
ATOM      5  F   UNL     1       0.940   6.082  21.088  0.00  0.00    +0.000 F 
ATOM      6  C   UNL     1       1.613   4.048  20.100  0.00  0.00    +0.000 A 
ATOM      7  F   UNL     1       0.718   3.361  20.819  0.00  0.00    +0.000 F 
ATOM      8  C   UNL     1       2.458   3.399  19.207  0.00  0.00    +0.000 A 
ATOM      9  N   UNL     1       2.578   2.073  18.879  0.00  0.00    +0.000 N 
ATOM     10  N   UNL     1       3.556   1.823  17.991  0.00  0.00    +0.000 NA
ATOM     11  C   UNL     1       4.041   3.033  17.750  0.00  0.00    +0.000 A 
ATOM     12  C   UNL     1       3.410   4.078  18.445  0.00  0.00    +0.000 A 
ATOM     13  H   UNL     1       2.035   1.293  19.239  0.00  0.00    +0.000 HD
ENDROOT
BRANCH   1  14
ATOM     14  C   UNL     1       4.516   6.217  17.791  0.00  0.00    +0.000 C 
ATOM     15  O   UNL     1       4.253   6.926  16.836  0.00  0.00    +0.000 OA
BRANCH  14  16
ATOM     16  O   UNL     1       5.749   5.862  18.221  0.00  0.00    +0.000 OA
BRANCH  16  18
ATOM     17  C   UNL     1       7.819   7.011  18.162  0.00  0.00    +0.000 C 
ATOM     18  C   UNL     1       6.833   6.197  17.346  0.00  0.00    +0.000 C 
ENDBRANCH  16  18
ENDBRANCH  14  16
ENDBRANCH   1  14
BRANCH  11  19
ATOM     19  O   UNL     1       5.074   3.056  16.915  0.00  0.00    +0.000 OA
ATOM     20  H   UNL     1       5.695   2.387  17.248  0.00  0.00    +0.000 HD
ENDBRANCH  11  19
TORSDOF 4
ENDMDL
MODEL 5
REMARK VINA RESULT:      -6.5      2.393      4.119
REMARK  Name = 
REMARK  5 active torsions:
REMARK  status: ('A' for Active; 'I' for Inactive)
REMARK    1  A    between atoms: C_1  and  C_2
REMARK    2  A    between atoms: C_2  and  O_3
REMARK    3  A    between atoms: O_3  and  C_4
REMARK    4  A    between atoms: C_4  and  C_6
REMARK    5  A    between atoms: C_16  and  O_17
REMARK                            x       y       z     vdW  Elec       q    Type
REMARK                         _______ _______ _______ _____ _____    ______ ____
ROOT
ATOM      1  C   UNL     1       3.506   4.413  19.509  0.00  0.00    +0.000 A 
ATOM      2  C   UNL     1       2.620   5.143  20.316  0.00  0.00    +0.000 A 
ATOM      3  F   UNL     1       2.112   4.604  21.435  0.00  0.00    +0.000 F 
ATOM      4  C   UNL     1       2.255   6.442  19.985  0.00  0.00    +0.000 A 
ATOM      5  F   UNL     1       1.397   7.111  20.770  0.00  0.00    +0.000 F 
ATOM      6  C   UNL     1       2.769   7.063  18.851  0.00  0.00    +0.000 A 
ATOM      7  F   UNL     1       2.424   8.315  18.528  0.00  0.00    +0.000 F 
ATOM      8  C   UNL     1       3.648   6.339  18.053  0.00  0.00    +0.000 A 
ATOM      9  N   UNL     1       4.296   6.672  16.892  0.00  0.00    +0.000 N 
ATOM     10  N   UNL     1       5.041   5.674  16.384  0.00  0.00    +0.000 NA
ATOM     11  C   UNL     1       4.861   4.703  17.269  0.00  0.00    +0.000 A 
ATOM     12  C   UNL     1       4.026   5.028  18.351  0.00  0.00    +0.000 A 
ATOM     13  H   UNL     1       4.257   7.554  16.391  0.00  0.00    +0.000 HD
ENDROOT
BRANCH   1  14
ATOM     14  C   UNL     1       3.883   3.032  19.841  0.00  0.00    +0.000 C 
ATOM     15  O   UNL     1       5.032   2.641  19.951  0.00  0.00    +0.000 OA
BRANCH  14  16
ATOM     16  O   UNL     1       2.764   2.274  19.860  0.00  0.00    +0.000 OA
BRANCH  16  18
ATOM     17  C   UNL     1       0.681   2.346  18.734  0.00  0.00    +0.000 C 
ATOM     18  C   UNL     1       2.157   2.029  18.585  0.00  0.00    +0.000 C 
ENDBRANCH  16  18
ENDBRANCH  14  16
ENDBRANCH   1  14
BRANCH  11  19
ATOM     19  O   UNL     1       5.472   3.563  16.966  0.00  0.00    +0.000 OA
ATOM     20  H   UNL     1       6.077   3.776  16.237  0.00  0.00    +0.000 HD
ENDBRANCH  11  19
TORSDOF 4
ENDMDL
MODEL 6
REMARK VINA RESULT:      -6.5      1.839      2.279
REMARK  Name = 
REMARK  5 active torsions:
REMARK  status: ('A' for Active; 'I' for Inactive)
REMARK    1  A    between atoms: C_1  and  C_2
REMARK    2  A    between atoms: C_2  and  O_3
REMARK    3  A    between atoms: O_3  and  C_4
REMARK    4  A    between atoms: C_4  and  C_6
REMARK    5  A    between atoms: C_16  and  O_17
REMARK                            x       y       z     vdW  Elec       q    Type
REMARK                         _______ _______ _______ _____ _____    ______ ____
ROOT
ATOM      1  C   UNL     1       4.190   6.228  17.333  0.00  0.00    +0.000 A 
ATOM      2  C   UNL     1       3.421   7.158  18.048  0.00  0.00    +0.000 A 
ATOM      3  F   UNL     1       3.569   8.475  17.835  0.00  0.00    +0.000 F 
ATOM      4  C   UNL     1       2.480   6.744  18.983  0.00  0.00    +0.000 A 
ATOM      5  F   UNL     1       1.769   7.657  19.659  0.00  0.00    +0.000 F 
ATOM      6  C   UNL     1       2.264   5.391  19.228  0.00  0.00    +0.000 A 
ATOM      7  F   UNL     1       1.359   4.985  20.125  0.00  0.00    +0.000 F 
ATOM      8  C   UNL     1       3.026   4.469  18.518  0.00  0.00    +0.000 A 
ATOM      9  N   UNL     1       3.046   3.099  18.550  0.00  0.00    +0.000 N 
ATOM     10  N   UNL     1       3.966   2.553  17.736  0.00  0.00    +0.000 NA
ATOM     11  C   UNL     1       4.517   3.619  17.171  0.00  0.00    +0.000 A 
ATOM     12  C   UNL     1       3.986   4.853  17.580  0.00  0.00    +0.000 A 
ATOM     13  H   UNL     1       2.470   2.483  19.117  0.00  0.00    +0.000 HD
ENDROOT
BRANCH   1  14
ATOM     14  C   UNL     1       5.199   6.658  16.355  0.00  0.00    +0.000 C 
ATOM     15  O   UNL     1       5.138   6.430  15.161  0.00  0.00    +0.000 OA
BRANCH  14  16
ATOM     16  O   UNL     1       6.238   7.207  17.025  0.00  0.00    +0.000 OA
BRANCH  16  18
ATOM     17  C   UNL     1       7.718   6.318  18.646  0.00  0.00    +0.000 C 
ATOM     18  C   UNL     1       7.396   6.374  17.165  0.00  0.00    +0.000 C 
ENDBRANCH  16  18
ENDBRANCH  14  16
ENDBRANCH   1  14
BRANCH  11  19
ATOM     19  O   UNL     1       5.512   3.345  16.335  0.00  0.00    +0.000 OA
ATOM     20  H   UNL     1       5.939   4.198  16.148  0.00  0.00    +0.000 HD
ENDBRANCH  11  19
TORSDOF 4
ENDMDL
MODEL 7
REMARK VINA RESULT:      -6.5      1.242      1.242
REMARK  Name = 
REMARK  5 active torsions:
REMARK  status: ('A' for Active; 'I' for Inactive)
REMARK    1  A    between atoms: C_1  and  C_2
REMARK    2  A    between atoms: C_2  and  O_3
REMARK    3  A    between atoms: O_3  and  C_4
REMARK    4  A    between atoms: C_4  and  C_6
REMARK    5  A    between atoms: C_16  and  O_17
REMARK                            x       y       z     vdW  Elec       q    Type
REMARK                         _______ _______ _______ _____ _____    ______ ____
ROOT
ATOM      1  C   UNL     1       3.997   4.891  17.910  0.00  0.00    +0.000 A 
ATOM      2  C   UNL     1       3.647   6.185  18.321  0.00  0.00    +0.000 A 
ATOM      3  F   UNL     1       4.241   7.259  17.778  0.00  0.00    +0.000 F 
ATOM      4  C   UNL     1       2.671   6.391  19.288  0.00  0.00    +0.000 A 
ATOM      5  F   UNL     1       2.366   7.640  19.668  0.00  0.00    +0.000 F 
ATOM      6  C   UNL     1       2.002   5.317  19.868  0.00  0.00    +0.000 A 
ATOM      7  F   UNL     1       1.059   5.508  20.798  0.00  0.00    +0.000 F 
ATOM      8  C   UNL     1       2.349   4.035  19.459  0.00  0.00    +0.000 A 
ATOM      9  N   UNL     1       1.883   2.806  19.850  0.00  0.00    +0.000 N 
ATOM     10  N   UNL     1       2.505   1.776  19.249  0.00  0.00    +0.000 NA
ATOM     11  C   UNL     1       3.369   2.390  18.451  0.00  0.00    +0.000 A 
ATOM     12  C   UNL     1       3.332   3.793  18.499  0.00  0.00    +0.000 A 
ATOM     13  H   UNL     1       1.156   2.605  20.530  0.00  0.00    +0.000 HD
ENDROOT
BRANCH   1  14
ATOM     14  C   UNL     1       5.041   4.663  16.901  0.00  0.00    +0.000 C 
ATOM     15  O   UNL     1       4.839   4.184  15.800  0.00  0.00    +0.000 OA
BRANCH  14  16
ATOM     16  O   UNL     1       6.242   4.942  17.456  0.00  0.00    +0.000 OA
BRANCH  16  18
ATOM     17  C   UNL     1       7.491   6.941  17.687  0.00  0.00    +0.000 C 
ATOM     18  C   UNL     1       7.072   5.850  16.720  0.00  0.00    +0.000 C 
ENDBRANCH  16  18
ENDBRANCH  14  16
ENDBRANCH   1  14
BRANCH  11  19
ATOM     19  O   UNL     1       4.157   1.573  17.761  0.00  0.00    +0.000 OA
ATOM     20  H   UNL     1       4.647   2.141  17.144  0.00  0.00    +0.000 HD
ENDBRANCH  11  19
TORSDOF 4
ENDMDL
MODEL 8
REMARK VINA RESULT:      -6.4      2.368      3.347
REMARK  Name = 
REMARK  5 active torsions:
REMARK  status: ('A' for Active; 'I' for Inactive)
REMARK    1  A    between atoms: C_1  and  C_2
REMARK    2  A    between atoms: C_2  and  O_3
REMARK    3  A    between atoms: O_3  and  C_4
REMARK    4  A    between atoms: C_4  and  C_6
REMARK    5  A    between atoms: C_16  and  O_17
REMARK                            x       y       z     vdW  Elec       q    Type
REMARK                         _______ _______ _______ _____ _____    ______ ____
ROOT
ATOM      1  C   UNL     1       4.149   4.625  18.690  0.00  0.00    +0.000 A 
ATOM      2  C   UNL     1       3.588   3.869  19.729  0.00  0.00    +0.000 A 
ATOM      3  F   UNL     1       4.050   2.639  20.007  0.00  0.00    +0.000 F 
ATOM      4  C   UNL     1       2.552   4.373  20.505  0.00  0.00    +0.000 A 
ATOM      5  F   UNL     1       2.028   3.622  21.484  0.00  0.00    +0.000 F 
ATOM      6  C   UNL     1       2.049   5.652  20.281  0.00  0.00    +0.000 A 
ATOM      7  F   UNL     1       1.053   6.145  21.025  0.00  0.00    +0.000 F 
ATOM      8  C   UNL     1       2.607   6.401  19.251  0.00  0.00    +0.000 A 
ATOM      9  N   UNL     1       2.319   7.661  18.794  0.00  0.00    +0.000 N 
ATOM     10  N   UNL     1       3.057   8.032  17.732  0.00  0.00    +0.000 NA
ATOM     11  C   UNL     1       3.835   6.975  17.541  0.00  0.00    +0.000 A 
ATOM     12  C   UNL     1       3.641   5.919  18.447  0.00  0.00    +0.000 A 
ATOM     13  H   UNL     1       1.623   8.308  19.153  0.00  0.00    +0.000 HD
ENDROOT
BRANCH   1  14
ATOM     14  C   UNL     1       5.234   4.092  17.853  0.00  0.00    +0.000 C 
ATOM     15  O   UNL     1       5.066   3.541  16.780  0.00  0.00    +0.000 OA
BRANCH  14  16
ATOM     16  O   UNL     1       6.395   4.194  18.539  0.00  0.00    +0.000 OA
BRANCH  16  18
ATOM     17  C   UNL     1       7.579   6.234  18.320  0.00  0.00    +0.000 C 
ATOM     18  C   UNL     1       7.484   4.801  17.831  0.00  0.00    +0.000 C 
ENDBRANCH  16  18
ENDBRANCH  14  16
ENDBRANCH   1  14
BRANCH  11  19
ATOM     19  O   UNL     1       4.648   7.073  16.496  0.00  0.00    +0.000 OA
ATOM     20  H   UNL     1       4.095   6.901  15.716  0.00  0.00    +0.000 HD
ENDBRANCH  11  19
TORSDOF 4
ENDMDL
MODEL 9
REMARK VINA RESULT:      -6.4      3.406      4.914
REMARK  Name = 
REMARK  5 active torsions:
REMARK  status: ('A' for Active; 'I' for Inactive)
REMARK    1  A    between atoms: C_1  and  C_2
REMARK    2  A    between atoms: C_2  and  O_3
REMARK    3  A    between atoms: O_3  and  C_4
REMARK    4  A    between atoms: C_4  and  C_6
REMARK    5  A    between atoms: C_16  and  O_17
REMARK                            x       y       z     vdW  Elec       q    Type
REMARK                         _______ _______ _______ _____ _____    ______ ____
ROOT
ATOM      1  C   UNL     1       2.735   5.175  18.728  0.00  0.00    +0.000 A 
ATOM      2  C   UNL     1       1.938   4.144  19.246  0.00  0.00    +0.000 A 
ATOM      3  F   UNL     1       0.876   4.421  20.019  0.00  0.00    +0.000 F 
ATOM      4  C   UNL     1       2.217   2.812  18.964  0.00  0.00    +0.000 A 
ATOM      5  F   UNL     1       1.443   1.847  19.482  0.00  0.00    +0.000 F 
ATOM      6  C   UNL     1       3.289   2.464  18.147  0.00  0.00    +0.000 A 
ATOM      7  F   UNL     1       3.562   1.184  17.869  0.00  0.00    +0.000 F 
ATOM      8  C   UNL     1       4.077   3.488  17.634  0.00  0.00    +0.000 A 
ATOM      9  N   UNL     1       5.184   3.455  16.826  0.00  0.00    +0.000 N 
ATOM     10  N   UNL     1       5.705   4.670  16.575  0.00  0.00    +0.000 NA
ATOM     11  C   UNL     1       4.884   5.476  17.235  0.00  0.00    +0.000 A 
ATOM     12  C   UNL     1       3.831   4.834  17.907  0.00  0.00    +0.000 A 
ATOM     13  H   UNL     1       5.639   2.639  16.428  0.00  0.00    +0.000 HD
ENDROOT
BRANCH   1  14
ATOM     14  C   UNL     1       2.457   6.585  19.036  0.00  0.00    +0.000 C 
ATOM     15  O   UNL     1       2.388   7.041  20.163  0.00  0.00    +0.000 OA
BRANCH  14  16
ATOM     16  O   UNL     1       2.162   7.226  17.882  0.00  0.00    +0.000 OA
BRANCH  16  18
ATOM     17  C   UNL     1       1.113   9.349  17.913  0.00  0.00    +0.000 C 
ATOM     18  C   UNL     1       2.448   8.631  17.861  0.00  0.00    +0.000 C 
ENDBRANCH  16  18
ENDBRANCH  14  16
ENDBRANCH   1  14
BRANCH  11  19
ATOM     19  O   UNL     1       5.214   6.761  17.181  0.00  0.00    +0.000 OA
ATOM     20  H   UNL     1       5.923   6.822  16.520  0.00  0.00    +0.000 HD
ENDBRANCH  11  19
TORSDOF 4
ENDMDL
