MODEL 1
REMARK VINA RESULT:      -8.0      0.000      0.000
REMARK  Name = 
REMARK  8 active torsions:
REMARK  status: ('A' for Active; 'I' for Inactive)
REMARK    1  A    between atoms: C_1  and  C_2
REMARK    2  A    between atoms: C_2  and  N_3
REMARK    3  A    between atoms: C_4  and  C_5
REMARK    4  A    between atoms: C_7  and  N_8
REMARK    5  A    between atoms: C_9  and  C_11
REMARK    6  A    between atoms: C_11  and  C_12
REMARK    7  A    between atoms: C_25  and  O_26
REMARK    8  A    between atoms: O_26  and  C_27
REMARK                            x       y       z     vdW  Elec       q    Type
REMARK                         _______ _______ _______ _____ _____    ______ ____
ROOT
ATOM      1  C   UNL     1       1.146   9.242  19.293  0.00  0.00    +0.000 A 
ATOM      2  C   UNL     1       1.719   8.062  19.821  0.00  0.00    +0.000 A 
ATOM      3  C   UNL     1       2.488   7.533  18.814  0.00  0.00    +0.000 A 
ATOM      4  N   UNL     1       2.335   8.403  17.764  0.00  0.00    +0.000 N 
ATOM      5  N   UNL     1       1.556   9.465  18.042  0.00  0.00    +0.000 NA
ATOM      6  H   UNL     1       2.735   8.347  16.833  0.00  0.00    +0.000 HD
ENDROOT
BRANCH   1   8
ATOM      7  N   UNL     1      -0.814  10.918  19.558  0.00  0.00    +0.000 N 
ATOM      8  C   UNL     1       0.203  10.123  20.043  0.00  0.00    +0.000 A 
ATOM      9  C   UNL     1       0.216  10.259  21.417  0.00  0.00    +0.000 A 
ATOM     10  C   UNL     1      -0.791  11.181  21.782  0.00  0.00    +0.000 A 
ATOM     11  C   UNL     1      -1.231  11.689  23.018  0.00  0.00    +0.000 A 
ATOM     12  C   UNL     1      -2.250  12.647  23.047  0.00  0.00    +0.000 A 
ATOM     13  C   UNL     1      -2.833  13.100  21.868  0.00  0.00    +0.000 A 
ATOM     14  C   UNL     1      -2.419  12.586  20.630  0.00  0.00    +0.000 A 
ATOM     15  C   UNL     1      -1.400  11.617  20.606  0.00  0.00    +0.000 A 
BRANCH   7  17
ATOM     16  C   UNL     1      -2.213  10.006  17.748  0.00  0.00    +0.000 C 
ATOM     17  C   UNL     1      -1.202  11.061  18.163  0.00  0.00    +0.000 C 
ENDBRANCH   7  17
BRANCH  13  18
ATOM     18  O   UNL     1      -3.824  14.045  21.785  0.00  0.00    +0.000 OA
ATOM     19  C   UNL     1      -3.431  15.348  21.368  0.00  0.00    +0.000 C 
ENDBRANCH  13  18
ENDBRANCH   1   8
BRANCH   3  20
ATOM     20  N   UNL     1       3.262   6.381  18.824  0.00  0.00    +0.000 N 
ATOM     21  C   UNL     1       2.825   5.122  18.261  0.00  0.00    +0.000 C 
ATOM     22  O   UNL     1       1.728   5.007  17.731  0.00  0.00    +0.000 OA
ATOM     23  H   UNL     1       4.170   6.416  19.273  0.00  0.00    +0.000 HD
BRANCH  21  24
ATOM     24  C   UNL     1       3.793   3.973  18.415  0.00  0.00    +0.000 C 
BRANCH  24  25
ATOM     25  C   UNL     1       5.005   4.145  17.538  0.00  0.00    +0.000 A 
ATOM     26  C   UNL     1       6.226   4.564  18.090  0.00  0.00    +0.000 A 
ATOM     27  C   UNL     1       7.336   4.785  17.274  0.00  0.00    +0.000 A 
ATOM     28  C   UNL     1       7.241   4.583  15.897  0.00  0.00    +0.000 A 
ATOM     29  C   UNL     1       6.041   4.140  15.347  0.00  0.00    +0.000 A 
ATOM     30 CL   UNL     1       5.917   3.890  13.650  0.00  0.00    +0.000 Cl
ATOM     31  C   UNL     1       4.927   3.913  16.159  0.00  0.00    +0.000 A 
ENDBRANCH  24  25
ENDBRANCH  21  24
ENDBRANCH   3  20
TORSDOF 6
ENDMDL
MODEL 2
REMARK VINA RESULT:      -8.0      7.821      9.536
REMARK  Name = 
REMARK  8 active torsions:
REMARK  status: ('A' for Active; 'I' for Inactive)
REMARK    1  A    between atoms: C_1  and  C_2
REMARK    2  A    between atoms: C_2  and  N_3
REMARK    3  A    between atoms: C_4  and  C_5
REMARK    4  A    between atoms: C_7  and  N_8
REMARK    5  A    between atoms: C_9  and  C_11
REMARK    6  A    between atoms: C_11  and  C_12
REMARK    7  A    between atoms: C_25  and  O_26
REMARK    8  A    between atoms: O_26  and  C_27
REMARK                            x       y       z     vdW  Elec       q    Type
REMARK                         _______ _______ _______ _____ _____    ______ ____
ROOT
ATOM      1  C   UNL     1       9.079  10.582  18.391  0.00  0.00    +0.000 A 
ATOM      2  C   UNL     1       8.239  10.055  17.383  0.00  0.00    +0.000 A 
ATOM      3  C   UNL     1       8.016   8.744  17.726  0.00  0.00    +0.000 A 
ATOM      4  N   UNL     1       8.717   8.563  18.890  0.00  0.00    +0.000 N 
ATOM      5  N   UNL     1       9.340   9.672  19.333  0.00  0.00    +0.000 NA
ATOM      6  H   UNL     1       8.814   7.720  19.447  0.00  0.00    +0.000 HD
ENDROOT
BRANCH   1   8
ATOM      7  N   UNL     1       9.418  12.971  19.338  0.00  0.00    +0.000 N 
ATOM      8  C   UNL     1       9.602  11.979  18.398  0.00  0.00    +0.000 A 
ATOM      9  C   UNL     1      10.406  12.498  17.402  0.00  0.00    +0.000 A 
ATOM     10  C   UNL     1      10.695  13.844  17.720  0.00  0.00    +0.000 A 
ATOM     11  C   UNL     1      11.458  14.841  17.085  0.00  0.00    +0.000 A 
ATOM     12  C   UNL     1      11.518  16.124  17.643  0.00  0.00    +0.000 A 
ATOM     13  C   UNL     1      10.833  16.421  18.817  0.00  0.00    +0.000 A 
ATOM     14  C   UNL     1      10.087  15.429  19.472  0.00  0.00    +0.000 A 
ATOM     15  C   UNL     1      10.036  14.140  18.912  0.00  0.00    +0.000 A 
BRANCH   7  17
ATOM     16  C   UNL     1       9.510  12.341  21.718  0.00  0.00    +0.000 C 
ATOM     17  C   UNL     1       8.655  12.854  20.572  0.00  0.00    +0.000 C 
ENDBRANCH   7  17
BRANCH  13  18
ATOM     18  O   UNL     1      10.812  17.645  19.436  0.00  0.00    +0.000 OA
ATOM     19  C   UNL     1      11.707  18.630  18.933  0.00  0.00    +0.000 C 
ENDBRANCH  13  18
ENDBRANCH   1   8
BRANCH   3  20
ATOM     20  N   UNL     1       7.252   7.790  17.066  0.00  0.00    +0.000 N 
ATOM     21  C   UNL     1       7.074   6.439  17.551  0.00  0.00    +0.000 C 
ATOM     22  O   UNL     1       7.596   6.060  18.592  0.00  0.00    +0.000 OA
ATOM     23  H   UNL     1       6.819   8.045  16.187  0.00  0.00    +0.000 HD
BRANCH  21  24
ATOM     24  C   UNL     1       6.247   5.537  16.666  0.00  0.00    +0.000 C 
BRANCH  24  25
ATOM     25  C   UNL     1       4.831   5.418  17.162  0.00  0.00    +0.000 A 
ATOM     26  C   UNL     1       4.143   6.553  17.622  0.00  0.00    +0.000 A 
ATOM     27  C   UNL     1       2.853   6.439  18.142  0.00  0.00    +0.000 A 
ATOM     28  C   UNL     1       2.231   5.192  18.202  0.00  0.00    +0.000 A 
ATOM     29  C   UNL     1       2.897   4.067  17.721  0.00  0.00    +0.000 A 
ATOM     30 CL   UNL     1       2.137   2.525  17.792  0.00  0.00    +0.000 Cl
ATOM     31  C   UNL     1       4.187   4.174  17.196  0.00  0.00    +0.000 A 
ENDBRANCH  24  25
ENDBRANCH  21  24
ENDBRANCH   3  20
TORSDOF 6
ENDMDL
MODEL 3
REMARK VINA RESULT:      -7.8      1.506      1.678
REMARK  Name = 
REMARK  8 active torsions:
REMARK  status: ('A' for Active; 'I' for Inactive)
REMARK    1  A    between atoms: C_1  and  C_2
REMARK    2  A    between atoms: C_2  and  N_3
REMARK    3  A    between atoms: C_4  and  C_5
REMARK    4  A    between atoms: C_7  and  N_8
REMARK    5  A    between atoms: C_9  and  C_11
REMARK    6  A    between atoms: C_11  and  C_12
REMARK    7  A    between atoms: C_25  and  O_26
REMARK    8  A    between atoms: O_26  and  C_27
REMARK                            x       y       z     vdW  Elec       q    Type
REMARK                         _______ _______ _______ _____ _____    ______ ____
ROOT
ATOM      1  C   UNL     1       1.228   9.306  19.662  0.00  0.00    +0.000 A 
ATOM      2  C   UNL     1       1.914   8.180  20.173  0.00  0.00    +0.000 A 
ATOM      3  C   UNL     1       2.353   7.479  19.076  0.00  0.00    +0.000 A 
ATOM      4  N   UNL     1       1.917   8.206  17.999  0.00  0.00    +0.000 N 
ATOM      5  N   UNL     1       1.264   9.336  18.328  0.00  0.00    +0.000 NA
ATOM      6  H   UNL     1       2.031   8.003  17.011  0.00  0.00    +0.000 HD
ENDROOT
BRANCH   1   8
ATOM      7  N   UNL     1       0.766  11.691  20.566  0.00  0.00    +0.000 N 
ATOM      8  C   UNL     1       0.552  10.330  20.513  0.00  0.00    +0.000 A 
ATOM      9  C   UNL     1      -0.453  10.033  21.411  0.00  0.00    +0.000 A 
ATOM     10  C   UNL     1      -0.843  11.230  22.054  0.00  0.00    +0.000 A 
ATOM     11  C   UNL     1      -1.807  11.527  23.034  0.00  0.00    +0.000 A 
ATOM     12  C   UNL     1      -1.928  12.838  23.508  0.00  0.00    +0.000 A 
ATOM     13  C   UNL     1      -1.107  13.849  23.019  0.00  0.00    +0.000 A 
ATOM     14  C   UNL     1      -0.156  13.571  22.025  0.00  0.00    +0.000 A 
ATOM     15  C   UNL     1      -0.044  12.253  21.545  0.00  0.00    +0.000 A 
BRANCH   7  17
ATOM     16  C   UNL     1       1.080  13.022  18.517  0.00  0.00    +0.000 C 
ATOM     17  C   UNL     1       1.721  12.444  19.767  0.00  0.00    +0.000 C 
ENDBRANCH   7  17
BRANCH  13  18
ATOM     18  O   UNL     1      -1.131  15.159  23.426  0.00  0.00    +0.000 OA
ATOM     19  C   UNL     1      -1.775  15.431  24.666  0.00  0.00    +0.000 C 
ENDBRANCH  13  18
ENDBRANCH   1   8
BRANCH   3  20
ATOM     20  N   UNL     1       3.083   6.298  19.034  0.00  0.00    +0.000 N 
ATOM     21  C   UNL     1       2.653   5.121  18.312  0.00  0.00    +0.000 C 
ATOM     22  O   UNL     1       1.602   5.106  17.685  0.00  0.00    +0.000 OA
ATOM     23  H   UNL     1       3.949   6.250  19.558  0.00  0.00    +0.000 HD
BRANCH  21  24
ATOM     24  C   UNL     1       3.562   3.921  18.429  0.00  0.00    +0.000 C 
BRANCH  24  25
ATOM     25  C   UNL     1       4.827   4.103  17.632  0.00  0.00    +0.000 A 
ATOM     26  C   UNL     1       6.016   4.495  18.269  0.00  0.00    +0.000 A 
ATOM     27  C   UNL     1       7.176   4.726  17.528  0.00  0.00    +0.000 A 
ATOM     28  C   UNL     1       7.164   4.561  16.143  0.00  0.00    +0.000 A 
ATOM     29  C   UNL     1       5.996   4.144  15.509  0.00  0.00    +0.000 A 
ATOM     30 CL   UNL     1       5.974   3.939  13.802  0.00  0.00    +0.000 Cl
ATOM     31  C   UNL     1       4.832   3.908  16.245  0.00  0.00    +0.000 A 
ENDBRANCH  24  25
ENDBRANCH  21  24
ENDBRANCH   3  20
TORSDOF 6
ENDMDL
MODEL 4
REMARK VINA RESULT:      -7.8      1.745      2.351
REMARK  Name = 
REMARK  8 active torsions:
REMARK  status: ('A' for Active; 'I' for Inactive)
REMARK    1  A    between atoms: C_1  and  C_2
REMARK    2  A    between atoms: C_2  and  N_3
REMARK    3  A    between atoms: C_4  and  C_5
REMARK    4  A    between atoms: C_7  and  N_8
REMARK    5  A    between atoms: C_9  and  C_11
REMARK    6  A    between atoms: C_11  and  C_12
REMARK    7  A    between atoms: C_25  and  O_26
REMARK    8  A    between atoms: O_26  and  C_27
REMARK                            x       y       z     vdW  Elec       q    Type
REMARK                         _______ _______ _______ _____ _____    ______ ____
ROOT
ATOM      1  C   UNL     1       1.926   8.589  18.730  0.00  0.00    +0.000 A 
ATOM      2  C   UNL     1       2.482   7.304  18.924  0.00  0.00    +0.000 A 
ATOM      3  C   UNL     1       3.220   7.039  17.796  0.00  0.00    +0.000 A 
ATOM      4  N   UNL     1       3.068   8.152  17.010  0.00  0.00    +0.000 N 
ATOM      5  N   UNL     1       2.319   9.120  17.570  0.00  0.00    +0.000 NA
ATOM      6  H   UNL     1       3.450   8.332  16.087  0.00  0.00    +0.000 HD
ENDROOT
BRANCH   1   8
ATOM      7  N   UNL     1       0.048  10.216  19.470  0.00  0.00    +0.000 N 
ATOM      8  C   UNL     1       1.017   9.263  19.704  0.00  0.00    +0.000 A 
ATOM      9  C   UNL     1       1.017   8.997  21.058  0.00  0.00    +0.000 A 
ATOM     10  C   UNL     1       0.052   9.824  21.675  0.00  0.00    +0.000 A 
ATOM     11  C   UNL     1      -0.380   9.975  23.005  0.00  0.00    +0.000 A 
ATOM     12  C   UNL     1      -1.351  10.935  23.310  0.00  0.00    +0.000 A 
ATOM     13  C   UNL     1      -1.894  11.739  22.314  0.00  0.00    +0.000 A 
ATOM     14  C   UNL     1      -1.489  11.584  20.979  0.00  0.00    +0.000 A 
ATOM     15  C   UNL     1      -0.518  10.612  20.675  0.00  0.00    +0.000 A 
BRANCH   7  17
ATOM     16  C   UNL     1      -1.536  10.092  17.587  0.00  0.00    +0.000 C 
ATOM     17  C   UNL     1      -0.314  10.775  18.176  0.00  0.00    +0.000 C 
ENDBRANCH   7  17
BRANCH  13  18
ATOM     18  O   UNL     1      -2.836  12.717  22.507  0.00  0.00    +0.000 OA
ATOM     19  C   UNL     1      -3.000  13.192  23.839  0.00  0.00    +0.000 C 
ENDBRANCH  13  18
ENDBRANCH   1   8
BRANCH   3  20
ATOM     20  N   UNL     1       3.968   5.910  17.492  0.00  0.00    +0.000 N 
ATOM     21  C   UNL     1       4.921   5.856  16.405  0.00  0.00    +0.000 C 
ATOM     22  O   UNL     1       5.124   6.825  15.685  0.00  0.00    +0.000 OA
ATOM     23  H   UNL     1       3.820   5.072  18.043  0.00  0.00    +0.000 HD
BRANCH  21  24
ATOM     24  C   UNL     1       5.600   4.521  16.205  0.00  0.00    +0.000 C 
BRANCH  24  25
ATOM     25  C   UNL     1       6.118   4.367  14.799  0.00  0.00    +0.000 A 
ATOM     26  C   UNL     1       7.284   5.037  14.395  0.00  0.00    +0.000 A 
ATOM     27  C   UNL     1       7.734   4.947  13.077  0.00  0.00    +0.000 A 
ATOM     28  C   UNL     1       7.028   4.182  12.149  0.00  0.00    +0.000 A 
ATOM     29  C   UNL     1       5.886   3.493  12.550  0.00  0.00    +0.000 A 
ATOM     30 CL   UNL     1       5.011   2.548  11.410  0.00  0.00    +0.000 Cl
ATOM     31  C   UNL     1       5.433   3.575  13.869  0.00  0.00    +0.000 A 
ENDBRANCH  24  25
ENDBRANCH  21  24
ENDBRANCH   3  20
TORSDOF 6
ENDMDL
MODEL 5
REMARK VINA RESULT:      -7.7      2.105      2.896
REMARK  Name = 
REMARK  8 active torsions:
REMARK  status: ('A' for Active; 'I' for Inactive)
REMARK    1  A    between atoms: C_1  and  C_2
REMARK    2  A    between atoms: C_2  and  N_3
REMARK    3  A    between atoms: C_4  and  C_5
REMARK    4  A    between atoms: C_7  and  N_8
REMARK    5  A    between atoms: C_9  and  C_11
REMARK    6  A    between atoms: C_11  and  C_12
REMARK    7  A    between atoms: C_25  and  O_26
REMARK    8  A    between atoms: O_26  and  C_27
REMARK                            x       y       z     vdW  Elec       q    Type
REMARK                         _______ _______ _______ _____ _____    ______ ____
ROOT
ATOM      1  C   UNL     1       1.250   9.369  19.102  0.00  0.00    +0.000 A 
ATOM      2  C   UNL     1       1.609   8.037  19.414  0.00  0.00    +0.000 A 
ATOM      3  C   UNL     1       2.466   7.636  18.419  0.00  0.00    +0.000 A 
ATOM      4  N   UNL     1       2.570   8.722  17.588  0.00  0.00    +0.000 N 
ATOM      5  N   UNL     1       1.871   9.796  18.000  0.00  0.00    +0.000 NA
ATOM      6  H   UNL     1       3.102   8.812  16.728  0.00  0.00    +0.000 HD
ENDROOT
BRANCH   1   8
ATOM      7  N   UNL     1      -0.763  10.958  19.479  0.00  0.00    +0.000 N 
ATOM      8  C   UNL     1       0.298  10.189  19.908  0.00  0.00    +0.000 A 
ATOM      9  C   UNL     1       0.348  10.283  21.284  0.00  0.00    +0.000 A 
ATOM     10  C   UNL     1      -0.682  11.153  21.708  0.00  0.00    +0.000 A 
ATOM     11  C   UNL     1      -1.102  11.605  22.972  0.00  0.00    +0.000 A 
ATOM     12  C   UNL     1      -2.156  12.521  23.062  0.00  0.00    +0.000 A 
ATOM     13  C   UNL     1      -2.792  12.988  21.917  0.00  0.00    +0.000 A 
ATOM     14  C   UNL     1      -2.397  12.529  20.651  0.00  0.00    +0.000 A 
ATOM     15  C   UNL     1      -1.343  11.601  20.565  0.00  0.00    +0.000 A 
BRANCH   7  17
ATOM     16  C   UNL     1      -2.100   9.993  17.650  0.00  0.00    +0.000 C 
ATOM     17  C   UNL     1      -1.199  11.129  18.101  0.00  0.00    +0.000 C 
ENDBRANCH   7  17
BRANCH  13  18
ATOM     18  O   UNL     1      -3.820  13.896  21.892  0.00  0.00    +0.000 OA
ATOM     19  C   UNL     1      -3.839  14.867  22.932  0.00  0.00    +0.000 C 
ENDBRANCH  13  18
ENDBRANCH   1   8
BRANCH   3  20
ATOM     20  N   UNL     1       3.107   6.414  18.263  0.00  0.00    +0.000 N 
ATOM     21  C   UNL     1       4.469   6.283  17.793  0.00  0.00    +0.000 C 
ATOM     22  O   UNL     1       5.142   7.265  17.506  0.00  0.00    +0.000 OA
ATOM     23  H   UNL     1       2.585   5.569  18.463  0.00  0.00    +0.000 HD
BRANCH  21  24
ATOM     24  C   UNL     1       4.970   4.866  17.644  0.00  0.00    +0.000 C 
BRANCH  24  25
ATOM     25  C   UNL     1       3.976   3.867  18.173  0.00  0.00    +0.000 A 
ATOM     26  C   UNL     1       3.216   3.084  17.288  0.00  0.00    +0.000 A 
ATOM     27  C   UNL     1       2.249   2.202  17.771  0.00  0.00    +0.000 A 
ATOM     28  C   UNL     1       2.034   2.085  19.144  0.00  0.00    +0.000 A 
ATOM     29  C   UNL     1       2.804   2.836  20.028  0.00  0.00    +0.000 A 
ATOM     30 CL   UNL     1       2.543   2.697  21.722  0.00  0.00    +0.000 Cl
ATOM     31  C   UNL     1       3.776   3.719  19.552  0.00  0.00    +0.000 A 
ENDBRANCH  24  25
ENDBRANCH  21  24
ENDBRANCH   3  20
TORSDOF 6
ENDMDL
MODEL 6
REMARK VINA RESULT:      -7.7      8.030      9.485
REMARK  Name = 
REMARK  8 active torsions:
REMARK  status: ('A' for Active; 'I' for Inactive)
REMARK    1  A    between atoms: C_1  and  C_2
REMARK    2  A    between atoms: C_2  and  N_3
REMARK    3  A    between atoms: C_4  and  C_5
REMARK    4  A    between atoms: C_7  and  N_8
REMARK    5  A    between atoms: C_9  and  C_11
REMARK    6  A    between atoms: C_11  and  C_12
REMARK    7  A    between atoms: C_25  and  O_26
REMARK    8  A    between atoms: O_26  and  C_27
REMARK                            x       y       z     vdW  Elec       q    Type
REMARK                         _______ _______ _______ _____ _____    ______ ____
ROOT
ATOM      1  C   UNL     1       9.130  10.900  18.710  0.00  0.00    +0.000 A 
ATOM      2  C   UNL     1       8.350  10.367  17.658  0.00  0.00    +0.000 A 
ATOM      3  C   UNL     1       8.227   9.025  17.923  0.00  0.00    +0.000 A 
ATOM      4  N   UNL     1       8.923   8.834  19.089  0.00  0.00    +0.000 N 
ATOM      5  N   UNL     1       9.449   9.961  19.605  0.00  0.00    +0.000 NA
ATOM      6  H   UNL     1       9.078   7.970  19.599  0.00  0.00    +0.000 HD
ENDROOT
BRANCH   1   8
ATOM      7  N   UNL     1       9.841  13.076  19.926  0.00  0.00    +0.000 N 
ATOM      8  C   UNL     1       9.541  12.332  18.805  0.00  0.00    +0.000 A 
ATOM      9  C   UNL     1       9.698  13.155  17.708  0.00  0.00    +0.000 A 
ATOM     10  C   UNL     1      10.070  14.439  18.165  0.00  0.00    +0.000 A 
ATOM     11  C   UNL     1      10.365  15.647  17.508  0.00  0.00    +0.000 A 
ATOM     12  C   UNL     1      10.668  16.787  18.262  0.00  0.00    +0.000 A 
ATOM     13  C   UNL     1      10.682  16.736  19.651  0.00  0.00    +0.000 A 
ATOM     14  C   UNL     1      10.411  15.532  20.319  0.00  0.00    +0.000 A 
ATOM     15  C   UNL     1      10.116  14.387  19.557  0.00  0.00    +0.000 A 
BRANCH   7  17
ATOM     16  C   UNL     1       8.459  12.740  21.937  0.00  0.00    +0.000 C 
ATOM     17  C   UNL     1       9.831  12.600  21.301  0.00  0.00    +0.000 C 
ENDBRANCH   7  17
BRANCH  13  18
ATOM     18  O   UNL     1      10.949  17.794  20.482  0.00  0.00    +0.000 OA
ATOM     19  C   UNL     1      11.661  17.503  21.679  0.00  0.00    +0.000 C 
ENDBRANCH  13  18
ENDBRANCH   1   8
BRANCH   3  20
ATOM     20  N   UNL     1       7.552   8.053  17.197  0.00  0.00    +0.000 N 
ATOM     21  C   UNL     1       7.436   6.677  17.625  0.00  0.00    +0.000 C 
ATOM     22  O   UNL     1       7.935   6.290  18.674  0.00  0.00    +0.000 OA
ATOM     23  H   UNL     1       7.141   8.316  16.308  0.00  0.00    +0.000 HD
BRANCH  21  24
ATOM     24  C   UNL     1       6.703   5.761  16.672  0.00  0.00    +0.000 C 
BRANCH  24  25
ATOM     25  C   UNL     1       5.295   5.491  17.133  0.00  0.00    +0.000 A 
ATOM     26  C   UNL     1       4.711   4.231  16.927  0.00  0.00    +0.000 A 
ATOM     27  C   UNL     1       3.386   3.994  17.294  0.00  0.00    +0.000 A 
ATOM     28  C   UNL     1       2.631   5.010  17.879  0.00  0.00    +0.000 A 
ATOM     29  C   UNL     1       3.213   6.253  18.112  0.00  0.00    +0.000 A 
ATOM     30 CL   UNL     1       2.287   7.511  18.832  0.00  0.00    +0.000 Cl
ATOM     31  C   UNL     1       4.540   6.497  17.750  0.00  0.00    +0.000 A 
ENDBRANCH  24  25
ENDBRANCH  21  24
ENDBRANCH   3  20
TORSDOF 6
ENDMDL
MODEL 7
REMARK VINA RESULT:      -7.6      3.804     10.347
REMARK  Name = 
REMARK  8 active torsions:
REMARK  status: ('A' for Active; 'I' for Inactive)
REMARK    1  A    between atoms: C_1  and  C_2
REMARK    2  A    between atoms: C_2  and  N_3
REMARK    3  A    between atoms: C_4  and  C_5
REMARK    4  A    between atoms: C_7  and  N_8
REMARK    5  A    between atoms: C_9  and  C_11
REMARK    6  A    between atoms: C_11  and  C_12
REMARK    7  A    between atoms: C_25  and  O_26
REMARK    8  A    between atoms: O_26  and  C_27
REMARK                            x       y       z     vdW  Elec       q    Type
REMARK                         _______ _______ _______ _____ _____    ______ ____
ROOT
ATOM      1  C   UNL     1       0.387  10.549  19.377  0.00  0.00    +0.000 A 
ATOM      2  C   UNL     1      -0.980  10.658  19.029  0.00  0.00    +0.000 A 
ATOM      3  C   UNL     1      -1.376  11.904  19.447  0.00  0.00    +0.000 A 
ATOM      4  N   UNL     1      -0.254  12.458  20.009  0.00  0.00    +0.000 N 
ATOM      5  N   UNL     1       0.836  11.670  19.946  0.00  0.00    +0.000 NA
ATOM      6  H   UNL     1      -0.148  13.367  20.447  0.00  0.00    +0.000 HD
ENDROOT
BRANCH   1   8
ATOM      7  N   UNL     1       1.424   8.245  19.958  0.00  0.00    +0.000 N 
ATOM      8  C   UNL     1       1.217   9.332  19.135  0.00  0.00    +0.000 A 
ATOM      9  C   UNL     1       1.927   9.111  17.972  0.00  0.00    +0.000 A 
ATOM     10  C   UNL     1       2.610   7.880  18.094  0.00  0.00    +0.000 A 
ATOM     11  C   UNL     1       3.460   7.161  17.236  0.00  0.00    +0.000 A 
ATOM     12  C   UNL     1       4.027   5.959  17.674  0.00  0.00    +0.000 A 
ATOM     13  C   UNL     1       3.758   5.469  18.947  0.00  0.00    +0.000 A 
ATOM     14  C   UNL     1       2.894   6.166  19.806  0.00  0.00    +0.000 A 
ATOM     15  C   UNL     1       2.319   7.369  19.358  0.00  0.00    +0.000 A 
BRANCH   7  17
ATOM     16  C   UNL     1       1.431   9.000  22.303  0.00  0.00    +0.000 C 
ATOM     17  C   UNL     1       0.845   8.044  21.278  0.00  0.00    +0.000 C 
ENDBRANCH   7  17
BRANCH  13  18
ATOM     18  O   UNL     1       4.273   4.314  19.480  0.00  0.00    +0.000 OA
ATOM     19  C   UNL     1       3.367   3.480  20.192  0.00  0.00    +0.000 C 
ENDBRANCH  13  18
ENDBRANCH   1   8
BRANCH   3  20
ATOM     20  N   UNL     1      -2.624  12.503  19.336  0.00  0.00    +0.000 N 
ATOM     21  C   UNL     1      -3.426  12.890  20.477  0.00  0.00    +0.000 C 
ATOM     22  O   UNL     1      -3.035  12.710  21.622  0.00  0.00    +0.000 OA
ATOM     23  H   UNL     1      -3.005  12.652  18.409  0.00  0.00    +0.000 HD
BRANCH  21  24
ATOM     24  C   UNL     1      -4.776  13.482  20.148  0.00  0.00    +0.000 C 
BRANCH  24  25
ATOM     25  C   UNL     1      -5.895  12.530  20.480  0.00  0.00    +0.000 A 
ATOM     26  C   UNL     1      -6.830  12.855  21.477  0.00  0.00    +0.000 A 
ATOM     27  C   UNL     1      -7.832  11.951  21.832  0.00  0.00    +0.000 A 
ATOM     28  C   UNL     1      -7.916  10.715  21.192  0.00  0.00    +0.000 A 
ATOM     29  C   UNL     1      -7.010  10.399  20.183  0.00  0.00    +0.000 A 
ATOM     30 CL   UNL     1      -7.107   8.875  19.390  0.00  0.00    +0.000 Cl
ATOM     31  C   UNL     1      -6.007  11.300  19.819  0.00  0.00    +0.000 A 
ENDBRANCH  24  25
ENDBRANCH  21  24
ENDBRANCH   3  20
TORSDOF 6
ENDMDL
MODEL 8
REMARK VINA RESULT:      -7.6      2.127      2.781
REMARK  Name = 
REMARK  8 active torsions:
REMARK  status: ('A' for Active; 'I' for Inactive)
REMARK    1  A    between atoms: C_1  and  C_2
REMARK    2  A    between atoms: C_2  and  N_3
REMARK    3  A    between atoms: C_4  and  C_5
REMARK    4  A    between atoms: C_7  and  N_8
REMARK    5  A    between atoms: C_9  and  C_11
REMARK    6  A    between atoms: C_11  and  C_12
REMARK    7  A    between atoms: C_25  and  O_26
REMARK    8  A    between atoms: O_26  and  C_27
REMARK                            x       y       z     vdW  Elec       q    Type
REMARK                         _______ _______ _______ _____ _____    ______ ____
ROOT
ATOM      1  C   UNL     1       0.210   9.807  21.864  0.00  0.00    +0.000 A 
ATOM      2  C   UNL     1       0.104   8.613  21.115  0.00  0.00    +0.000 A 
ATOM      3  C   UNL     1       1.291   7.946  21.300  0.00  0.00    +0.000 A 
ATOM      4  N   UNL     1       2.022   8.757  22.129  0.00  0.00    +0.000 N 
ATOM      5  N   UNL     1       1.375   9.873  22.514  0.00  0.00    +0.000 NA
ATOM      6  H   UNL     1       2.963   8.617  22.483  0.00  0.00    +0.000 HD
ENDROOT
BRANCH   1   8
ATOM      7  N   UNL     1      -1.349  11.641  20.903  0.00  0.00    +0.000 N 
ATOM      8  C   UNL     1      -0.850  10.856  21.921  0.00  0.00    +0.000 A 
ATOM      9  C   UNL     1      -1.528  11.195  23.074  0.00  0.00    +0.000 A 
ATOM     10  C   UNL     1      -2.438  12.231  22.767  0.00  0.00    +0.000 A 
ATOM     11  C   UNL     1      -3.376  12.948  23.533  0.00  0.00    +0.000 A 
ATOM     12  C   UNL     1      -4.119  13.971  22.932  0.00  0.00    +0.000 A 
ATOM     13  C   UNL     1      -3.941  14.285  21.589  0.00  0.00    +0.000 A 
ATOM     14  C   UNL     1      -3.025  13.563  20.809  0.00  0.00    +0.000 A 
ATOM     15  C   UNL     1      -2.286  12.529  21.414  0.00  0.00    +0.000 A 
BRANCH   7  17
ATOM     16  C   UNL     1       0.260  12.497  19.245  0.00  0.00    +0.000 C 
ATOM     17  C   UNL     1      -0.938  11.601  19.507  0.00  0.00    +0.000 C 
ENDBRANCH   7  17
BRANCH  13  18
ATOM     18  O   UNL     1      -4.603  15.275  20.910  0.00  0.00    +0.000 OA
ATOM     19  C   UNL     1      -5.835  14.915  20.295  0.00  0.00    +0.000 C 
ENDBRANCH  13  18
ENDBRANCH   1   8
BRANCH   3  20
ATOM     20  N   UNL     1       1.689   6.720  20.783  0.00  0.00    +0.000 N 
ATOM     21  C   UNL     1       2.283   6.564  19.474  0.00  0.00    +0.000 C 
ATOM     22  O   UNL     1       2.472   7.524  18.739  0.00  0.00    +0.000 OA
ATOM     23  H   UNL     1       1.532   5.889  21.342  0.00  0.00    +0.000 HD
BRANCH  21  24
ATOM     24  C   UNL     1       2.604   5.143  19.074  0.00  0.00    +0.000 C 
BRANCH  24  25
ATOM     25  C   UNL     1       3.970   5.036  18.450  0.00  0.00    +0.000 A 
ATOM     26  C   UNL     1       4.118   4.531  17.147  0.00  0.00    +0.000 A 
ATOM     27  C   UNL     1       5.386   4.371  16.588  0.00  0.00    +0.000 A 
ATOM     28  C   UNL     1       6.521   4.719  17.319  0.00  0.00    +0.000 A 
ATOM     29  C   UNL     1       6.380   5.247  18.600  0.00  0.00    +0.000 A 
ATOM     30 CL   UNL     1       7.776   5.677  19.508  0.00  0.00    +0.000 Cl
ATOM     31  C   UNL     1       5.114   5.413  19.165  0.00  0.00    +0.000 A 
ENDBRANCH  24  25
ENDBRANCH  21  24
ENDBRANCH   3  20
TORSDOF 6
ENDMDL
MODEL 9
REMARK VINA RESULT:      -7.6      3.076      3.551
REMARK  Name = 
REMARK  8 active torsions:
REMARK  status: ('A' for Active; 'I' for Inactive)
REMARK    1  A    between atoms: C_1  and  C_2
REMARK    2  A    between atoms: C_2  and  N_3
REMARK    3  A    between atoms: C_4  and  C_5
REMARK    4  A    between atoms: C_7  and  N_8
REMARK    5  A    between atoms: C_9  and  C_11
REMARK    6  A    between atoms: C_11  and  C_12
REMARK    7  A    between atoms: C_25  and  O_26
REMARK    8  A    between atoms: O_26  and  C_27
REMARK                            x       y       z     vdW  Elec       q    Type
REMARK                         _______ _______ _______ _____ _____    ______ ____
ROOT
ATOM      1  C   UNL     1       1.483  10.239  19.034  0.00  0.00    +0.000 A 
ATOM      2  C   UNL     1       1.936   9.423  17.972  0.00  0.00    +0.000 A 
ATOM      3  C   UNL     1       2.011   8.150  18.482  0.00  0.00    +0.000 A 
ATOM      4  N   UNL     1       1.609   8.272  19.788  0.00  0.00    +0.000 N 
ATOM      5  N   UNL     1       1.249   9.522  20.135  0.00  0.00    +0.000 NA
ATOM      6  H   UNL     1       1.544   7.552  20.500  0.00  0.00    +0.000 HD
ENDROOT
BRANCH   1   8
ATOM      7  N   UNL     1       0.127  12.449  19.037  0.00  0.00    +0.000 N 
ATOM      8  C   UNL     1       1.290  11.716  18.930  0.00  0.00    +0.000 A 
ATOM      9  C   UNL     1       2.322  12.607  18.710  0.00  0.00    +0.000 A 
ATOM     10  C   UNL     1       1.779  13.910  18.648  0.00  0.00    +0.000 A 
ATOM     11  C   UNL     1       2.347  15.182  18.457  0.00  0.00    +0.000 A 
ATOM     12  C   UNL     1       1.517  16.308  18.403  0.00  0.00    +0.000 A 
ATOM     13  C   UNL     1       0.138  16.181  18.537  0.00  0.00    +0.000 A 
ATOM     14  C   UNL     1      -0.440  14.920  18.750  0.00  0.00    +0.000 A 
ATOM     15  C   UNL     1       0.399  13.792  18.813  0.00  0.00    +0.000 A 
BRANCH   7  17
ATOM     16  C   UNL     1      -1.547  11.949  20.773  0.00  0.00    +0.000 C 
ATOM     17  C   UNL     1      -1.203  11.917  19.294  0.00  0.00    +0.000 C 
ENDBRANCH   7  17
BRANCH  13  18
ATOM     18  O   UNL     1      -0.763  17.213  18.482  0.00  0.00    +0.000 OA
ATOM     19  C   UNL     1      -0.508  18.234  17.525  0.00  0.00    +0.000 C 
ENDBRANCH  13  18
ENDBRANCH   1   8
BRANCH   3  20
ATOM     20  N   UNL     1       2.397   6.978  17.845  0.00  0.00    +0.000 N 
ATOM     21  C   UNL     1       2.548   5.712  18.528  0.00  0.00    +0.000 C 
ATOM     22  O   UNL     1       2.335   5.606  19.729  0.00  0.00    +0.000 OA
ATOM     23  H   UNL     1       2.610   7.018  16.855  0.00  0.00    +0.000 HD
BRANCH  21  24
ATOM     24  C   UNL     1       3.025   4.565  17.669  0.00  0.00    +0.000 C 
BRANCH  24  25
ATOM     25  C   UNL     1       4.502   4.655  17.390  0.00  0.00    +0.000 A 
ATOM     26  C   UNL     1       5.018   4.229  16.155  0.00  0.00    +0.000 A 
ATOM     27  C   UNL     1       6.392   4.251  15.915  0.00  0.00    +0.000 A 
ATOM     28  C   UNL     1       7.267   4.706  16.901  0.00  0.00    +0.000 A 
ATOM     29  C   UNL     1       6.759   5.157  18.117  0.00  0.00    +0.000 A 
ATOM     30 CL   UNL     1       7.832   5.718  19.338  0.00  0.00    +0.000 Cl
ATOM     31  C   UNL     1       5.384   5.141  18.364  0.00  0.00    +0.000 A 
ENDBRANCH  24  25
ENDBRANCH  21  24
ENDBRANCH   3  20
TORSDOF 6
ENDMDL
