MODEL 1
REMARK VINA RESULT:      -6.8      0.000      0.000
REMARK  Name = 
REMARK  7 active torsions:
REMARK  status: ('A' for Active; 'I' for Inactive)
REMARK    1  A    between atoms: C_1  and  N_2
REMARK    2  A    between atoms: N_2  and  C_3
REMARK    3  A    between atoms: N_2  and  C_4
REMARK    4  A    between atoms: C_4  and  C_5
REMARK    5  A    between atoms: C_5  and  C_6
REMARK    6  A    between atoms: C_6  and  C_7
REMARK    7  A    between atoms: C_6  and  N_16
REMARK                            x       y       z     vdW  Elec       q    Type
REMARK                         _______ _______ _______ _____ _____    ______ ____
ROOT
ATOM      1  C   UNL     1       3.537   5.321  18.675  0.00  0.00    +0.000 C 
ENDROOT
BRANCH   1   2
ATOM      2  C   UNL     1       2.734   6.619  18.839  0.00  0.00    +0.000 A 
ATOM      3  C   UNL     1       2.574   7.700  17.979  0.00  0.00    +0.000 A 
ATOM      4  C   UNL     1       1.894   8.817  18.581  0.00  0.00    +0.000 A 
ATOM      5  C   UNL     1       1.628  10.118  18.084  0.00  0.00    +0.000 A 
ATOM      6  C   UNL     1       0.964  11.061  18.882  0.00  0.00    +0.000 A 
ATOM      7  C   UNL     1       0.533  10.721  20.156  0.00  0.00    +0.000 A 
ATOM      8  C   UNL     1       0.765   9.440  20.663  0.00  0.00    +0.000 A 
ATOM      9  C   UNL     1       1.468   8.512  19.873  0.00  0.00    +0.000 A 
ATOM     10  S   UNL     1       1.948   6.933  20.338  0.00  0.00    +0.000 S 
ENDBRANCH   1   2
BRANCH   1  11
ATOM     11  N   UNL     1       2.964   4.389  17.645  0.00  0.00    +0.000 NA
ATOM     12  C   UNL     1       1.518   4.089  17.802  0.00  0.00    +0.000 C 
ATOM     13  C   UNL     1       1.170   3.135  18.965  0.00  0.00    +0.000 C 
ATOM     14  O   UNL     1       1.897   1.902  18.880  0.00  0.00    +0.000 OA
ATOM     15  C   UNL     1       3.304   2.152  18.809  0.00  0.00    +0.000 C 
ATOM     16  C   UNL     1       3.632   3.055  17.606  0.00  0.00    +0.000 C 
ENDBRANCH   1  11
BRANCH   1  17
ATOM     17  C   UNL     1       5.014   5.661  18.314  0.00  0.00    +0.000 C 
BRANCH  17  18
ATOM     18  C   UNL     1       6.094   5.212  19.315  0.00  0.00    +0.000 C 
BRANCH  18  20
ATOM     19  C   UNL     1       7.509   4.553  17.459  0.00  0.00    +0.000 C 
ATOM     20  N   UNL     1       7.454   5.285  18.727  0.00  0.00    +0.000 NA
ATOM     21  C   UNL     1       7.922   6.658  18.521  0.00  0.00    +0.000 C 
ENDBRANCH  18  20
ENDBRANCH  17  18
ENDBRANCH   1  17
TORSDOF 5
ENDMDL
MODEL 2
REMARK VINA RESULT:      -6.7      0.906      1.269
REMARK  Name = 
REMARK  7 active torsions:
REMARK  status: ('A' for Active; 'I' for Inactive)
REMARK    1  A    between atoms: C_1  and  N_2
REMARK    2  A    between atoms: N_2  and  C_3
REMARK    3  A    between atoms: N_2  and  C_4
REMARK    4  A    between atoms: C_4  and  C_5
REMARK    5  A    between atoms: C_5  and  C_6
REMARK    6  A    between atoms: C_6  and  C_7
REMARK    7  A    between atoms: C_6  and  N_16
REMARK                            x       y       z     vdW  Elec       q    Type
REMARK                         _______ _______ _______ _____ _____    ______ ____
ROOT
ATOM      1  C   UNL     1       3.803   5.277  18.554  0.00  0.00    +0.000 C 
ENDROOT
BRANCH   1   2
ATOM      2  C   UNL     1       2.928   6.525  18.735  0.00  0.00    +0.000 A 
ATOM      3  C   UNL     1       2.708   7.608  17.891  0.00  0.00    +0.000 A 
ATOM      4  C   UNL     1       1.964   8.676  18.509  0.00  0.00    +0.000 A 
ATOM      5  C   UNL     1       1.626   9.967  18.031  0.00  0.00    +0.000 A 
ATOM      6  C   UNL     1       0.907  10.858  18.842  0.00  0.00    +0.000 A 
ATOM      7  C   UNL     1       0.494  10.474  20.110  0.00  0.00    +0.000 A 
ATOM      8  C   UNL     1       0.798   9.200  20.597  0.00  0.00    +0.000 A 
ATOM      9  C   UNL     1       1.554   8.326  19.795  0.00  0.00    +0.000 A 
ATOM     10  S   UNL     1       2.122   6.770  20.236  0.00  0.00    +0.000 S 
ENDBRANCH   1   2
BRANCH   1  11
ATOM     11  N   UNL     1       3.249   4.296  17.560  0.00  0.00    +0.000 NA
ATOM     12  C   UNL     1       1.784   4.064  17.654  0.00  0.00    +0.000 C 
ATOM     13  C   UNL     1       1.334   3.212  18.859  0.00  0.00    +0.000 C 
ATOM     14  O   UNL     1       2.011   1.948  18.902  0.00  0.00    +0.000 OA
ATOM     15  C   UNL     1       3.429   2.138  18.895  0.00  0.00    +0.000 C 
ATOM     16  C   UNL     1       3.860   2.938  17.652  0.00  0.00    +0.000 C 
ENDBRANCH   1  11
BRANCH   1  17
ATOM     17  C   UNL     1       5.240   5.704  18.127  0.00  0.00    +0.000 C 
BRANCH  17  18
ATOM     18  C   UNL     1       5.496   5.863  16.617  0.00  0.00    +0.000 C 
BRANCH  18  20
ATOM     19  C   UNL     1       7.430   4.583  17.326  0.00  0.00    +0.000 C 
ATOM     20  N   UNL     1       6.828   5.341  16.227  0.00  0.00    +0.000 NA
ATOM     21  C   UNL     1       6.792   4.508  15.021  0.00  0.00    +0.000 C 
ENDBRANCH  18  20
ENDBRANCH  17  18
ENDBRANCH   1  17
TORSDOF 5
ENDMDL
MODEL 3
REMARK VINA RESULT:      -6.7      2.239      4.312
REMARK  Name = 
REMARK  7 active torsions:
REMARK  status: ('A' for Active; 'I' for Inactive)
REMARK    1  A    between atoms: C_1  and  N_2
REMARK    2  A    between atoms: N_2  and  C_3
REMARK    3  A    between atoms: N_2  and  C_4
REMARK    4  A    between atoms: C_4  and  C_5
REMARK    5  A    between atoms: C_5  and  C_6
REMARK    6  A    between atoms: C_6  and  C_7
REMARK    7  A    between atoms: C_6  and  N_16
REMARK                            x       y       z     vdW  Elec       q    Type
REMARK                         _______ _______ _______ _____ _____    ______ ____
ROOT
ATOM      1  C   UNL     1       4.138   5.055  17.405  0.00  0.00    +0.000 C 
ENDROOT
BRANCH   1   2
ATOM      2  C   UNL     1       3.412   6.136  18.216  0.00  0.00    +0.000 A 
ATOM      3  C   UNL     1       2.932   6.121  19.522  0.00  0.00    +0.000 A 
ATOM      4  C   UNL     1       2.134   7.273  19.854  0.00  0.00    +0.000 A 
ATOM      5  C   UNL     1       1.395   7.582  21.024  0.00  0.00    +0.000 A 
ATOM      6  C   UNL     1       0.658   8.773  21.103  0.00  0.00    +0.000 A 
ATOM      7  C   UNL     1       0.668   9.675  20.049  0.00  0.00    +0.000 A 
ATOM      8  C   UNL     1       1.404   9.404  18.893  0.00  0.00    +0.000 A 
ATOM      9  C   UNL     1       2.108   8.188  18.803  0.00  0.00    +0.000 A 
ATOM     10  S   UNL     1       2.982   7.614  17.445  0.00  0.00    +0.000 S 
ENDBRANCH   1   2
BRANCH   1  11
ATOM     11  N   UNL     1       5.536   4.782  17.886  0.00  0.00    +0.000 NA
ATOM     12  C   UNL     1       6.274   5.971  18.383  0.00  0.00    +0.000 C 
ATOM     13  C   UNL     1       6.761   6.943  17.287  0.00  0.00    +0.000 C 
ATOM     14  O   UNL     1       7.559   6.276  16.299  0.00  0.00    +0.000 OA
ATOM     15  C   UNL     1       6.845   5.170  15.740  0.00  0.00    +0.000 C 
ATOM     16  C   UNL     1       6.423   4.186  16.845  0.00  0.00    +0.000 C 
ENDBRANCH   1  11
BRANCH   1  17
ATOM     17  C   UNL     1       3.307   3.737  17.428  0.00  0.00    +0.000 C 
BRANCH  17  18
ATOM     18  C   UNL     1       3.604   2.750  18.571  0.00  0.00    +0.000 C 
BRANCH  18  20
ATOM     19  C   UNL     1       2.387   2.613  20.665  0.00  0.00    +0.000 C 
ATOM     20  N   UNL     1       2.361   2.289  19.237  0.00  0.00    +0.000 NA
ATOM     21  C   UNL     1       1.144   2.838  18.633  0.00  0.00    +0.000 C 
ENDBRANCH  18  20
ENDBRANCH  17  18
ENDBRANCH   1  17
TORSDOF 5
ENDMDL
MODEL 4
REMARK VINA RESULT:      -6.7      0.887      1.461
REMARK  Name = 
REMARK  7 active torsions:
REMARK  status: ('A' for Active; 'I' for Inactive)
REMARK    1  A    between atoms: C_1  and  N_2
REMARK    2  A    between atoms: N_2  and  C_3
REMARK    3  A    between atoms: N_2  and  C_4
REMARK    4  A    between atoms: C_4  and  C_5
REMARK    5  A    between atoms: C_5  and  C_6
REMARK    6  A    between atoms: C_6  and  C_7
REMARK    7  A    between atoms: C_6  and  N_16
REMARK                            x       y       z     vdW  Elec       q    Type
REMARK                         _______ _______ _______ _____ _____    ______ ____
ROOT
ATOM      1  C   UNL     1       3.468   5.507  18.712  0.00  0.00    +0.000 C 
ENDROOT
BRANCH   1   2
ATOM      2  C   UNL     1       2.711   6.763  19.165  0.00  0.00    +0.000 A 
ATOM      3  C   UNL     1       2.070   7.050  20.365  0.00  0.00    +0.000 A 
ATOM      4  C   UNL     1       1.307   8.271  20.331  0.00  0.00    +0.000 A 
ATOM      5  C   UNL     1       0.445   8.853  21.294  0.00  0.00    +0.000 A 
ATOM      6  C   UNL     1      -0.223  10.055  21.015  0.00  0.00    +0.000 A 
ATOM      7  C   UNL     1      -0.025  10.701  19.804  0.00  0.00    +0.000 A 
ATOM      8  C   UNL     1       0.834  10.159  18.845  0.00  0.00    +0.000 A 
ATOM      9  C   UNL     1       1.469   8.933  19.114  0.00  0.00    +0.000 A 
ATOM     10  S   UNL     1       2.473   8.046  18.044  0.00  0.00    +0.000 S 
ENDBRANCH   1   2
BRANCH   1  11
ATOM     11  N   UNL     1       2.798   4.780  17.579  0.00  0.00    +0.000 NA
ATOM     12  C   UNL     1       1.414   4.318  17.860  0.00  0.00    +0.000 C 
ATOM     13  C   UNL     1       1.309   3.100  18.802  0.00  0.00    +0.000 C 
ATOM     14  O   UNL     1       2.086   1.991  18.329  0.00  0.00    +0.000 OA
ATOM     15  C   UNL     1       3.447   2.382  18.125  0.00  0.00    +0.000 C 
ATOM     16  C   UNL     1       3.529   3.558  17.135  0.00  0.00    +0.000 C 
ENDBRANCH   1  11
BRANCH   1  17
ATOM     17  C   UNL     1       4.922   5.891  18.303  0.00  0.00    +0.000 C 
BRANCH  17  18
ATOM     18  C   UNL     1       6.059   5.320  19.169  0.00  0.00    +0.000 C 
BRANCH  18  20
ATOM     19  C   UNL     1       7.677   4.497  17.561  0.00  0.00    +0.000 C 
ATOM     20  N   UNL     1       7.388   5.540  18.547  0.00  0.00    +0.000 NA
ATOM     21  C   UNL     1       7.521   6.858  17.920  0.00  0.00    +0.000 C 
ENDBRANCH  18  20
ENDBRANCH  17  18
ENDBRANCH   1  17
TORSDOF 5
ENDMDL
MODEL 5
REMARK VINA RESULT:      -6.6      1.257      1.827
REMARK  Name = 
REMARK  7 active torsions:
REMARK  status: ('A' for Active; 'I' for Inactive)
REMARK    1  A    between atoms: C_1  and  N_2
REMARK    2  A    between atoms: N_2  and  C_3
REMARK    3  A    between atoms: N_2  and  C_4
REMARK    4  A    between atoms: C_4  and  C_5
REMARK    5  A    between atoms: C_5  and  C_6
REMARK    6  A    between atoms: C_6  and  C_7
REMARK    7  A    between atoms: C_6  and  N_16
REMARK                            x       y       z     vdW  Elec       q    Type
REMARK                         _______ _______ _______ _____ _____    ______ ____
ROOT
ATOM      1  C   UNL     1       3.185   5.495  18.411  0.00  0.00    +0.000 C 
ENDROOT
BRANCH   1   2
ATOM      2  C   UNL     1       2.569   6.745  19.054  0.00  0.00    +0.000 A 
ATOM      3  C   UNL     1       2.102   6.963  20.346  0.00  0.00    +0.000 A 
ATOM      4  C   UNL     1       1.415   8.219  20.504  0.00  0.00    +0.000 A 
ATOM      5  C   UNL     1       0.718   8.761  21.613  0.00  0.00    +0.000 A 
ATOM      6  C   UNL     1       0.094  10.014  21.516  0.00  0.00    +0.000 A 
ATOM      7  C   UNL     1       0.178  10.749  20.342  0.00  0.00    +0.000 A 
ATOM      8  C   UNL     1       0.875  10.247  19.241  0.00  0.00    +0.000 A 
ATOM      9  C   UNL     1       1.464   8.972  19.331  0.00  0.00    +0.000 A 
ATOM     10  S   UNL     1       2.270   8.128  18.075  0.00  0.00    +0.000 S 
ENDBRANCH   1   2
BRANCH   1  11
ATOM     11  N   UNL     1       2.164   4.508  17.921  0.00  0.00    +0.000 NA
ATOM     12  C   UNL     1       1.343   3.872  18.984  0.00  0.00    +0.000 C 
ATOM     13  C   UNL     1       2.077   2.807  19.827  0.00  0.00    +0.000 C 
ATOM     14  O   UNL     1       2.656   1.783  19.007  0.00  0.00    +0.000 OA
ATOM     15  C   UNL     1       3.519   2.357  18.021  0.00  0.00    +0.000 C 
ATOM     16  C   UNL     1       2.749   3.370  17.154  0.00  0.00    +0.000 C 
ENDBRANCH   1  11
BRANCH   1  17
ATOM     17  C   UNL     1       4.116   5.917  17.235  0.00  0.00    +0.000 C 
BRANCH  17  18
ATOM     18  C   UNL     1       5.627   5.965  17.528  0.00  0.00    +0.000 C 
BRANCH  18  20
ATOM     19  C   UNL     1       6.188   4.257  15.900  0.00  0.00    +0.000 C 
ATOM     20  N   UNL     1       6.272   4.647  17.309  0.00  0.00    +0.000 NA
ATOM     21  C   UNL     1       7.670   4.608  17.745  0.00  0.00    +0.000 C 
ENDBRANCH  18  20
ENDBRANCH  17  18
ENDBRANCH   1  17
TORSDOF 5
ENDMDL
MODEL 6
REMARK VINA RESULT:      -6.6      2.143      4.337
REMARK  Name = 
REMARK  7 active torsions:
REMARK  status: ('A' for Active; 'I' for Inactive)
REMARK    1  A    between atoms: C_1  and  N_2
REMARK    2  A    between atoms: N_2  and  C_3
REMARK    3  A    between atoms: N_2  and  C_4
REMARK    4  A    between atoms: C_4  and  C_5
REMARK    5  A    between atoms: C_5  and  C_6
REMARK    6  A    between atoms: C_6  and  C_7
REMARK    7  A    between atoms: C_6  and  N_16
REMARK                            x       y       z     vdW  Elec       q    Type
REMARK                         _______ _______ _______ _____ _____    ______ ____
ROOT
ATOM      1  C   UNL     1       4.557   4.903  17.387  0.00  0.00    +0.000 C 
ENDROOT
BRANCH   1   2
ATOM      2  C   UNL     1       3.571   5.874  18.051  0.00  0.00    +0.000 A 
ATOM      3  C   UNL     1       3.003   7.053  17.579  0.00  0.00    +0.000 A 
ATOM      4  C   UNL     1       2.271   7.780  18.584  0.00  0.00    +0.000 A 
ATOM      5  C   UNL     1       1.643   9.051  18.536  0.00  0.00    +0.000 A 
ATOM      6  C   UNL     1       1.007   9.572  19.672  0.00  0.00    +0.000 A 
ATOM      7  C   UNL     1       0.961   8.836  20.848  0.00  0.00    +0.000 A 
ATOM      8  C   UNL     1       1.555   7.574  20.917  0.00  0.00    +0.000 A 
ATOM      9  C   UNL     1       2.227   7.075  19.786  0.00  0.00    +0.000 A 
ATOM     10  S   UNL     1       3.107   5.607  19.687  0.00  0.00    +0.000 S 
ENDBRANCH   1   2
BRANCH   1  11
ATOM     11  N   UNL     1       5.942   4.965  17.968  0.00  0.00    +0.000 NA
ATOM     12  C   UNL     1       6.419   6.328  18.314  0.00  0.00    +0.000 C 
ATOM     13  C   UNL     1       6.805   7.212  17.109  0.00  0.00    +0.000 C 
ATOM     14  O   UNL     1       7.778   6.574  16.270  0.00  0.00    +0.000 OA
ATOM     15  C   UNL     1       7.314   5.287  15.851  0.00  0.00    +0.000 C 
ATOM     16  C   UNL     1       6.994   4.405  17.070  0.00  0.00    +0.000 C 
ENDBRANCH   1  11
BRANCH   1  17
ATOM     17  C   UNL     1       4.008   3.449  17.489  0.00  0.00    +0.000 C 
BRANCH  17  18
ATOM     18  C   UNL     1       2.499   3.259  17.246  0.00  0.00    +0.000 C 
BRANCH  18  20
ATOM     19  C   UNL     1       2.923   1.749  19.096  0.00  0.00    +0.000 C 
ATOM     20  N   UNL     1       1.930   2.205  18.121  0.00  0.00    +0.000 NA
ATOM     21  C   UNL     1       0.715   2.629  18.822  0.00  0.00    +0.000 C 
ENDBRANCH  18  20
ENDBRANCH  17  18
ENDBRANCH   1  17
TORSDOF 5
ENDMDL
MODEL 7
REMARK VINA RESULT:      -6.4      1.544      2.100
REMARK  Name = 
REMARK  7 active torsions:
REMARK  status: ('A' for Active; 'I' for Inactive)
REMARK    1  A    between atoms: C_1  and  N_2
REMARK    2  A    between atoms: N_2  and  C_3
REMARK    3  A    between atoms: N_2  and  C_4
REMARK    4  A    between atoms: C_4  and  C_5
REMARK    5  A    between atoms: C_5  and  C_6
REMARK    6  A    between atoms: C_6  and  C_7
REMARK    7  A    between atoms: C_6  and  N_16
REMARK                            x       y       z     vdW  Elec       q    Type
REMARK                         _______ _______ _______ _____ _____    ______ ____
ROOT
ATOM      1  C   UNL     1       3.053   5.837  19.110  0.00  0.00    +0.000 C 
ENDROOT
BRANCH   1   2
ATOM      2  C   UNL     1       2.359   7.175  19.398  0.00  0.00    +0.000 A 
ATOM      3  C   UNL     1       1.766   7.657  20.561  0.00  0.00    +0.000 A 
ATOM      4  C   UNL     1       1.050   8.892  20.371  0.00  0.00    +0.000 A 
ATOM      5  C   UNL     1       0.241   9.641  21.262  0.00  0.00    +0.000 A 
ATOM      6  C   UNL     1      -0.389  10.817  20.831  0.00  0.00    +0.000 A 
ATOM      7  C   UNL     1      -0.204  11.276  19.534  0.00  0.00    +0.000 A 
ATOM      8  C   UNL     1       0.603  10.568  18.641  0.00  0.00    +0.000 A 
ATOM      9  C   UNL     1       1.199   9.367  19.068  0.00  0.00    +0.000 A 
ATOM     10  S   UNL     1       2.135   8.295  18.111  0.00  0.00    +0.000 S 
ENDBRANCH   1   2
BRANCH   1  11
ATOM     11  N   UNL     1       2.109   4.668  19.078  0.00  0.00    +0.000 NA
ATOM     12  C   UNL     1       1.358   4.430  20.338  0.00  0.00    +0.000 C 
ATOM     13  C   UNL     1       2.189   3.822  21.489  0.00  0.00    +0.000 C 
ATOM     14  O   UNL     1       2.838   2.606  21.094  0.00  0.00    +0.000 OA
ATOM     15  C   UNL     1       3.637   2.819  19.926  0.00  0.00    +0.000 C 
ATOM     16  C   UNL     1       2.774   3.367  18.775  0.00  0.00    +0.000 C 
ENDBRANCH   1  11
BRANCH   1  17
ATOM     17  C   UNL     1       3.825   5.927  17.760  0.00  0.00    +0.000 C 
BRANCH  17  18
ATOM     18  C   UNL     1       5.361   5.979  17.842  0.00  0.00    +0.000 C 
BRANCH  18  20
ATOM     19  C   UNL     1       5.534   4.128  16.284  0.00  0.00    +0.000 C 
ATOM     20  N   UNL     1       5.971   4.652  17.580  0.00  0.00    +0.000 NA
ATOM     21  C   UNL     1       7.436   4.668  17.633  0.00  0.00    +0.000 C 
ENDBRANCH  18  20
ENDBRANCH  17  18
ENDBRANCH   1  17
TORSDOF 5
ENDMDL
MODEL 8
REMARK VINA RESULT:      -6.4      1.030      1.631
REMARK  Name = 
REMARK  7 active torsions:
REMARK  status: ('A' for Active; 'I' for Inactive)
REMARK    1  A    between atoms: C_1  and  N_2
REMARK    2  A    between atoms: N_2  and  C_3
REMARK    3  A    between atoms: N_2  and  C_4
REMARK    4  A    between atoms: C_4  and  C_5
REMARK    5  A    between atoms: C_5  and  C_6
REMARK    6  A    between atoms: C_6  and  C_7
REMARK    7  A    between atoms: C_6  and  N_16
REMARK                            x       y       z     vdW  Elec       q    Type
REMARK                         _______ _______ _______ _____ _____    ______ ____
ROOT
ATOM      1  C   UNL     1       3.770   4.962  18.212  0.00  0.00    +0.000 C 
ENDROOT
BRANCH   1   2
ATOM      2  C   UNL     1       3.108   6.245  18.734  0.00  0.00    +0.000 A 
ATOM      3  C   UNL     1       2.563   6.541  19.979  0.00  0.00    +0.000 A 
ATOM      4  C   UNL     1       1.861   7.798  20.014  0.00  0.00    +0.000 A 
ATOM      5  C   UNL     1       1.095   8.404  21.042  0.00  0.00    +0.000 A 
ATOM      6  C   UNL     1       0.469   9.640  20.827  0.00  0.00    +0.000 A 
ATOM      7  C   UNL     1       0.618  10.298  19.614  0.00  0.00    +0.000 A 
ATOM      8  C   UNL     1       1.383   9.733  18.591  0.00  0.00    +0.000 A 
ATOM      9  C   UNL     1       1.973   8.473  18.799  0.00  0.00    +0.000 A 
ATOM     10  S   UNL     1       2.858   7.558  17.651  0.00  0.00    +0.000 S 
ENDBRANCH   1   2
BRANCH   1  11
ATOM     11  N   UNL     1       2.822   4.054  17.480  0.00  0.00    +0.000 NA
ATOM     12  C   UNL     1       1.465   3.951  18.075  0.00  0.00    +0.000 C 
ATOM     13  C   UNL     1       1.381   3.116  19.371  0.00  0.00    +0.000 C 
ATOM     14  O   UNL     1       1.915   1.798  19.192  0.00  0.00    +0.000 OA
ATOM     15  C   UNL     1       3.255   1.862  18.695  0.00  0.00    +0.000 C 
ATOM     16  C   UNL     1       3.303   2.646  17.372  0.00  0.00    +0.000 C 
ENDBRANCH   1  11
BRANCH   1  17
ATOM     17  C   UNL     1       4.967   5.331  17.285  0.00  0.00    +0.000 C 
BRANCH  17  18
ATOM     18  C   UNL     1       6.291   4.584  17.531  0.00  0.00    +0.000 C 
BRANCH  18  20
ATOM     19  C   UNL     1       7.219   6.815  17.320  0.00  0.00    +0.000 C 
ATOM     20  N   UNL     1       7.371   5.506  17.960  0.00  0.00    +0.000 NA
ATOM     21  C   UNL     1       7.442   5.677  19.414  0.00  0.00    +0.000 C 
ENDBRANCH  18  20
ENDBRANCH  17  18
ENDBRANCH   1  17
TORSDOF 5
ENDMDL
MODEL 9
REMARK VINA RESULT:      -6.3      1.159      1.462
REMARK  Name = 
REMARK  7 active torsions:
REMARK  status: ('A' for Active; 'I' for Inactive)
REMARK    1  A    between atoms: C_1  and  N_2
REMARK    2  A    between atoms: N_2  and  C_3
REMARK    3  A    between atoms: N_2  and  C_4
REMARK    4  A    between atoms: C_4  and  C_5
REMARK    5  A    between atoms: C_5  and  C_6
REMARK    6  A    between atoms: C_6  and  C_7
REMARK    7  A    between atoms: C_6  and  N_16
REMARK                            x       y       z     vdW  Elec       q    Type
REMARK                         _______ _______ _______ _____ _____    ______ ____
ROOT
ATOM      1  C   UNL     1       3.676   5.185  19.509  0.00  0.00    +0.000 C 
ENDROOT
BRANCH   1   2
ATOM      2  C   UNL     1       2.826   6.456  19.366  0.00  0.00    +0.000 A 
ATOM      3  C   UNL     1       2.681   7.333  18.297  0.00  0.00    +0.000 A 
ATOM      4  C   UNL     1       1.934   8.520  18.625  0.00  0.00    +0.000 A 
ATOM      5  C   UNL     1       1.657   9.682  17.861  0.00  0.00    +0.000 A 
ATOM      6  C   UNL     1       0.921  10.739  18.418  0.00  0.00    +0.000 A 
ATOM      7  C   UNL     1       0.432  10.645  19.713  0.00  0.00    +0.000 A 
ATOM      8  C   UNL     1       0.674   9.504  20.481  0.00  0.00    +0.000 A 
ATOM      9  C   UNL     1       1.448   8.465  19.931  0.00  0.00    +0.000 A 
ATOM     10  S   UNL     1       1.949   7.033  20.730  0.00  0.00    +0.000 S 
ENDBRANCH   1   2
BRANCH   1  11
ATOM     11  N   UNL     1       3.029   3.963  18.920  0.00  0.00    +0.000 NA
ATOM     12  C   UNL     1       1.545   3.947  18.977  0.00  0.00    +0.000 C 
ATOM     13  C   UNL     1       0.946   3.682  20.375  0.00  0.00    +0.000 C 
ATOM     14  O   UNL     1       1.450   2.468  20.949  0.00  0.00    +0.000 OA
ATOM     15  C   UNL     1       2.880   2.483  20.984  0.00  0.00    +0.000 C 
ATOM     16  C   UNL     1       3.452   2.689  19.571  0.00  0.00    +0.000 C 
ENDBRANCH   1  11
BRANCH   1  17
ATOM     17  C   UNL     1       5.069   5.412  18.851  0.00  0.00    +0.000 C 
BRANCH  17  18
ATOM     18  C   UNL     1       5.249   4.896  17.411  0.00  0.00    +0.000 C 
BRANCH  18  20
ATOM     19  C   UNL     1       7.630   4.656  17.806  0.00  0.00    +0.000 C 
ATOM     20  N   UNL     1       6.610   5.176  16.892  0.00  0.00    +0.000 NA
ATOM     21  C   UNL     1       6.838   4.638  15.548  0.00  0.00    +0.000 C 
ENDBRANCH  18  20
ENDBRANCH  17  18
ENDBRANCH   1  17
TORSDOF 5
ENDMDL
