MODEL 1
REMARK VINA RESULT:      -8.3      0.000      0.000
REMARK  Name = 
REMARK  6 active torsions:
REMARK  status: ('A' for Active; 'I' for Inactive)
REMARK    1  A    between atoms: C_8  and  C_9
REMARK    2  A    between atoms: N_12  and  C_13
REMARK    3  A    between atoms: C_13  and  C_14
REMARK    4  A    between atoms: C_17  and  N_18
REMARK    5  A    between atoms: C_19  and  C_21
REMARK    6  A    between atoms: C_22  and  C_23
REMARK                            x       y       z     vdW  Elec       q    Type
REMARK                         _______ _______ _______ _____ _____    ______ ____
ROOT
ATOM      1  C   UNL     1       1.237  10.297  18.204  0.00  0.00    +0.000 C 
ENDROOT
BRANCH   1   5
ATOM      2  C   UNL     1       3.076   6.455  18.680  0.00  0.00    +0.000 C 
ATOM      3  C   UNL     1       2.586   7.150  19.947  0.00  0.00    +0.000 C 
ATOM      4  C   UNL     1       1.601   8.274  19.569  0.00  0.00    +0.000 C 
ATOM      5  N   UNL     1       2.186   9.244  18.619  0.00  0.00    +0.000 NA
ATOM      6  C   UNL     1       2.649   8.538  17.406  0.00  0.00    +0.000 C 
ATOM      7  C   UNL     1       3.710   7.500  17.759  0.00  0.00    +0.000 C 
BRANCH   2  15
ATOM      8  N   UNL     1       0.479   1.916  18.572  0.00  0.00    +0.000 N 
ATOM      9  C   UNL     1       1.824   2.269  18.721  0.00  0.00    +0.000 A 
ATOM     10  C   UNL     1       2.784   1.290  18.952  0.00  0.00    +0.000 A 
ATOM     11  C   UNL     1       4.125   1.645  19.127  0.00  0.00    +0.000 A 
ATOM     12  C   UNL     1       4.401   3.009  19.061  0.00  0.00    +0.000 A 
ATOM     13  N   UNL     1       5.559   3.738  19.195  0.00  0.00    +0.000 N 
ATOM     14  C   UNL     1       5.292   5.085  19.068  0.00  0.00    +0.000 A 
ATOM     15  C   UNL     1       3.934   5.239  18.849  0.00  0.00    +0.000 A 
ATOM     16  C   UNL     1       3.383   3.925  18.836  0.00  0.00    +0.000 A 
ATOM     17  N   UNL     1       2.087   3.576  18.662  0.00  0.00    +0.000 NA
ATOM     18  H   UNL     1       0.359   1.249  17.819  0.00  0.00    +0.000 HD
ATOM     19  H   UNL     1      -0.017   2.785  18.377  0.00  0.00    +0.000 HD
ATOM     20  H   UNL     1       6.470   3.342  19.381  0.00  0.00    +0.000 HD
ENDBRANCH   2  15
ENDBRANCH   1   5
BRANCH   1  21
ATOM     21  C   UNL     1       0.275  10.857  19.287  0.00  0.00    +0.000 C 
ATOM     22  C   UNL     1       0.034  12.377  19.233  0.00  0.00    +0.000 C 
ATOM     23  C   UNL     1      -1.003  12.855  18.209  0.00  0.00    +0.000 C 
ATOM     24  C   UNL     1      -2.274  12.001  18.098  0.00  0.00    +0.000 C 
ATOM     25  C   UNL     1      -1.934  10.511  18.055  0.00  0.00    +0.000 C 
ATOM     26  C   UNL     1      -1.065  10.102  19.242  0.00  0.00    +0.000 C 
BRANCH  24  27
ATOM     27  N   UNL     1      -3.257  12.277  19.149  0.00  0.00    +0.000 N 
ATOM     28  C   UNL     1      -4.598  12.053  18.915  0.00  0.00    +0.000 C 
ATOM     29  O   UNL     1      -5.062  11.747  17.819  0.00  0.00    +0.000 OA
ATOM     30  H   UNL     1      -2.932  12.364  20.103  0.00  0.00    +0.000 HD
BRANCH  28  31
ATOM     31  C   UNL     1      -5.470  12.234  20.106  0.00  0.00    +0.000 C 
ATOM     32  C   UNL     1      -5.570  13.451  20.665  0.00  0.00    +0.000 C 
BRANCH  32  33
ATOM     33  C   UNL     1      -6.317  13.686  21.906  0.00  0.00    +0.000 A 
ATOM     34  C   UNL     1      -7.166  12.659  22.346  0.00  0.00    +0.000 A 
ATOM     35  C   UNL     1      -7.912  12.802  23.517  0.00  0.00    +0.000 A 
ATOM     36  C   UNL     1      -7.817  13.971  24.265  0.00  0.00    +0.000 A 
ATOM     37  C   UNL     1      -6.971  15.001  23.842  0.00  0.00    +0.000 A 
ATOM     38  C   UNL     1      -6.224  14.861  22.666  0.00  0.00    +0.000 A 
ATOM     39 CL   UNL     1      -5.195  16.170  22.203  0.00  0.00    +0.000 Cl
ENDBRANCH  32  33
ENDBRANCH  28  31
ENDBRANCH  24  27
ENDBRANCH   1  21
TORSDOF 6
ENDMDL
MODEL 2
REMARK VINA RESULT:      -7.6      2.889      4.312
REMARK  Name = 
REMARK  6 active torsions:
REMARK  status: ('A' for Active; 'I' for Inactive)
REMARK    1  A    between atoms: C_8  and  C_9
REMARK    2  A    between atoms: N_12  and  C_13
REMARK    3  A    between atoms: C_13  and  C_14
REMARK    4  A    between atoms: C_17  and  N_18
REMARK    5  A    between atoms: C_19  and  C_21
REMARK    6  A    between atoms: C_22  and  C_23
REMARK                            x       y       z     vdW  Elec       q    Type
REMARK                         _______ _______ _______ _____ _____    ______ ____
ROOT
ATOM      1  C   UNL     1       0.943   7.818  21.572  0.00  0.00    +0.000 C 
ENDROOT
BRANCH   1   5
ATOM      2  C   UNL     1       3.347   5.455  18.924  0.00  0.00    +0.000 C 
ATOM      3  C   UNL     1       2.843   6.793  18.393  0.00  0.00    +0.000 C 
ATOM      4  C   UNL     1       2.381   7.674  19.572  0.00  0.00    +0.000 C 
ATOM      5  N   UNL     1       1.357   7.010  20.407  0.00  0.00    +0.000 NA
ATOM      6  C   UNL     1       1.878   5.719  20.904  0.00  0.00    +0.000 C 
ATOM      7  C   UNL     1       2.232   4.797  19.741  0.00  0.00    +0.000 C 
BRANCH   2  15
ATOM      8  N   UNL     1       7.749   7.215  16.713  0.00  0.00    +0.000 N 
ATOM      9  C   UNL     1       7.002   6.038  16.601  0.00  0.00    +0.000 A 
ATOM     10  C   UNL     1       7.377   5.054  15.694  0.00  0.00    +0.000 A 
ATOM     11  C   UNL     1       6.615   3.888  15.563  0.00  0.00    +0.000 A 
ATOM     12  C   UNL     1       5.491   3.808  16.382  0.00  0.00    +0.000 A 
ATOM     13  N   UNL     1       4.508   2.859  16.533  0.00  0.00    +0.000 N 
ATOM     14  C   UNL     1       3.586   3.272  17.471  0.00  0.00    +0.000 A 
ATOM     15  C   UNL     1       3.973   4.514  17.941  0.00  0.00    +0.000 A 
ATOM     16  C   UNL     1       5.179   4.840  17.256  0.00  0.00    +0.000 A 
ATOM     17  N   UNL     1       5.923   5.963  17.383  0.00  0.00    +0.000 NA
ATOM     18  H   UNL     1       8.717   7.013  16.932  0.00  0.00    +0.000 HD
ATOM     19  H   UNL     1       7.308   7.754  17.457  0.00  0.00    +0.000 HD
ATOM     20  H   UNL     1       4.459   1.993  16.013  0.00  0.00    +0.000 HD
ENDBRANCH   2  15
ENDBRANCH   1   5
BRANCH   1  21
ATOM     21  C   UNL     1      -0.460   8.480  21.518  0.00  0.00    +0.000 C 
ATOM     22  C   UNL     1      -0.963   9.069  22.849  0.00  0.00    +0.000 C 
ATOM     23  C   UNL     1      -0.431  10.463  23.209  0.00  0.00    +0.000 C 
ATOM     24  C   UNL     1      -0.357  11.468  22.050  0.00  0.00    +0.000 C 
ATOM     25  C   UNL     1       0.247  10.826  20.801  0.00  0.00    +0.000 C 
ATOM     26  C   UNL     1      -0.496   9.550  20.413  0.00  0.00    +0.000 C 
BRANCH  24  27
ATOM     27  N   UNL     1      -1.645  12.094  21.737  0.00  0.00    +0.000 N 
ATOM     28  C   UNL     1      -1.713  13.096  20.792  0.00  0.00    +0.000 C 
ATOM     29  O   UNL     1      -0.729  13.608  20.262  0.00  0.00    +0.000 OA
ATOM     30  H   UNL     1      -2.494  11.613  22.006  0.00  0.00    +0.000 HD
BRANCH  28  31
ATOM     31  C   UNL     1      -3.093  13.543  20.465  0.00  0.00    +0.000 C 
ATOM     32  C   UNL     1      -4.001  12.632  20.077  0.00  0.00    +0.000 C 
BRANCH  32  33
ATOM     33  C   UNL     1      -5.347  13.007  19.628  0.00  0.00    +0.000 A 
ATOM     34  C   UNL     1      -5.927  14.138  20.222  0.00  0.00    +0.000 A 
ATOM     35  C   UNL     1      -7.204  14.563  19.851  0.00  0.00    +0.000 A 
ATOM     36  C   UNL     1      -7.916  13.866  18.881  0.00  0.00    +0.000 A 
ATOM     37  C   UNL     1      -7.349  12.739  18.276  0.00  0.00    +0.000 A 
ATOM     38  C   UNL     1      -6.069  12.309  18.649  0.00  0.00    +0.000 A 
ATOM     39 CL   UNL     1      -5.425  10.914  17.859  0.00  0.00    +0.000 Cl
ENDBRANCH  32  33
ENDBRANCH  28  31
ENDBRANCH  24  27
ENDBRANCH   1  21
TORSDOF 6
ENDMDL
MODEL 3
REMARK VINA RESULT:      -7.6      7.460     12.364
REMARK  Name = 
REMARK  6 active torsions:
REMARK  status: ('A' for Active; 'I' for Inactive)
REMARK    1  A    between atoms: C_8  and  C_9
REMARK    2  A    between atoms: N_12  and  C_13
REMARK    3  A    between atoms: C_13  and  C_14
REMARK    4  A    between atoms: C_17  and  N_18
REMARK    5  A    between atoms: C_19  and  C_21
REMARK    6  A    between atoms: C_22  and  C_23
REMARK                            x       y       z     vdW  Elec       q    Type
REMARK                         _______ _______ _______ _____ _____    ______ ____
ROOT
ATOM      1  C   UNL     1       0.846  15.314  20.002  0.00  0.00    +0.000 C 
ENDROOT
BRANCH   1   5
ATOM      2  C   UNL     1      -2.847  13.408  21.048  0.00  0.00    +0.000 C 
ATOM      3  C   UNL     1      -1.862  12.597  20.212  0.00  0.00    +0.000 C 
ATOM      4  C   UNL     1      -0.465  13.244  20.292  0.00  0.00    +0.000 C 
ATOM      5  N   UNL     1      -0.474  14.664  19.879  0.00  0.00    +0.000 NA
ATOM      6  C   UNL     1      -1.438  15.418  20.709  0.00  0.00    +0.000 C 
ATOM      7  C   UNL     1      -2.846  14.854  20.547  0.00  0.00    +0.000 C 
BRANCH   2  15
ATOM      8  N   UNL     1      -4.968  11.486  16.670  0.00  0.00    +0.000 N 
ATOM      9  C   UNL     1      -5.400  11.605  17.995  0.00  0.00    +0.000 A 
ATOM     10  C   UNL     1      -6.683  11.208  18.351  0.00  0.00    +0.000 A 
ATOM     11  C   UNL     1      -7.125  11.350  19.671  0.00  0.00    +0.000 A 
ATOM     12  C   UNL     1      -6.207  11.910  20.556  0.00  0.00    +0.000 A 
ATOM     13  N   UNL     1      -6.265  12.220  21.894  0.00  0.00    +0.000 N 
ATOM     14  C   UNL     1      -5.079  12.792  22.304  0.00  0.00    +0.000 A 
ATOM     15  C   UNL     1      -4.230  12.856  21.213  0.00  0.00    +0.000 A 
ATOM     16  C   UNL     1      -4.946  12.290  20.119  0.00  0.00    +0.000 A 
ATOM     17  N   UNL     1      -4.521  12.144  18.842  0.00  0.00    +0.000 NA
ATOM     18  H   UNL     1      -5.045  10.529  16.346  0.00  0.00    +0.000 HD
ATOM     19  H   UNL     1      -3.998  11.799  16.665  0.00  0.00    +0.000 HD
ATOM     20  H   UNL     1      -7.072  12.070  22.485  0.00  0.00    +0.000 HD
ENDBRANCH   2  15
ENDBRANCH   1   5
BRANCH   1  21
ATOM     21  C   UNL     1       2.040  14.649  19.265  0.00  0.00    +0.000 C 
ATOM     22  C   UNL     1       2.545  15.396  18.017  0.00  0.00    +0.000 C 
ATOM     23  C   UNL     1       3.493  16.573  18.279  0.00  0.00    +0.000 C 
ATOM     24  C   UNL     1       4.558  16.344  19.362  0.00  0.00    +0.000 C 
ATOM     25  C   UNL     1       3.948  15.691  20.603  0.00  0.00    +0.000 C 
ATOM     26  C   UNL     1       3.198  14.408  20.248  0.00  0.00    +0.000 C 
BRANCH  24  27
ATOM     27  N   UNL     1       5.715  15.578  18.891  0.00  0.00    +0.000 N 
ATOM     28  C   UNL     1       6.888  16.230  18.570  0.00  0.00    +0.000 C 
ATOM     29  O   UNL     1       7.005  17.452  18.529  0.00  0.00    +0.000 OA
ATOM     30  H   UNL     1       5.737  14.581  19.062  0.00  0.00    +0.000 HD
BRANCH  28  31
ATOM     31  C   UNL     1       8.025  15.328  18.247  0.00  0.00    +0.000 C 
ATOM     32  C   UNL     1       8.188  14.199  18.956  0.00  0.00    +0.000 C 
BRANCH  32  33
ATOM     33  C   UNL     1       9.348  13.318  18.775  0.00  0.00    +0.000 A 
ATOM     34  C   UNL     1      10.060  13.437  17.572  0.00  0.00    +0.000 A 
ATOM     35  C   UNL     1      11.175  12.637  17.320  0.00  0.00    +0.000 A 
ATOM     36  C   UNL     1      11.595  11.709  18.268  0.00  0.00    +0.000 A 
ATOM     37  C   UNL     1      10.898  11.583  19.474  0.00  0.00    +0.000 A 
ATOM     38  C   UNL     1       9.777  12.383  19.728  0.00  0.00    +0.000 A 
ATOM     39 CL   UNL     1       8.965  12.179  21.239  0.00  0.00    +0.000 Cl
ENDBRANCH  32  33
ENDBRANCH  28  31
ENDBRANCH  24  27
ENDBRANCH   1  21
TORSDOF 6
ENDMDL
MODEL 4
REMARK VINA RESULT:      -7.6      5.689     10.931
REMARK  Name = 
REMARK  6 active torsions:
REMARK  status: ('A' for Active; 'I' for Inactive)
REMARK    1  A    between atoms: C_8  and  C_9
REMARK    2  A    between atoms: N_12  and  C_13
REMARK    3  A    between atoms: C_13  and  C_14
REMARK    4  A    between atoms: C_17  and  N_18
REMARK    5  A    between atoms: C_19  and  C_21
REMARK    6  A    between atoms: C_22  and  C_23
REMARK                            x       y       z     vdW  Elec       q    Type
REMARK                         _______ _______ _______ _____ _____    ______ ____
ROOT
ATOM      1  C   UNL     1      -0.193  13.917  20.099  0.00  0.00    +0.000 C 
ENDROOT
BRANCH   1   5
ATOM      2  C   UNL     1       3.709  15.688  19.973  0.00  0.00    +0.000 C 
ATOM      3  C   UNL     1       3.074  15.508  21.348  0.00  0.00    +0.000 C 
ATOM      4  C   UNL     1       1.910  14.502  21.250  0.00  0.00    +0.000 C 
ATOM      5  N   UNL     1       0.902  14.898  20.244  0.00  0.00    +0.000 NA
ATOM      6  C   UNL     1       1.550  15.064  18.926  0.00  0.00    +0.000 C 
ATOM      7  C   UNL     1       2.629  16.141  18.987  0.00  0.00    +0.000 C 
BRANCH   2  15
ATOM      8  N   UNL     1       7.582  13.566  17.170  0.00  0.00    +0.000 N 
ATOM      9  C   UNL     1       7.429  14.763  17.875  0.00  0.00    +0.000 A 
ATOM     10  C   UNL     1       8.488  15.657  17.976  0.00  0.00    +0.000 A 
ATOM     11  C   UNL     1       8.344  16.843  18.704  0.00  0.00    +0.000 A 
ATOM     12  C   UNL     1       7.100  17.037  19.300  0.00  0.00    +0.000 A 
ATOM     13  N   UNL     1       6.585  18.038  20.088  0.00  0.00    +0.000 N 
ATOM     14  C   UNL     1       5.288  17.741  20.451  0.00  0.00    +0.000 A 
ATOM     15  C   UNL     1       4.951  16.521  19.890  0.00  0.00    +0.000 A 
ATOM     16  C   UNL     1       6.095  16.090  19.160  0.00  0.00    +0.000 A 
ATOM     17  N   UNL     1       6.238  14.947  18.449  0.00  0.00    +0.000 NA
ATOM     18  H   UNL     1       7.868  13.740  16.214  0.00  0.00    +0.000 HD
ATOM     19  H   UNL     1       6.673  13.106  17.203  0.00  0.00    +0.000 HD
ATOM     20  H   UNL     1       7.094  18.863  20.376  0.00  0.00    +0.000 HD
ENDBRANCH   2  15
ENDBRANCH   1   5
BRANCH   1  21
ATOM     21  C   UNL     1       0.043  12.495  20.676  0.00  0.00    +0.000 C 
ATOM     22  C   UNL     1      -1.044  11.458  20.338  0.00  0.00    +0.000 C 
ATOM     23  C   UNL     1      -0.941  10.804  18.954  0.00  0.00    +0.000 C 
ATOM     24  C   UNL     1       0.476  10.416  18.505  0.00  0.00    +0.000 C 
ATOM     25  C   UNL     1       1.470  11.544  18.785  0.00  0.00    +0.000 C 
ATOM     26  C   UNL     1       1.427  11.976  20.249  0.00  0.00    +0.000 C 
BRANCH  24  27
ATOM     27  N   UNL     1       0.948   9.155  19.083  0.00  0.00    +0.000 N 
ATOM     28  C   UNL     1       1.941   8.437  18.451  0.00  0.00    +0.000 C 
ATOM     29  O   UNL     1       2.391   8.716  17.342  0.00  0.00    +0.000 OA
ATOM     30  H   UNL     1       0.745   8.964  20.055  0.00  0.00    +0.000 HD
BRANCH  28  31
ATOM     31  C   UNL     1       2.428   7.257  19.213  0.00  0.00    +0.000 C 
ATOM     32  C   UNL     1       2.175   6.024  18.742  0.00  0.00    +0.000 C 
BRANCH  32  33
ATOM     33  C   UNL     1       2.521   4.811  19.493  0.00  0.00    +0.000 A 
ATOM     34  C   UNL     1       1.882   4.618  20.727  0.00  0.00    +0.000 A 
ATOM     35  C   UNL     1       2.153   3.490  21.503  0.00  0.00    +0.000 A 
ATOM     36  C   UNL     1       3.066   2.540  21.056  0.00  0.00    +0.000 A 
ATOM     37  C   UNL     1       3.707   2.717  19.825  0.00  0.00    +0.000 A 
ATOM     38  C   UNL     1       3.438   3.849  19.046  0.00  0.00    +0.000 A 
ATOM     39 CL   UNL     1       4.262   4.003  17.535  0.00  0.00    +0.000 Cl
ENDBRANCH  32  33
ENDBRANCH  28  31
ENDBRANCH  24  27
ENDBRANCH   1  21
TORSDOF 6
ENDMDL
MODEL 5
REMARK VINA RESULT:      -7.4      2.799      3.414
REMARK  Name = 
REMARK  6 active torsions:
REMARK  status: ('A' for Active; 'I' for Inactive)
REMARK    1  A    between atoms: C_8  and  C_9
REMARK    2  A    between atoms: N_12  and  C_13
REMARK    3  A    between atoms: C_13  and  C_14
REMARK    4  A    between atoms: C_17  and  N_18
REMARK    5  A    between atoms: C_19  and  C_21
REMARK    6  A    between atoms: C_22  and  C_23
REMARK                            x       y       z     vdW  Elec       q    Type
REMARK                         _______ _______ _______ _____ _____    ______ ____
ROOT
ATOM      1  C   UNL     1       0.624  10.274  18.624  0.00  0.00    +0.000 C 
ENDROOT
BRANCH   1   5
ATOM      2  C   UNL     1       2.760   6.564  18.829  0.00  0.00    +0.000 C 
ATOM      3  C   UNL     1       2.394   7.227  20.154  0.00  0.00    +0.000 C 
ATOM      4  C   UNL     1       1.295   8.282  19.915  0.00  0.00    +0.000 C 
ATOM      5  N   UNL     1       1.686   9.287  18.904  0.00  0.00    +0.000 NA
ATOM      6  C   UNL     1       2.033   8.612  17.636  0.00  0.00    +0.000 C 
ATOM      7  C   UNL     1       3.198   7.647  17.840  0.00  0.00    +0.000 C 
BRANCH   2  15
ATOM      8  N   UNL     1       1.303   2.661  21.992  0.00  0.00    +0.000 N 
ATOM      9  C   UNL     1       2.400   2.881  21.154  0.00  0.00    +0.000 A 
ATOM     10  C   UNL     1       3.435   1.955  21.095  0.00  0.00    +0.000 A 
ATOM     11  C   UNL     1       4.545   2.188  20.277  0.00  0.00    +0.000 A 
ATOM     12  C   UNL     1       4.527   3.384  19.563  0.00  0.00    +0.000 A 
ATOM     13  N   UNL     1       5.414   3.967  18.689  0.00  0.00    +0.000 N 
ATOM     14  C   UNL     1       4.934   5.189  18.266  0.00  0.00    +0.000 A 
ATOM     15  C   UNL     1       3.711   5.408  18.876  0.00  0.00    +0.000 A 
ATOM     16  C   UNL     1       3.459   4.262  19.683  0.00  0.00    +0.000 A 
ATOM     17  N   UNL     1       2.384   4.029  20.472  0.00  0.00    +0.000 NA
ATOM     18  H   UNL     1       0.853   1.779  21.777  0.00  0.00    +0.000 HD
ATOM     19  H   UNL     1       0.671   3.444  21.834  0.00  0.00    +0.000 HD
ATOM     20  H   UNL     1       6.300   3.565  18.415  0.00  0.00    +0.000 HD
ENDBRANCH   2  15
ENDBRANCH   1   5
BRANCH   1  21
ATOM     21  C   UNL     1       0.159  11.175  19.800  0.00  0.00    +0.000 C 
ATOM     22  C   UNL     1       1.241  12.097  20.392  0.00  0.00    +0.000 C 
ATOM     23  C   UNL     1       1.503  13.401  19.628  0.00  0.00    +0.000 C 
ATOM     24  C   UNL     1       0.255  14.131  19.109  0.00  0.00    +0.000 C 
ATOM     25  C   UNL     1      -0.718  13.154  18.446  0.00  0.00    +0.000 C 
ATOM     26  C   UNL     1      -1.071  11.998  19.380  0.00  0.00    +0.000 C 
BRANCH  24  27
ATOM     27  N   UNL     1      -0.428  14.924  20.134  0.00  0.00    +0.000 N 
ATOM     28  C   UNL     1      -0.972  16.149  19.809  0.00  0.00    +0.000 C 
ATOM     29  O   UNL     1      -0.819  16.702  18.722  0.00  0.00    +0.000 OA
ATOM     30  H   UNL     1      -0.730  14.461  20.982  0.00  0.00    +0.000 HD
BRANCH  28  31
ATOM     31  C   UNL     1      -1.760  16.783  20.899  0.00  0.00    +0.000 C 
ATOM     32  C   UNL     1      -1.802  16.192  22.105  0.00  0.00    +0.000 C 
BRANCH  32  33
ATOM     33  C   UNL     1      -2.647  16.692  23.196  0.00  0.00    +0.000 A 
ATOM     34  C   UNL     1      -2.460  18.025  23.590  0.00  0.00    +0.000 A 
ATOM     35  C   UNL     1      -3.223  18.579  24.619  0.00  0.00    +0.000 A 
ATOM     36  C   UNL     1      -4.184  17.809  25.266  0.00  0.00    +0.000 A 
ATOM     37  C   UNL     1      -4.386  16.480  24.879  0.00  0.00    +0.000 A 
ATOM     38  C   UNL     1      -3.620  15.921  23.849  0.00  0.00    +0.000 A 
ATOM     39 CL   UNL     1      -3.923  14.276  23.419  0.00  0.00    +0.000 Cl
ENDBRANCH  32  33
ENDBRANCH  28  31
ENDBRANCH  24  27
ENDBRANCH   1  21
TORSDOF 6
ENDMDL
MODEL 6
REMARK VINA RESULT:      -7.4      1.547      2.018
REMARK  Name = 
REMARK  6 active torsions:
REMARK  status: ('A' for Active; 'I' for Inactive)
REMARK    1  A    between atoms: C_8  and  C_9
REMARK    2  A    between atoms: N_12  and  C_13
REMARK    3  A    between atoms: C_13  and  C_14
REMARK    4  A    between atoms: C_17  and  N_18
REMARK    5  A    between atoms: C_19  and  C_21
REMARK    6  A    between atoms: C_22  and  C_23
REMARK                            x       y       z     vdW  Elec       q    Type
REMARK                         _______ _______ _______ _____ _____    ______ ____
ROOT
ATOM      1  C   UNL     1       1.088  10.212  18.256  0.00  0.00    +0.000 C 
ENDROOT
BRANCH   1   5
ATOM      2  C   UNL     1       3.050   6.430  18.720  0.00  0.00    +0.000 C 
ATOM      3  C   UNL     1       2.546   7.108  19.989  0.00  0.00    +0.000 C 
ATOM      4  C   UNL     1       1.523   8.201  19.618  0.00  0.00    +0.000 C 
ATOM      5  N   UNL     1       2.072   9.189  18.665  0.00  0.00    +0.000 NA
ATOM      6  C   UNL     1       2.551   8.499  17.449  0.00  0.00    +0.000 C 
ATOM      7  C   UNL     1       3.646   7.495  17.795  0.00  0.00    +0.000 C 
BRANCH   2  15
ATOM      8  N   UNL     1       0.605   1.809  18.561  0.00  0.00    +0.000 N 
ATOM      9  C   UNL     1       1.937   2.205  18.720  0.00  0.00    +0.000 A 
ATOM     10  C   UNL     1       2.927   1.256  18.947  0.00  0.00    +0.000 A 
ATOM     11  C   UNL     1       4.256   1.654  19.132  0.00  0.00    +0.000 A 
ATOM     12  C   UNL     1       4.486   3.027  19.078  0.00  0.00    +0.000 A 
ATOM     13  N   UNL     1       5.619   3.792  19.225  0.00  0.00    +0.000 N 
ATOM     14  C   UNL     1       5.308   5.131  19.108  0.00  0.00    +0.000 A 
ATOM     15  C   UNL     1       3.947   5.241  18.882  0.00  0.00    +0.000 A 
ATOM     16  C   UNL     1       3.440   3.911  18.856  0.00  0.00    +0.000 A 
ATOM     17  N   UNL     1       2.157   3.520  18.672  0.00  0.00    +0.000 NA
ATOM     18  H   UNL     1       0.511   1.145  17.801  0.00  0.00    +0.000 HD
ATOM     19  H   UNL     1       0.082   2.663  18.370  0.00  0.00    +0.000 HD
ATOM     20  H   UNL     1       6.542   3.425  19.412  0.00  0.00    +0.000 HD
ENDBRANCH   2  15
ENDBRANCH   1   5
BRANCH   1  21
ATOM     21  C   UNL     1       0.655  11.252  19.325  0.00  0.00    +0.000 C 
ATOM     22  C   UNL     1       0.472  12.691  18.809  0.00  0.00    +0.000 C 
ATOM     23  C   UNL     1      -0.866  12.992  18.120  0.00  0.00    +0.000 C 
ATOM     24  C   UNL     1      -2.110  12.388  18.788  0.00  0.00    +0.000 C 
ATOM     25  C   UNL     1      -1.873  10.927  19.175  0.00  0.00    +0.000 C 
ATOM     26  C   UNL     1      -0.622  10.774  20.038  0.00  0.00    +0.000 C 
BRANCH  24  27
ATOM     27  N   UNL     1      -2.586  13.157  19.941  0.00  0.00    +0.000 N 
ATOM     28  C   UNL     1      -3.911  13.087  20.316  0.00  0.00    +0.000 C 
ATOM     29  O   UNL     1      -4.780  12.509  19.666  0.00  0.00    +0.000 OA
ATOM     30  H   UNL     1      -1.905  13.507  20.603  0.00  0.00    +0.000 HD
BRANCH  28  31
ATOM     31  C   UNL     1      -4.232  13.798  21.583  0.00  0.00    +0.000 C 
ATOM     32  C   UNL     1      -4.073  15.130  21.644  0.00  0.00    +0.000 C 
BRANCH  32  33
ATOM     33  C   UNL     1      -4.257  15.886  22.888  0.00  0.00    +0.000 A 
ATOM     34  C   UNL     1      -3.131  16.054  23.707  0.00  0.00    +0.000 A 
ATOM     35  C   UNL     1      -3.220  16.761  24.908  0.00  0.00    +0.000 A 
ATOM     36  C   UNL     1      -4.436  17.310  25.304  0.00  0.00    +0.000 A 
ATOM     37  C   UNL     1      -5.566  17.155  24.495  0.00  0.00    +0.000 A 
ATOM     38  C   UNL     1      -5.479  16.444  23.292  0.00  0.00    +0.000 A 
ATOM     39 CL   UNL     1      -6.912  16.294  22.337  0.00  0.00    +0.000 Cl
ENDBRANCH  32  33
ENDBRANCH  28  31
ENDBRANCH  24  27
ENDBRANCH   1  21
TORSDOF 6
ENDMDL
MODEL 7
REMARK VINA RESULT:      -7.3      7.453     12.313
REMARK  Name = 
REMARK  6 active torsions:
REMARK  status: ('A' for Active; 'I' for Inactive)
REMARK    1  A    between atoms: C_8  and  C_9
REMARK    2  A    between atoms: N_12  and  C_13
REMARK    3  A    between atoms: C_13  and  C_14
REMARK    4  A    between atoms: C_17  and  N_18
REMARK    5  A    between atoms: C_19  and  C_21
REMARK    6  A    between atoms: C_22  and  C_23
REMARK                            x       y       z     vdW  Elec       q    Type
REMARK                         _______ _______ _______ _____ _____    ______ ____
ROOT
ATOM      1  C   UNL     1       0.692  14.909  21.670  0.00  0.00    +0.000 C 
ENDROOT
BRANCH   1   5
ATOM      2  C   UNL     1      -3.333  13.475  21.335  0.00  0.00    +0.000 C 
ATOM      3  C   UNL     1      -3.055  14.509  22.421  0.00  0.00    +0.000 C 
ATOM      4  C   UNL     1      -1.713  15.211  22.131  0.00  0.00    +0.000 C 
ATOM      5  N   UNL     1      -0.591  14.257  22.002  0.00  0.00    +0.000 NA
ATOM      6  C   UNL     1      -0.894  13.271  20.943  0.00  0.00    +0.000 C 
ATOM      7  C   UNL     1      -2.161  12.491  21.279  0.00  0.00    +0.000 C 
BRANCH   2  15
ATOM      8  N   UNL     1      -4.928  11.612  16.715  0.00  0.00    +0.000 N 
ATOM      9  C   UNL     1      -5.465  11.614  18.006  0.00  0.00    +0.000 A 
ATOM     10  C   UNL     1      -6.725  11.076  18.242  0.00  0.00    +0.000 A 
ATOM     11  C   UNL     1      -7.274  11.100  19.528  0.00  0.00    +0.000 A 
ATOM     12  C   UNL     1      -6.482  11.694  20.509  0.00  0.00    +0.000 A 
ATOM     13  N   UNL     1      -6.669  11.921  21.852  0.00  0.00    +0.000 N 
ATOM     14  C   UNL     1      -5.578  12.578  22.381  0.00  0.00    +0.000 A 
ATOM     15  C   UNL     1      -4.663  12.785  21.364  0.00  0.00    +0.000 A 
ATOM     16  C   UNL     1      -5.237  12.217  20.191  0.00  0.00    +0.000 A 
ATOM     17  N   UNL     1      -4.708  12.185  18.945  0.00  0.00    +0.000 NA
ATOM     18  H   UNL     1      -4.886  10.673  16.339  0.00  0.00    +0.000 HD
ATOM     19  H   UNL     1      -3.997  12.016  16.801  0.00  0.00    +0.000 HD
ATOM     20  H   UNL     1      -7.497  11.661  22.370  0.00  0.00    +0.000 HD
ENDBRANCH   2  15
ENDBRANCH   1   5
BRANCH   1  21
ATOM     21  C   UNL     1       1.656  14.145  20.723  0.00  0.00    +0.000 C 
ATOM     22  C   UNL     1       1.674  14.635  19.263  0.00  0.00    +0.000 C 
ATOM     23  C   UNL     1       2.538  15.871  18.981  0.00  0.00    +0.000 C 
ATOM     24  C   UNL     1       3.903  15.904  19.684  0.00  0.00    +0.000 C 
ATOM     25  C   UNL     1       3.775  15.501  21.154  0.00  0.00    +0.000 C 
ATOM     26  C   UNL     1       3.080  14.150  21.304  0.00  0.00    +0.000 C 
BRANCH  24  27
ATOM     27  N   UNL     1       4.926  15.095  19.014  0.00  0.00    +0.000 N 
ATOM     28  C   UNL     1       6.084  15.689  18.558  0.00  0.00    +0.000 C 
ATOM     29  O   UNL     1       6.280  16.902  18.558  0.00  0.00    +0.000 OA
ATOM     30  H   UNL     1       4.901  14.091  19.132  0.00  0.00    +0.000 HD
BRANCH  28  31
ATOM     31  C   UNL     1       7.097  14.738  18.029  0.00  0.00    +0.000 C 
ATOM     32  C   UNL     1       8.085  14.319  18.838  0.00  0.00    +0.000 C 
BRANCH  32  33
ATOM     33  C   UNL     1       9.185  13.473  18.359  0.00  0.00    +0.000 A 
ATOM     34  C   UNL     1       9.065  12.091  18.562  0.00  0.00    +0.000 A 
ATOM     35  C   UNL     1      10.066  11.216  18.137  0.00  0.00    +0.000 A 
ATOM     36  C   UNL     1      11.200  11.712  17.501  0.00  0.00    +0.000 A 
ATOM     37  C   UNL     1      11.331  13.088  17.286  0.00  0.00    +0.000 A 
ATOM     38  C   UNL     1      10.329  13.967  17.715  0.00  0.00    +0.000 A 
ATOM     39 CL   UNL     1      10.553  15.654  17.414  0.00  0.00    +0.000 Cl
ENDBRANCH  32  33
ENDBRANCH  28  31
ENDBRANCH  24  27
ENDBRANCH   1  21
TORSDOF 6
ENDMDL
MODEL 8
REMARK VINA RESULT:      -7.3      8.037     13.236
REMARK  Name = 
REMARK  6 active torsions:
REMARK  status: ('A' for Active; 'I' for Inactive)
REMARK    1  A    between atoms: C_8  and  C_9
REMARK    2  A    between atoms: N_12  and  C_13
REMARK    3  A    between atoms: C_13  and  C_14
REMARK    4  A    between atoms: C_17  and  N_18
REMARK    5  A    between atoms: C_19  and  C_21
REMARK    6  A    between atoms: C_22  and  C_23
REMARK                            x       y       z     vdW  Elec       q    Type
REMARK                         _______ _______ _______ _____ _____    ______ ____
ROOT
ATOM      1  C   UNL     1       1.088  15.400  21.993  0.00  0.00    +0.000 C 
ENDROOT
BRANCH   1   5
ATOM      2  C   UNL     1      -2.748  14.018  23.315  0.00  0.00    +0.000 C 
ATOM      3  C   UNL     1      -1.848  14.668  24.362  0.00  0.00    +0.000 C 
ATOM      4  C   UNL     1      -0.734  15.467  23.657  0.00  0.00    +0.000 C 
ATOM      5  N   UNL     1       0.051  14.637  22.718  0.00  0.00    +0.000 NA
ATOM      6  C   UNL     1      -0.851  14.024  21.720  0.00  0.00    +0.000 C 
ATOM      7  C   UNL     1      -1.889  13.139  22.403  0.00  0.00    +0.000 C 
BRANCH   2  15
ATOM      8  N   UNL     1      -7.191  15.506  20.991  0.00  0.00    +0.000 N 
ATOM      9  C   UNL     1      -6.873  14.577  21.985  0.00  0.00    +0.000 A 
ATOM     10  C   UNL     1      -7.879  13.856  22.618  0.00  0.00    +0.000 A 
ATOM     11  C   UNL     1      -7.563  12.944  23.631  0.00  0.00    +0.000 A 
ATOM     12  C   UNL     1      -6.209  12.835  23.943  0.00  0.00    +0.000 A 
ATOM     13  N   UNL     1      -5.518  12.084  24.863  0.00  0.00    +0.000 N 
ATOM     14  C   UNL     1      -4.169  12.362  24.790  0.00  0.00    +0.000 A 
ATOM     15  C   UNL     1      -3.977  13.314  23.804  0.00  0.00    +0.000 A 
ATOM     16  C   UNL     1      -5.266  13.598  23.270  0.00  0.00    +0.000 A 
ATOM     17  N   UNL     1      -5.577  14.474  22.286  0.00  0.00    +0.000 NA
ATOM     18  H   UNL     1      -7.714  15.071  20.239  0.00  0.00    +0.000 HD
ATOM     19  H   UNL     1      -6.300  15.871  20.656  0.00  0.00    +0.000 HD
ATOM     20  H   UNL     1      -5.943  11.437  25.514  0.00  0.00    +0.000 HD
ENDBRANCH   2  15
ENDBRANCH   1   5
BRANCH   1  21
ATOM     21  C   UNL     1       2.302  14.605  21.441  0.00  0.00    +0.000 C 
ATOM     22  C   UNL     1       2.511  14.695  19.918  0.00  0.00    +0.000 C 
ATOM     23  C   UNL     1       3.232  15.951  19.413  0.00  0.00    +0.000 C 
ATOM     24  C   UNL     1       4.432  16.414  20.252  0.00  0.00    +0.000 C 
ATOM     25  C   UNL     1       4.101  16.389  21.745  0.00  0.00    +0.000 C 
ATOM     26  C   UNL     1       3.585  15.020  22.181  0.00  0.00    +0.000 C 
BRANCH  24  27
ATOM     27  N   UNL     1       5.659  15.659  19.982  0.00  0.00    +0.000 N 
ATOM     28  C   UNL     1       6.700  16.258  19.304  0.00  0.00    +0.000 C 
ATOM     29  O   UNL     1       6.633  17.369  18.783  0.00  0.00    +0.000 OA
ATOM     30  H   UNL     1       5.839  14.821  20.520  0.00  0.00    +0.000 HD
BRANCH  28  31
ATOM     31  C   UNL     1       7.937  15.436  19.224  0.00  0.00    +0.000 C 
ATOM     32  C   UNL     1       8.274  14.874  18.051  0.00  0.00    +0.000 C 
BRANCH  32  33
ATOM     33  C   UNL     1       9.413  13.958  17.919  0.00  0.00    +0.000 A 
ATOM     34  C   UNL     1       9.234  12.643  18.374  0.00  0.00    +0.000 A 
ATOM     35  C   UNL     1      10.267  11.709  18.284  0.00  0.00    +0.000 A 
ATOM     36  C   UNL     1      11.492  12.075  17.736  0.00  0.00    +0.000 A 
ATOM     37  C   UNL     1      11.684  13.381  17.272  0.00  0.00    +0.000 A 
ATOM     38  C   UNL     1      10.650  14.321  17.365  0.00  0.00    +0.000 A 
ATOM     39 CL   UNL     1      10.952  15.915  16.769  0.00  0.00    +0.000 Cl
ENDBRANCH  32  33
ENDBRANCH  28  31
ENDBRANCH  24  27
ENDBRANCH   1  21
TORSDOF 6
ENDMDL
MODEL 9
REMARK VINA RESULT:      -7.3      6.557      8.476
REMARK  Name = 
REMARK  6 active torsions:
REMARK  status: ('A' for Active; 'I' for Inactive)
REMARK    1  A    between atoms: C_8  and  C_9
REMARK    2  A    between atoms: N_12  and  C_13
REMARK    3  A    between atoms: C_13  and  C_14
REMARK    4  A    between atoms: C_17  and  N_18
REMARK    5  A    between atoms: C_19  and  C_21
REMARK    6  A    between atoms: C_22  and  C_23
REMARK                            x       y       z     vdW  Elec       q    Type
REMARK                         _______ _______ _______ _____ _____    ______ ____
ROOT
ATOM      1  C   UNL     1       3.626  16.322  19.166  0.00  0.00    +0.000 C 
ENDROOT
BRANCH   1   5
ATOM      2  C   UNL     1       7.771  15.531  18.420  0.00  0.00    +0.000 C 
ATOM      3  C   UNL     1       7.375  16.986  18.654  0.00  0.00    +0.000 C 
ATOM      4  C   UNL     1       5.982  17.039  19.312  0.00  0.00    +0.000 C 
ATOM      5  N   UNL     1       4.955  16.326  18.523  0.00  0.00    +0.000 NA
ATOM      6  C   UNL     1       5.371  14.923  18.315  0.00  0.00    +0.000 C 
ATOM      7  C   UNL     1       6.696  14.859  17.562  0.00  0.00    +0.000 C 
BRANCH   2  15
ATOM      8  N   UNL     1       9.415  10.604  19.036  0.00  0.00    +0.000 N 
ATOM      9  C   UNL     1       9.980  11.762  18.494  0.00  0.00    +0.000 A 
ATOM     10  C   UNL     1      11.289  11.749  18.024  0.00  0.00    +0.000 A 
ATOM     11  C   UNL     1      11.864  12.914  17.506  0.00  0.00    +0.000 A 
ATOM     12  C   UNL     1      11.046  14.042  17.509  0.00  0.00    +0.000 A 
ATOM     13  N   UNL     1      11.244  15.343  17.111  0.00  0.00    +0.000 N 
ATOM     14  C   UNL     1      10.112  16.093  17.351  0.00  0.00    +0.000 A 
ATOM     15  C   UNL     1       9.158  15.266  17.918  0.00  0.00    +0.000 A 
ATOM     16  C   UNL     1       9.752  13.975  18.005  0.00  0.00    +0.000 A 
ATOM     17  N   UNL     1       9.198  12.843  18.500  0.00  0.00    +0.000 NA
ATOM     18  H   UNL     1       9.447   9.838  18.373  0.00  0.00    +0.000 HD
ATOM     19  H   UNL     1       8.453  10.847  19.269  0.00  0.00    +0.000 HD
ATOM     20  H   UNL     1      12.105  15.700  16.719  0.00  0.00    +0.000 HD
ENDBRANCH   2  15
ENDBRANCH   1   5
BRANCH   1  21
ATOM     21  C   UNL     1       2.625  15.218  18.728  0.00  0.00    +0.000 C 
ATOM     22  C   UNL     1       2.835  13.840  19.383  0.00  0.00    +0.000 C 
ATOM     23  C   UNL     1       2.249  13.671  20.791  0.00  0.00    +0.000 C 
ATOM     24  C   UNL     1       0.856  14.280  21.010  0.00  0.00    +0.000 C 
ATOM     25  C   UNL     1       0.770  15.687  20.417  0.00  0.00    +0.000 C 
ATOM     26  C   UNL     1       1.181  15.698  18.946  0.00  0.00    +0.000 C 
BRANCH  24  27
ATOM     27  N   UNL     1      -0.235  13.439  20.508  0.00  0.00    +0.000 N 
ATOM     28  C   UNL     1      -1.267  13.076  21.347  0.00  0.00    +0.000 C 
ATOM     29  O   UNL     1      -1.285  13.306  22.554  0.00  0.00    +0.000 OA
ATOM     30  H   UNL     1      -0.363  13.362  19.507  0.00  0.00    +0.000 HD
BRANCH  28  31
ATOM     31  C   UNL     1      -2.378  12.348  20.678  0.00  0.00    +0.000 C 
ATOM     32  C   UNL     1      -3.495  13.018  20.349  0.00  0.00    +0.000 C 
BRANCH  32  33
ATOM     33  C   UNL     1      -4.676  12.348  19.792  0.00  0.00    +0.000 A 
ATOM     34  C   UNL     1      -4.569  11.839  18.489  0.00  0.00    +0.000 A 
ATOM     35  C   UNL     1      -5.647  11.187  17.886  0.00  0.00    +0.000 A 
ATOM     36  C   UNL     1      -6.844  11.034  18.578  0.00  0.00    +0.000 A 
ATOM     37  C   UNL     1      -6.963  11.531  19.880  0.00  0.00    +0.000 A 
ATOM     38  C   UNL     1      -5.885  12.187  20.486  0.00  0.00    +0.000 A 
ATOM     39 CL   UNL     1      -6.099  12.773  22.098  0.00  0.00    +0.000 Cl
ENDBRANCH  32  33
ENDBRANCH  28  31
ENDBRANCH  24  27
ENDBRANCH   1  21
TORSDOF 6
ENDMDL
