MODEL 1
REMARK VINA RESULT:      -8.6      0.000      0.000
REMARK  Name = 
REMARK  9 active torsions:
REMARK  status: ('A' for Active; 'I' for Inactive)
REMARK    1  A    between atoms: C_1  and  C_2
REMARK    2  A    between atoms: C_5  and  N_6
REMARK    3  A    between atoms: C_7  and  C_9
REMARK    4  A    between atoms: N_11  and  C_12
REMARK    5  A    between atoms: C_12  and  C_13
REMARK    6  A    between atoms: C_13  and  C_14
REMARK    7  A    between atoms: C_13  and  N_20
REMARK    8  A    between atoms: N_23  and  C_24
REMARK    9  A    between atoms: C_24  and  C_25
REMARK                            x       y       z     vdW  Elec       q    Type
REMARK                         _______ _______ _______ _____ _____    ______ ____
ROOT
ATOM      1  C   UNL     1       3.238   5.896  19.020  0.00  0.00    +0.000 C 
ENDROOT
BRANCH   1   2
ATOM      2  C   UNL     1       2.511   4.759  19.737  0.00  0.00    +0.000 A 
ATOM      3  C   UNL     1       1.479   3.995  19.183  0.00  0.00    +0.000 A 
ATOM      4  C   UNL     1       0.820   3.040  19.954  0.00  0.00    +0.000 A 
ATOM      5  C   UNL     1       1.199   2.868  21.275  0.00  0.00    +0.000 A 
ATOM      6  N   UNL     1       2.199   3.566  21.851  0.00  0.00    +0.000 NA
ATOM      7  C   UNL     1       2.831   4.477  21.073  0.00  0.00    +0.000 A 
ENDBRANCH   1   2
BRANCH   1   8
ATOM      8  N   UNL     1       4.289   5.430  18.096  0.00  0.00    +0.000 NA
ATOM      9  C   UNL     1       4.196   5.655  16.650  0.00  0.00    +0.000 C 
ATOM     10  C   UNL     1       5.280   6.538  15.970  0.00  0.00    +0.000 C 
ATOM     11  N   UNL     1       6.656   6.373  16.488  0.00  0.00    +0.000 NA
ATOM     12  C   UNL     1       6.551   6.557  17.948  0.00  0.00    +0.000 C 
ATOM     13  C   UNL     1       5.657   5.508  18.635  0.00  0.00    +0.000 C 
BRANCH  11  14
ATOM     14  C   UNL     1       7.197   5.054  16.081  0.00  0.00    +0.000 C 
BRANCH  14  15
ATOM     15  C   UNL     1       7.053   4.711  14.609  0.00  0.00    +0.000 A 
ATOM     16  C   UNL     1       7.843   5.358  13.646  0.00  0.00    +0.000 A 
ATOM     17  C   UNL     1       7.725   5.044  12.288  0.00  0.00    +0.000 A 
ATOM     18  C   UNL     1       6.841   4.047  11.876  0.00  0.00    +0.000 A 
ATOM     19  C   UNL     1       6.058   3.388  12.822  0.00  0.00    +0.000 A 
ATOM     20  C   UNL     1       6.144   3.730  14.171  0.00  0.00    +0.000 A 
ENDBRANCH  14  15
ENDBRANCH  11  14
ENDBRANCH   1   8
BRANCH   1  21
ATOM     21  C   UNL     1       2.273   6.991  18.479  0.00  0.00    +0.000 C 
BRANCH  21  24
ATOM     22  C   UNL     1       1.243   9.190  19.205  0.00  0.00    +0.000 C 
ATOM     23  O   UNL     1       0.983   9.645  18.107  0.00  0.00    +0.000 OA
ATOM     24  N   UNL     1       1.839   7.966  19.482  0.00  0.00    +0.000 N 
ATOM     25  H   UNL     1       1.931   7.748  20.474  0.00  0.00    +0.000 HD
BRANCH  22  27
ATOM     26  N   UNL     1       0.107  11.096  20.309  0.00  0.00    +0.000 N 
ATOM     27  C   UNL     1       0.917   9.984  20.492  0.00  0.00    +0.000 C 
ATOM     28  O   UNL     1       1.392   9.553  21.539  0.00  0.00    +0.000 OA
ATOM     29  H   UNL     1      -0.182  11.273  19.350  0.00  0.00    +0.000 HD
BRANCH  26  34
ATOM     30  C   UNL     1      -1.621  14.755  24.429  0.00  0.00    +0.000 C 
ATOM     31  C   UNL     1      -1.151  13.828  23.345  0.00  0.00    +0.000 A 
ATOM     32  C   UNL     1      -1.732  12.556  23.237  0.00  0.00    +0.000 A 
ATOM     33  C   UNL     1      -1.326  11.663  22.246  0.00  0.00    +0.000 A 
ATOM     34  C   UNL     1      -0.331  11.988  21.327  0.00  0.00    +0.000 A 
ATOM     35  C   UNL     1       0.256  13.258  21.421  0.00  0.00    +0.000 A 
ATOM     36  C   UNL     1      -0.152  14.166  22.419  0.00  0.00    +0.000 A 
ATOM     37 CL   UNL     1       0.615  15.716  22.474  0.00  0.00    +0.000 Cl
ENDBRANCH  26  34
ENDBRANCH  22  27
ENDBRANCH  21  24
ENDBRANCH   1  21
TORSDOF 8
ENDMDL
MODEL 2
REMARK VINA RESULT:      -8.4      0.825      1.460
REMARK  Name = 
REMARK  9 active torsions:
REMARK  status: ('A' for Active; 'I' for Inactive)
REMARK    1  A    between atoms: C_1  and  C_2
REMARK    2  A    between atoms: C_5  and  N_6
REMARK    3  A    between atoms: C_7  and  C_9
REMARK    4  A    between atoms: N_11  and  C_12
REMARK    5  A    between atoms: C_12  and  C_13
REMARK    6  A    between atoms: C_13  and  C_14
REMARK    7  A    between atoms: C_13  and  N_20
REMARK    8  A    between atoms: N_23  and  C_24
REMARK    9  A    between atoms: C_24  and  C_25
REMARK                            x       y       z     vdW  Elec       q    Type
REMARK                         _______ _______ _______ _____ _____    ______ ____
ROOT
ATOM      1  C   UNL     1       3.030   6.267  19.458  0.00  0.00    +0.000 C 
ENDROOT
BRANCH   1   2
ATOM      2  C   UNL     1       2.399   4.976  19.979  0.00  0.00    +0.000 A 
ATOM      3  C   UNL     1       1.511   4.173  19.257  0.00  0.00    +0.000 A 
ATOM      4  C   UNL     1       0.921   3.062  19.858  0.00  0.00    +0.000 A 
ATOM      5  C   UNL     1       1.223   2.776  21.179  0.00  0.00    +0.000 A 
ATOM      6  N   UNL     1       2.086   3.507  21.912  0.00  0.00    +0.000 NA
ATOM      7  C   UNL     1       2.655   4.572  21.297  0.00  0.00    +0.000 A 
ENDBRANCH   1   2
BRANCH   1   8
ATOM      8  N   UNL     1       4.203   6.040  18.594  0.00  0.00    +0.000 NA
ATOM      9  C   UNL     1       5.354   5.254  19.051  0.00  0.00    +0.000 C 
ATOM     10  C   UNL     1       5.698   3.940  18.294  0.00  0.00    +0.000 C 
ATOM     11  N   UNL     1       5.515   3.983  16.827  0.00  0.00    +0.000 NA
ATOM     12  C   UNL     1       4.136   4.462  16.616  0.00  0.00    +0.000 C 
ATOM     13  C   UNL     1       3.890   5.881  17.165  0.00  0.00    +0.000 C 
BRANCH  11  14
ATOM     14  C   UNL     1       6.556   4.840  16.210  0.00  0.00    +0.000 C 
BRANCH  14  15
ATOM     15  C   UNL     1       6.774   4.639  14.720  0.00  0.00    +0.000 A 
ATOM     16  C   UNL     1       6.025   3.687  14.013  0.00  0.00    +0.000 A 
ATOM     17  C   UNL     1       6.211   3.499  12.640  0.00  0.00    +0.000 A 
ATOM     18  C   UNL     1       7.124   4.291  11.944  0.00  0.00    +0.000 A 
ATOM     19  C   UNL     1       7.866   5.250  12.631  0.00  0.00    +0.000 A 
ATOM     20  C   UNL     1       7.713   5.408  14.007  0.00  0.00    +0.000 A 
ENDBRANCH  14  15
ENDBRANCH  11  14
ENDBRANCH   1   8
BRANCH   1  21
ATOM     21  C   UNL     1       1.979   7.296  18.948  0.00  0.00    +0.000 C 
BRANCH  21  24
ATOM     22  C   UNL     1       1.015   9.535  19.638  0.00  0.00    +0.000 C 
ATOM     23  O   UNL     1       0.737   9.966  18.535  0.00  0.00    +0.000 OA
ATOM     24  N   UNL     1       1.592   8.306  19.934  0.00  0.00    +0.000 N 
ATOM     25  H   UNL     1       1.705   8.114  20.929  0.00  0.00    +0.000 HD
BRANCH  22  27
ATOM     26  N   UNL     1      -0.129  11.441  20.736  0.00  0.00    +0.000 N 
ATOM     27  C   UNL     1       0.738  10.371  20.910  0.00  0.00    +0.000 C 
ATOM     28  O   UNL     1       1.298  10.005  21.940  0.00  0.00    +0.000 OA
ATOM     29  H   UNL     1      -0.486  11.564  19.792  0.00  0.00    +0.000 HD
BRANCH  26  34
ATOM     30  C   UNL     1      -1.742  15.202  24.809  0.00  0.00    +0.000 C 
ATOM     31  C   UNL     1      -1.303  14.248  23.736  0.00  0.00    +0.000 A 
ATOM     32  C   UNL     1      -1.874  12.968  23.687  0.00  0.00    +0.000 A 
ATOM     33  C   UNL     1      -1.495  12.050  22.708  0.00  0.00    +0.000 A 
ATOM     34  C   UNL     1      -0.539  12.357  21.742  0.00  0.00    +0.000 A 
ATOM     35  C   UNL     1       0.039  13.636  21.778  0.00  0.00    +0.000 A 
ATOM     36  C   UNL     1      -0.342  14.568  22.765  0.00  0.00    +0.000 A 
ATOM     37 CL   UNL     1       0.410  16.126  22.745  0.00  0.00    +0.000 Cl
ENDBRANCH  26  34
ENDBRANCH  22  27
ENDBRANCH  21  24
ENDBRANCH   1  21
TORSDOF 8
ENDMDL
MODEL 3
REMARK VINA RESULT:      -8.3      4.959      8.362
REMARK  Name = 
REMARK  9 active torsions:
REMARK  status: ('A' for Active; 'I' for Inactive)
REMARK    1  A    between atoms: C_1  and  C_2
REMARK    2  A    between atoms: C_5  and  N_6
REMARK    3  A    between atoms: C_7  and  C_9
REMARK    4  A    between atoms: N_11  and  C_12
REMARK    5  A    between atoms: C_12  and  C_13
REMARK    6  A    between atoms: C_13  and  C_14
REMARK    7  A    between atoms: C_13  and  N_20
REMARK    8  A    between atoms: N_23  and  C_24
REMARK    9  A    between atoms: C_24  and  C_25
REMARK                            x       y       z     vdW  Elec       q    Type
REMARK                         _______ _______ _______ _____ _____    ______ ____
ROOT
ATOM      1  C   UNL     1       6.174   5.837  15.450  0.00  0.00    +0.000 C 
ENDROOT
BRANCH   1   2
ATOM      2  C   UNL     1       6.250   4.906  14.240  0.00  0.00    +0.000 A 
ATOM      3  C   UNL     1       7.316   4.854  13.337  0.00  0.00    +0.000 A 
ATOM      4  C   UNL     1       7.247   4.031  12.215  0.00  0.00    +0.000 A 
ATOM      5  C   UNL     1       6.105   3.276  12.008  0.00  0.00    +0.000 A 
ATOM      6  N   UNL     1       5.058   3.276  12.857  0.00  0.00    +0.000 NA
ATOM      7  C   UNL     1       5.160   4.074  13.947  0.00  0.00    +0.000 A 
ENDBRANCH   1   2
BRANCH   1   8
ATOM      8  N   UNL     1       4.961   5.644  16.264  0.00  0.00    +0.000 NA
ATOM      9  C   UNL     1       4.954   4.764  17.438  0.00  0.00    +0.000 C 
ATOM     10  C   UNL     1       4.671   5.395  18.831  0.00  0.00    +0.000 C 
ATOM     11  N   UNL     1       3.654   6.469  18.851  0.00  0.00    +0.000 NA
ATOM     12  C   UNL     1       4.082   7.436  17.822  0.00  0.00    +0.000 C 
ATOM     13  C   UNL     1       4.117   6.843  16.400  0.00  0.00    +0.000 C 
BRANCH  11  14
ATOM     14  C   UNL     1       2.306   5.896  18.620  0.00  0.00    +0.000 C 
BRANCH  14  15
ATOM     15  C   UNL     1       1.961   4.672  19.450  0.00  0.00    +0.000 A 
ATOM     16  C   UNL     1       1.563   3.479  18.830  0.00  0.00    +0.000 A 
ATOM     17  C   UNL     1       1.253   2.343  19.584  0.00  0.00    +0.000 A 
ATOM     18  C   UNL     1       1.373   2.373  20.973  0.00  0.00    +0.000 A 
ATOM     19  C   UNL     1       1.777   3.548  21.603  0.00  0.00    +0.000 A 
ATOM     20  C   UNL     1       2.046   4.693  20.855  0.00  0.00    +0.000 A 
ENDBRANCH  14  15
ENDBRANCH  11  14
ENDBRANCH   1   8
BRANCH   1  21
ATOM     21  C   UNL     1       7.521   5.942  16.223  0.00  0.00    +0.000 C 
BRANCH  21  24
ATOM     22  C   UNL     1       8.104   7.571  18.074  0.00  0.00    +0.000 C 
ATOM     23  O   UNL     1       8.159   6.787  19.002  0.00  0.00    +0.000 OA
ATOM     24  N   UNL     1       7.818   7.276  16.747  0.00  0.00    +0.000 N 
ATOM     25  H   UNL     1       7.864   8.072  16.111  0.00  0.00    +0.000 HD
BRANCH  22  27
ATOM     26  N   UNL     1       9.231   9.386  19.331  0.00  0.00    +0.000 N 
ATOM     27  C   UNL     1       8.361   9.081  18.293  0.00  0.00    +0.000 C 
ATOM     28  O   UNL     1       7.786   9.853  17.531  0.00  0.00    +0.000 OA
ATOM     29  H   UNL     1       9.603   8.587  19.838  0.00  0.00    +0.000 HD
BRANCH  26  34
ATOM     30  C   UNL     1      10.785  14.685  21.017  0.00  0.00    +0.000 C 
ATOM     31  C   UNL     1      10.365  13.303  20.608  0.00  0.00    +0.000 A 
ATOM     32  C   UNL     1      10.844  12.774  19.402  0.00  0.00    +0.000 A 
ATOM     33  C   UNL     1      10.478  11.495  18.982  0.00  0.00    +0.000 A 
ATOM     34  C   UNL     1       9.625  10.691  19.735  0.00  0.00    +0.000 A 
ATOM     35  C   UNL     1       9.140  11.207  20.946  0.00  0.00    +0.000 A 
ATOM     36  C   UNL     1       9.509  12.498  21.375  0.00  0.00    +0.000 A 
ATOM     37 CL   UNL     1       8.874  13.067  22.882  0.00  0.00    +0.000 Cl
ENDBRANCH  26  34
ENDBRANCH  22  27
ENDBRANCH  21  24
ENDBRANCH   1  21
TORSDOF 8
ENDMDL
MODEL 4
REMARK VINA RESULT:      -8.3      1.261      1.670
REMARK  Name = 
REMARK  9 active torsions:
REMARK  status: ('A' for Active; 'I' for Inactive)
REMARK    1  A    between atoms: C_1  and  C_2
REMARK    2  A    between atoms: C_5  and  N_6
REMARK    3  A    between atoms: C_7  and  C_9
REMARK    4  A    between atoms: N_11  and  C_12
REMARK    5  A    between atoms: C_12  and  C_13
REMARK    6  A    between atoms: C_13  and  C_14
REMARK    7  A    between atoms: C_13  and  N_20
REMARK    8  A    between atoms: N_23  and  C_24
REMARK    9  A    between atoms: C_24  and  C_25
REMARK                            x       y       z     vdW  Elec       q    Type
REMARK                         _______ _______ _______ _____ _____    ______ ____
ROOT
ATOM      1  C   UNL     1       3.213   5.923  19.162  0.00  0.00    +0.000 C 
ENDROOT
BRANCH   1   2
ATOM      2  C   UNL     1       2.489   4.801  19.905  0.00  0.00    +0.000 A 
ATOM      3  C   UNL     1       2.779   4.389  21.209  0.00  0.00    +0.000 A 
ATOM      4  C   UNL     1       2.118   3.294  21.763  0.00  0.00    +0.000 A 
ATOM      5  C   UNL     1       1.180   2.621  20.999  0.00  0.00    +0.000 A 
ATOM      6  N   UNL     1       0.851   2.988  19.744  0.00  0.00    +0.000 NA
ATOM      7  C   UNL     1       1.499   4.065  19.237  0.00  0.00    +0.000 A 
ENDBRANCH   1   2
BRANCH   1   8
ATOM      8  N   UNL     1       4.238   5.438  18.221  0.00  0.00    +0.000 NA
ATOM      9  C   UNL     1       4.130   5.673  16.777  0.00  0.00    +0.000 C 
ATOM     10  C   UNL     1       5.226   6.534  16.086  0.00  0.00    +0.000 C 
ATOM     11  N   UNL     1       6.604   6.331  16.583  0.00  0.00    +0.000 NA
ATOM     12  C   UNL     1       6.525   6.509  18.046  0.00  0.00    +0.000 C 
ATOM     13  C   UNL     1       5.616   5.477  18.739  0.00  0.00    +0.000 C 
BRANCH  11  14
ATOM     14  C   UNL     1       7.106   5.002  16.160  0.00  0.00    +0.000 C 
BRANCH  14  15
ATOM     15  C   UNL     1       7.001   4.702  14.675  0.00  0.00    +0.000 A 
ATOM     16  C   UNL     1       7.810   5.381  13.752  0.00  0.00    +0.000 A 
ATOM     17  C   UNL     1       7.728   5.107  12.383  0.00  0.00    +0.000 A 
ATOM     18  C   UNL     1       6.860   4.120  11.920  0.00  0.00    +0.000 A 
ATOM     19  C   UNL     1       6.057   3.429  12.826  0.00  0.00    +0.000 A 
ATOM     20  C   UNL     1       6.108   3.731  14.186  0.00  0.00    +0.000 A 
ENDBRANCH  14  15
ENDBRANCH  11  14
ENDBRANCH   1   8
BRANCH   1  21
ATOM     21  C   UNL     1       2.249   7.025  18.634  0.00  0.00    +0.000 C 
BRANCH  21  24
ATOM     22  C   UNL     1       1.261   8.091  20.710  0.00  0.00    +0.000 C 
ATOM     23  O   UNL     1       0.644   7.133  21.135  0.00  0.00    +0.000 OA
ATOM     24  N   UNL     1       2.038   8.140  19.558  0.00  0.00    +0.000 N 
ATOM     25  H   UNL     1       2.511   9.028  19.398  0.00  0.00    +0.000 HD
BRANCH  22  27
ATOM     26  N   UNL     1       0.632  10.488  20.768  0.00  0.00    +0.000 N 
ATOM     27  C   UNL     1       1.240   9.446  21.456  0.00  0.00    +0.000 C 
ATOM     28  O   UNL     1       1.748   9.466  22.574  0.00  0.00    +0.000 OA
ATOM     29  H   UNL     1       0.270  10.251  19.848  0.00  0.00    +0.000 HD
BRANCH  26  34
ATOM     30  C   UNL     1      -0.013  15.898  22.680  0.00  0.00    +0.000 C 
ATOM     31  C   UNL     1       0.130  14.481  22.203  0.00  0.00    +0.000 A 
ATOM     32  C   UNL     1       1.163  14.164  21.311  0.00  0.00    +0.000 A 
ATOM     33  C   UNL     1       1.332  12.861  20.842  0.00  0.00    +0.000 A 
ATOM     34  C   UNL     1       0.488  11.824  21.233  0.00  0.00    +0.000 A 
ATOM     35  C   UNL     1      -0.549  12.128  22.128  0.00  0.00    +0.000 A 
ATOM     36  C   UNL     1      -0.723  13.442  22.606  0.00  0.00    +0.000 A 
ATOM     37 CL   UNL     1      -2.021  13.742  23.710  0.00  0.00    +0.000 Cl
ENDBRANCH  26  34
ENDBRANCH  22  27
ENDBRANCH  21  24
ENDBRANCH   1  21
TORSDOF 8
ENDMDL
MODEL 5
REMARK VINA RESULT:      -8.2      1.238      1.617
REMARK  Name = 
REMARK  9 active torsions:
REMARK  status: ('A' for Active; 'I' for Inactive)
REMARK    1  A    between atoms: C_1  and  C_2
REMARK    2  A    between atoms: C_5  and  N_6
REMARK    3  A    between atoms: C_7  and  C_9
REMARK    4  A    between atoms: N_11  and  C_12
REMARK    5  A    between atoms: C_12  and  C_13
REMARK    6  A    between atoms: C_13  and  C_14
REMARK    7  A    between atoms: C_13  and  N_20
REMARK    8  A    between atoms: N_23  and  C_24
REMARK    9  A    between atoms: C_24  and  C_25
REMARK                            x       y       z     vdW  Elec       q    Type
REMARK                         _______ _______ _______ _____ _____    ______ ____
ROOT
ATOM      1  C   UNL     1       3.280   6.043  18.864  0.00  0.00    +0.000 C 
ENDROOT
BRANCH   1   2
ATOM      2  C   UNL     1       2.486   4.963  19.597  0.00  0.00    +0.000 A 
ATOM      3  C   UNL     1       2.579   4.694  20.967  0.00  0.00    +0.000 A 
ATOM      4  C   UNL     1       1.877   3.626  21.522  0.00  0.00    +0.000 A 
ATOM      5  C   UNL     1       1.097   2.835  20.695  0.00  0.00    +0.000 A 
ATOM      6  N   UNL     1       0.959   3.063  19.374  0.00  0.00    +0.000 NA
ATOM      7  C   UNL     1       1.641   4.117  18.865  0.00  0.00    +0.000 A 
ENDBRANCH   1   2
BRANCH   1   8
ATOM      8  N   UNL     1       4.319   5.502  17.968  0.00  0.00    +0.000 NA
ATOM      9  C   UNL     1       4.344   5.822  16.537  0.00  0.00    +0.000 C 
ATOM     10  C   UNL     1       5.570   6.598  15.977  0.00  0.00    +0.000 C 
ATOM     11  N   UNL     1       6.879   6.227  16.555  0.00  0.00    +0.000 NA
ATOM     12  C   UNL     1       6.708   6.335  18.017  0.00  0.00    +0.000 C 
ATOM     13  C   UNL     1       5.650   5.370  18.583  0.00  0.00    +0.000 C 
BRANCH  11  14
ATOM     14  C   UNL     1       7.275   4.875  16.090  0.00  0.00    +0.000 C 
BRANCH  14  15
ATOM     15  C   UNL     1       7.121   4.622  14.601  0.00  0.00    +0.000 A 
ATOM     16  C   UNL     1       6.198   3.676  14.131  0.00  0.00    +0.000 A 
ATOM     17  C   UNL     1       6.042   3.442  12.761  0.00  0.00    +0.000 A 
ATOM     18  C   UNL     1       6.781   4.180  11.837  0.00  0.00    +0.000 A 
ATOM     19  C   UNL     1       7.694   5.130  12.289  0.00  0.00    +0.000 A 
ATOM     20  C   UNL     1       7.881   5.335  13.655  0.00  0.00    +0.000 A 
ENDBRANCH  14  15
ENDBRANCH  11  14
ENDBRANCH   1   8
BRANCH   1  21
ATOM     21  C   UNL     1       2.378   7.171  18.282  0.00  0.00    +0.000 C 
BRANCH  21  24
ATOM     22  C   UNL     1       1.343   9.334  19.101  0.00  0.00    +0.000 C 
ATOM     23  O   UNL     1       1.464   9.994  18.087  0.00  0.00    +0.000 OA
ATOM     24  N   UNL     1       1.735   8.014  19.291  0.00  0.00    +0.000 N 
ATOM     25  H   UNL     1       1.505   7.626  20.205  0.00  0.00    +0.000 HD
BRANCH  22  27
ATOM     26  N   UNL     1      -0.367  10.796  20.143  0.00  0.00    +0.000 N 
ATOM     27  C   UNL     1       0.702   9.939  20.372  0.00  0.00    +0.000 C 
ATOM     28  O   UNL     1       1.187   9.601  21.448  0.00  0.00    +0.000 OA
ATOM     29  H   UNL     1      -0.611  10.936  19.166  0.00  0.00    +0.000 HD
BRANCH  26  34
ATOM     30  C   UNL     1      -3.435  13.617  24.139  0.00  0.00    +0.000 C 
ATOM     31  C   UNL     1      -2.650  12.903  23.076  0.00  0.00    +0.000 A 
ATOM     32  C   UNL     1      -1.873  11.792  23.433  0.00  0.00    +0.000 A 
ATOM     33  C   UNL     1      -1.128  11.100  22.478  0.00  0.00    +0.000 A 
ATOM     34  C   UNL     1      -1.119  11.478  21.137  0.00  0.00    +0.000 A 
ATOM     35  C   UNL     1      -1.895  12.587  20.766  0.00  0.00    +0.000 A 
ATOM     36  C   UNL     1      -2.651  13.288  21.727  0.00  0.00    +0.000 A 
ATOM     37 CL   UNL     1      -3.586  14.644  21.195  0.00  0.00    +0.000 Cl
ENDBRANCH  26  34
ENDBRANCH  22  27
ENDBRANCH  21  24
ENDBRANCH   1  21
TORSDOF 8
ENDMDL
MODEL 6
REMARK VINA RESULT:      -8.1      1.247      1.743
REMARK  Name = 
REMARK  9 active torsions:
REMARK  status: ('A' for Active; 'I' for Inactive)
REMARK    1  A    between atoms: C_1  and  C_2
REMARK    2  A    between atoms: C_5  and  N_6
REMARK    3  A    between atoms: C_7  and  C_9
REMARK    4  A    between atoms: N_11  and  C_12
REMARK    5  A    between atoms: C_12  and  C_13
REMARK    6  A    between atoms: C_13  and  C_14
REMARK    7  A    between atoms: C_13  and  N_20
REMARK    8  A    between atoms: N_23  and  C_24
REMARK    9  A    between atoms: C_24  and  C_25
REMARK                            x       y       z     vdW  Elec       q    Type
REMARK                         _______ _______ _______ _____ _____    ______ ____
ROOT
ATOM      1  C   UNL     1       3.110   6.432  19.166  0.00  0.00    +0.000 C 
ENDROOT
BRANCH   1   2
ATOM      2  C   UNL     1       2.399   5.165  19.641  0.00  0.00    +0.000 A 
ATOM      3  C   UNL     1       1.550   4.382  18.854  0.00  0.00    +0.000 A 
ATOM      4  C   UNL     1       0.880   3.295  19.411  0.00  0.00    +0.000 A 
ATOM      5  C   UNL     1       1.062   3.012  20.754  0.00  0.00    +0.000 A 
ATOM      6  N   UNL     1       1.883   3.725  21.552  0.00  0.00    +0.000 NA
ATOM      7  C   UNL     1       2.533   4.766  20.979  0.00  0.00    +0.000 A 
ENDBRANCH   1   2
BRANCH   1   8
ATOM      8  N   UNL     1       4.314   6.161  18.358  0.00  0.00    +0.000 NA
ATOM      9  C   UNL     1       5.490   5.497  18.929  0.00  0.00    +0.000 C 
ATOM     10  C   UNL     1       5.916   4.120  18.345  0.00  0.00    +0.000 C 
ATOM     11  N   UNL     1       5.767   3.974  16.881  0.00  0.00    +0.000 NA
ATOM     12  C   UNL     1       4.372   4.353  16.587  0.00  0.00    +0.000 C 
ATOM     13  C   UNL     1       4.044   5.813  16.953  0.00  0.00    +0.000 C 
BRANCH  11  14
ATOM     14  C   UNL     1       6.780   4.802  16.182  0.00  0.00    +0.000 C 
BRANCH  14  15
ATOM     15  C   UNL     1       6.847   4.624  14.676  0.00  0.00    +0.000 A 
ATOM     16  C   UNL     1       7.691   5.433  13.900  0.00  0.00    +0.000 A 
ATOM     17  C   UNL     1       7.768   5.272  12.513  0.00  0.00    +0.000 A 
ATOM     18  C   UNL     1       7.028   4.271  11.884  0.00  0.00    +0.000 A 
ATOM     19  C   UNL     1       6.193   3.453  12.643  0.00  0.00    +0.000 A 
ATOM     20  C   UNL     1       6.084   3.641  14.020  0.00  0.00    +0.000 A 
ENDBRANCH  14  15
ENDBRANCH  11  14
ENDBRANCH   1   8
BRANCH   1  21
ATOM     21  C   UNL     1       2.131   7.509  18.616  0.00  0.00    +0.000 C 
BRANCH  21  24
ATOM     22  C   UNL     1       1.197   9.727  19.410  0.00  0.00    +0.000 C 
ATOM     23  O   UNL     1       1.232  10.332  18.356  0.00  0.00    +0.000 OA
ATOM     24  N   UNL     1       1.590   8.413  19.633  0.00  0.00    +0.000 N 
ATOM     25  H   UNL     1       1.440   8.076  20.583  0.00  0.00    +0.000 HD
BRANCH  22  27
ATOM     26  N   UNL     1       0.044  11.626  20.509  0.00  0.00    +0.000 N 
ATOM     27  C   UNL     1       0.680  10.406  20.700  0.00  0.00    +0.000 C 
ATOM     28  O   UNL     1       0.870   9.804  21.753  0.00  0.00    +0.000 OA
ATOM     29  H   UNL     1      -0.010  11.944  19.545  0.00  0.00    +0.000 HD
BRANCH  26  34
ATOM     30  C   UNL     1      -2.272  14.918  24.649  0.00  0.00    +0.000 C 
ATOM     31  C   UNL     1      -1.692  14.037  23.580  0.00  0.00    +0.000 A 
ATOM     32  C   UNL     1      -0.573  14.484  22.864  0.00  0.00    +0.000 A 
ATOM     33  C   UNL     1      -0.002  13.699  21.862  0.00  0.00    +0.000 A 
ATOM     34  C   UNL     1      -0.513  12.446  21.528  0.00  0.00    +0.000 A 
ATOM     35  C   UNL     1      -1.632  11.986  22.240  0.00  0.00    +0.000 A 
ATOM     36  C   UNL     1      -2.211  12.775  23.254  0.00  0.00    +0.000 A 
ATOM     37 CL   UNL     1      -3.587  12.142  24.092  0.00  0.00    +0.000 Cl
ENDBRANCH  26  34
ENDBRANCH  22  27
ENDBRANCH  21  24
ENDBRANCH   1  21
TORSDOF 8
ENDMDL
MODEL 7
REMARK VINA RESULT:      -8.1      4.443      8.697
REMARK  Name = 
REMARK  9 active torsions:
REMARK  status: ('A' for Active; 'I' for Inactive)
REMARK    1  A    between atoms: C_1  and  C_2
REMARK    2  A    between atoms: C_5  and  N_6
REMARK    3  A    between atoms: C_7  and  C_9
REMARK    4  A    between atoms: N_11  and  C_12
REMARK    5  A    between atoms: C_12  and  C_13
REMARK    6  A    between atoms: C_13  and  C_14
REMARK    7  A    between atoms: C_13  and  N_20
REMARK    8  A    between atoms: N_23  and  C_24
REMARK    9  A    between atoms: C_24  and  C_25
REMARK                            x       y       z     vdW  Elec       q    Type
REMARK                         _______ _______ _______ _____ _____    ______ ____
ROOT
ATOM      1  C   UNL     1       4.490   5.533  17.348  0.00  0.00    +0.000 C 
ENDROOT
BRANCH   1   2
ATOM      2  C   UNL     1       3.988   4.143  17.741  0.00  0.00    +0.000 A 
ATOM      3  C   UNL     1       2.852   3.525  17.210  0.00  0.00    +0.000 A 
ATOM      4  C   UNL     1       2.430   2.291  17.702  0.00  0.00    +0.000 A 
ATOM      5  C   UNL     1       3.148   1.697  18.726  0.00  0.00    +0.000 A 
ATOM      6  N   UNL     1       4.259   2.243  19.260  0.00  0.00    +0.000 NA
ATOM      7  C   UNL     1       4.654   3.435  18.751  0.00  0.00    +0.000 A 
ENDBRANCH   1   2
BRANCH   1   8
ATOM      8  N   UNL     1       3.951   6.612  18.196  0.00  0.00    +0.000 NA
ATOM      9  C   UNL     1       3.263   7.772  17.619  0.00  0.00    +0.000 C 
ATOM     10  C   UNL     1       1.767   7.997  17.983  0.00  0.00    +0.000 C 
ATOM     11  N   UNL     1       1.396   7.682  19.380  0.00  0.00    +0.000 NA
ATOM     12  C   UNL     1       1.877   6.307  19.614  0.00  0.00    +0.000 C 
ATOM     13  C   UNL     1       3.406   6.164  19.487  0.00  0.00    +0.000 C 
BRANCH  11  14
ATOM     14  C   UNL     1       1.973   8.692  20.299  0.00  0.00    +0.000 C 
BRANCH  14  15
ATOM     15  C   UNL     1       0.972   9.457  21.146  0.00  0.00    +0.000 A 
ATOM     16  C   UNL     1       0.641   9.013  22.435  0.00  0.00    +0.000 A 
ATOM     17  C   UNL     1      -0.273   9.715  23.227  0.00  0.00    +0.000 A 
ATOM     18  C   UNL     1      -0.843  10.897  22.755  0.00  0.00    +0.000 A 
ATOM     19  C   UNL     1      -0.516  11.357  21.481  0.00  0.00    +0.000 A 
ATOM     20  C   UNL     1       0.363  10.635  20.674  0.00  0.00    +0.000 A 
ENDBRANCH  14  15
ENDBRANCH  11  14
ENDBRANCH   1   8
BRANCH   1  21
ATOM     21  C   UNL     1       6.019   5.569  17.063  0.00  0.00    +0.000 C 
BRANCH  21  24
ATOM     22  C   UNL     1       7.667   7.154  18.157  0.00  0.00    +0.000 C 
ATOM     23  O   UNL     1       8.210   6.367  18.909  0.00  0.00    +0.000 OA
ATOM     24  N   UNL     1       6.642   6.880  17.260  0.00  0.00    +0.000 N 
ATOM     25  H   UNL     1       6.352   7.670  16.685  0.00  0.00    +0.000 HD
BRANCH  22  27
ATOM     26  N   UNL     1       8.956   9.032  19.134  0.00  0.00    +0.000 N 
ATOM     27  C   UNL     1       8.089   8.642  18.122  0.00  0.00    +0.000 C 
ATOM     28  O   UNL     1       7.629   9.323  17.210  0.00  0.00    +0.000 OA
ATOM     29  H   UNL     1       9.218   8.301  19.790  0.00  0.00    +0.000 HD
BRANCH  26  34
ATOM     30  C   UNL     1      11.131  14.334  19.845  0.00  0.00    +0.000 C 
ATOM     31  C   UNL     1      10.570  12.958  19.627  0.00  0.00    +0.000 A 
ATOM     32  C   UNL     1      10.044  12.256  20.720  0.00  0.00    +0.000 A 
ATOM     33  C   UNL     1       9.514  10.974  20.563  0.00  0.00    +0.000 A 
ATOM     34  C   UNL     1       9.485  10.338  19.324  0.00  0.00    +0.000 A 
ATOM     35  C   UNL     1      10.007  11.031  18.221  0.00  0.00    +0.000 A 
ATOM     36  C   UNL     1      10.541  12.326  18.374  0.00  0.00    +0.000 A 
ATOM     37 CL   UNL     1      11.164  13.121  16.969  0.00  0.00    +0.000 Cl
ENDBRANCH  26  34
ENDBRANCH  22  27
ENDBRANCH  21  24
ENDBRANCH   1  21
TORSDOF 8
ENDMDL
MODEL 8
REMARK VINA RESULT:      -8.1      1.676      2.023
REMARK  Name = 
REMARK  9 active torsions:
REMARK  status: ('A' for Active; 'I' for Inactive)
REMARK    1  A    between atoms: C_1  and  C_2
REMARK    2  A    between atoms: C_5  and  N_6
REMARK    3  A    between atoms: C_7  and  C_9
REMARK    4  A    between atoms: N_11  and  C_12
REMARK    5  A    between atoms: C_12  and  C_13
REMARK    6  A    between atoms: C_13  and  C_14
REMARK    7  A    between atoms: C_13  and  N_20
REMARK    8  A    between atoms: N_23  and  C_24
REMARK    9  A    between atoms: C_24  and  C_25
REMARK                            x       y       z     vdW  Elec       q    Type
REMARK                         _______ _______ _______ _____ _____    ______ ____
ROOT
ATOM      1  C   UNL     1       3.129   6.627  18.778  0.00  0.00    +0.000 C 
ENDROOT
BRANCH   1   2
ATOM      2  C   UNL     1       2.394   5.442  19.402  0.00  0.00    +0.000 A 
ATOM      3  C   UNL     1       2.413   5.116  20.762  0.00  0.00    +0.000 A 
ATOM      4  C   UNL     1       1.781   3.960  21.216  0.00  0.00    +0.000 A 
ATOM      5  C   UNL     1       1.144   3.140  20.299  0.00  0.00    +0.000 A 
ATOM      6  N   UNL     1       1.082   3.419  18.981  0.00  0.00    +0.000 NA
ATOM      7  C   UNL     1       1.692   4.557  18.571  0.00  0.00    +0.000 A 
ENDBRANCH   1   2
BRANCH   1   8
ATOM      8  N   UNL     1       4.380   6.250  18.096  0.00  0.00    +0.000 NA
ATOM      9  C   UNL     1       5.448   5.524  18.794  0.00  0.00    +0.000 C 
ATOM     10  C   UNL     1       5.827   4.104  18.287  0.00  0.00    +0.000 C 
ATOM     11  N   UNL     1       5.806   3.923  16.820  0.00  0.00    +0.000 NA
ATOM     12  C   UNL     1       4.475   4.387  16.384  0.00  0.00    +0.000 C 
ATOM     13  C   UNL     1       4.219   5.877  16.681  0.00  0.00    +0.000 C 
BRANCH  11  14
ATOM     14  C   UNL     1       6.936   4.657  16.201  0.00  0.00    +0.000 C 
BRANCH  14  15
ATOM     15  C   UNL     1       7.006   4.597  14.685  0.00  0.00    +0.000 A 
ATOM     16  C   UNL     1       7.863   5.453  13.977  0.00  0.00    +0.000 A 
ATOM     17  C   UNL     1       7.942   5.400  12.582  0.00  0.00    +0.000 A 
ATOM     18  C   UNL     1       7.191   4.463  11.874  0.00  0.00    +0.000 A 
ATOM     19  C   UNL     1       6.343   3.599  12.564  0.00  0.00    +0.000 A 
ATOM     20  C   UNL     1       6.232   3.679  13.952  0.00  0.00    +0.000 A 
ENDBRANCH  14  15
ENDBRANCH  11  14
ENDBRANCH   1   8
BRANCH   1  21
ATOM     21  C   UNL     1       2.182   7.594  18.009  0.00  0.00    +0.000 C 
BRANCH  21  24
ATOM     22  C   UNL     1       1.670  10.032  18.474  0.00  0.00    +0.000 C 
ATOM     23  O   UNL     1       2.134  10.516  17.460  0.00  0.00    +0.000 OA
ATOM     24  N   UNL     1       1.642   8.687  18.820  0.00  0.00    +0.000 N 
ATOM     25  H   UNL     1       1.166   8.480  19.698  0.00  0.00    +0.000 HD
BRANCH  22  27
ATOM     26  N   UNL     1      -0.220  10.500  20.009  0.00  0.00    +0.000 N 
ATOM     27  C   UNL     1       1.022  10.926  19.558  0.00  0.00    +0.000 C 
ATOM     28  O   UNL     1       1.666  11.908  19.917  0.00  0.00    +0.000 OA
ATOM     29  H   UNL     1      -0.573   9.650  19.577  0.00  0.00    +0.000 HD
BRANCH  26  34
ATOM     30  C   UNL     1      -3.482  13.163  23.959  0.00  0.00    +0.000 C 
ATOM     31  C   UNL     1      -2.651  12.486  22.907  0.00  0.00    +0.000 A 
ATOM     32  C   UNL     1      -1.711  11.522  23.298  0.00  0.00    +0.000 A 
ATOM     33  C   UNL     1      -0.917  10.869  22.354  0.00  0.00    +0.000 A 
ATOM     34  C   UNL     1      -1.018  11.145  20.992  0.00  0.00    +0.000 A 
ATOM     35  C   UNL     1      -1.957  12.106  20.588  0.00  0.00    +0.000 A 
ATOM     36  C   UNL     1      -2.762  12.767  21.537  0.00  0.00    +0.000 A 
ATOM     37 CL   UNL     1      -3.900  13.939  20.965  0.00  0.00    +0.000 Cl
ENDBRANCH  26  34
ENDBRANCH  22  27
ENDBRANCH  21  24
ENDBRANCH   1  21
TORSDOF 8
ENDMDL
MODEL 9
REMARK VINA RESULT:      -8.0      2.281      2.917
REMARK  Name = 
REMARK  9 active torsions:
REMARK  status: ('A' for Active; 'I' for Inactive)
REMARK    1  A    between atoms: C_1  and  C_2
REMARK    2  A    between atoms: C_5  and  N_6
REMARK    3  A    between atoms: C_7  and  C_9
REMARK    4  A    between atoms: N_11  and  C_12
REMARK    5  A    between atoms: C_12  and  C_13
REMARK    6  A    between atoms: C_13  and  C_14
REMARK    7  A    between atoms: C_13  and  N_20
REMARK    8  A    between atoms: N_23  and  C_24
REMARK    9  A    between atoms: C_24  and  C_25
REMARK                            x       y       z     vdW  Elec       q    Type
REMARK                         _______ _______ _______ _____ _____    ______ ____
ROOT
ATOM      1  C   UNL     1       2.743   6.291  19.443  0.00  0.00    +0.000 C 
ENDROOT
BRANCH   1   2
ATOM      2  C   UNL     1       2.268   4.967  20.041  0.00  0.00    +0.000 A 
ATOM      3  C   UNL     1       1.406   4.067  19.407  0.00  0.00    +0.000 A 
ATOM      4  C   UNL     1       0.963   2.929  20.077  0.00  0.00    +0.000 A 
ATOM      5  C   UNL     1       1.384   2.711  21.378  0.00  0.00    +0.000 A 
ATOM      6  N   UNL     1       2.228   3.537  22.027  0.00  0.00    +0.000 NA
ATOM      7  C   UNL     1       2.654   4.628  21.346  0.00  0.00    +0.000 A 
ENDBRANCH   1   2
BRANCH   1   8
ATOM      8  N   UNL     1       3.932   6.154  18.583  0.00  0.00    +0.000 NA
ATOM      9  C   UNL     1       5.193   5.609  19.096  0.00  0.00    +0.000 C 
ATOM     10  C   UNL     1       5.733   4.289  18.475  0.00  0.00    +0.000 C 
ATOM     11  N   UNL     1       5.539   4.144  17.016  0.00  0.00    +0.000 NA
ATOM     12  C   UNL     1       4.101   4.381  16.785  0.00  0.00    +0.000 C 
ATOM     13  C   UNL     1       3.641   5.796  17.186  0.00  0.00    +0.000 C 
BRANCH  11  14
ATOM     14  C   UNL     1       6.431   5.080  16.290  0.00  0.00    +0.000 C 
BRANCH  14  15
ATOM     15  C   UNL     1       6.648   4.771  14.818  0.00  0.00    +0.000 A 
ATOM     16  C   UNL     1       7.639   5.443  14.088  0.00  0.00    +0.000 A 
ATOM     17  C   UNL     1       7.853   5.160  12.735  0.00  0.00    +0.000 A 
ATOM     18  C   UNL     1       7.102   4.172  12.101  0.00  0.00    +0.000 A 
ATOM     19  C   UNL     1       6.121   3.488  12.816  0.00  0.00    +0.000 A 
ATOM     20  C   UNL     1       5.878   3.799  14.154  0.00  0.00    +0.000 A 
ENDBRANCH  14  15
ENDBRANCH  11  14
ENDBRANCH   1   8
BRANCH   1  21
ATOM     21  C   UNL     1       1.577   7.159  18.885  0.00  0.00    +0.000 C 
BRANCH  21  24
ATOM     22  C   UNL     1       0.818   9.242  20.112  0.00  0.00    +0.000 C 
ATOM     23  O   UNL     1      -0.107   8.762  20.738  0.00  0.00    +0.000 OA
ATOM     24  N   UNL     1       1.661   8.580  19.228  0.00  0.00    +0.000 N 
ATOM     25  H   UNL     1       2.407   9.153  18.836  0.00  0.00    +0.000 HD
BRANCH  22  27
ATOM     26  N   UNL     1       1.167  11.455  19.049  0.00  0.00    +0.000 N 
ATOM     27  C   UNL     1       1.173  10.743  20.241  0.00  0.00    +0.000 C 
ATOM     28  O   UNL     1       1.413  11.155  21.373  0.00  0.00    +0.000 OA
ATOM     29  H   UNL     1       0.934  10.915  18.220  0.00  0.00    +0.000 HD
BRANCH  26  34
ATOM     30  C   UNL     1       2.421  17.058  18.443  0.00  0.00    +0.000 C 
ATOM     31  C   UNL     1       2.126  15.593  18.589  0.00  0.00    +0.000 A 
ATOM     32  C   UNL     1       0.843  15.194  18.989  0.00  0.00    +0.000 A 
ATOM     33  C   UNL     1       0.525  13.844  19.138  0.00  0.00    +0.000 A 
ATOM     34  C   UNL     1       1.460  12.838  18.901  0.00  0.00    +0.000 A 
ATOM     35  C   UNL     1       2.747  13.224  18.497  0.00  0.00    +0.000 A 
ATOM     36  C   UNL     1       3.073  14.587  18.343  0.00  0.00    +0.000 A 
ATOM     37 CL   UNL     1       4.679  14.988  17.840  0.00  0.00    +0.000 Cl
ENDBRANCH  26  34
ENDBRANCH  22  27
ENDBRANCH  21  24
ENDBRANCH   1  21
TORSDOF 8
ENDMDL
