MODEL 1
REMARK VINA RESULT:      -8.5      0.000      0.000
REMARK  Name = 
REMARK  8 active torsions:
REMARK  status: ('A' for Active; 'I' for Inactive)
REMARK    1  A    between atoms: C_1  and  O_2
REMARK    2  A    between atoms: O_2  and  C_3
REMARK    3  A    between atoms: C_6  and  C_7
REMARK    4  A    between atoms: C_13  and  C_14
REMARK    5  A    between atoms: C_14  and  N_15
REMARK    6  A    between atoms: C_16  and  C_18
REMARK    7  A    between atoms: N_20  and  C_21
REMARK    8  A    between atoms: C_21  and  C_22
REMARK                            x       y       z     vdW  Elec       q    Type
REMARK                         _______ _______ _______ _____ _____    ______ ____
ROOT
ATOM      1  C   UNL     1       5.283   4.562  19.476  0.00  0.00    +0.000 C 
ENDROOT
BRANCH   1   8
ATOM      2  C   UNL     1       2.794   6.256  18.478  0.00  0.00    +0.000 C 
ATOM      3  O   UNL     1       3.219   6.231  17.325  0.00  0.00    +0.000 OA
ATOM      4  N   UNL     1       2.902   5.171  19.329  0.00  0.00    +0.000 N 
ATOM      5  C   UNL     1       2.292   4.948  20.613  0.00  0.00    +0.000 C 
ATOM      6  C   UNL     1       2.397   3.456  20.785  0.00  0.00    +0.000 C 
ATOM      7  O   UNL     1       3.478   3.024  19.947  0.00  0.00    +0.000 OA
ATOM      8  C   UNL     1       3.856   4.116  19.074  0.00  0.00    +0.000 C 
BRANCH   2  12
ATOM      9  C   UNL     1       0.962   9.895  19.884  0.00  0.00    +0.000 A 
ATOM     10  C   UNL     1       1.127   8.808  20.748  0.00  0.00    +0.000 A 
ATOM     11  C   UNL     1       1.750   7.629  20.308  0.00  0.00    +0.000 A 
ATOM     12  C   UNL     1       2.190   7.525  18.983  0.00  0.00    +0.000 A 
ATOM     13  C   UNL     1       1.936   8.585  18.111  0.00  0.00    +0.000 A 
ATOM     14  C   UNL     1       1.371   9.777  18.561  0.00  0.00    +0.000 A 
BRANCH   9  16
ATOM     15  C   UNL     1       1.115  12.194  20.422  0.00  0.00    +0.000 C 
ATOM     16  O   UNL     1       0.340  10.996  20.406  0.00  0.00    +0.000 OA
ENDBRANCH   9  16
ENDBRANCH   2  12
ENDBRANCH   1   8
BRANCH   1  17
ATOM     17  N   UNL     1       5.862   5.556  18.599  0.00  0.00    +0.000 N 
ATOM     18  C   UNL     1       7.191   5.908  18.666  0.00  0.00    +0.000 C 
ATOM     19  O   UNL     1       8.029   5.429  19.422  0.00  0.00    +0.000 OA
ATOM     20  H   UNL     1       5.267   6.121  17.999  0.00  0.00    +0.000 HD
BRANCH  18  21
ATOM     21  C   UNL     1       7.606   6.989  17.641  0.00  0.00    +0.000 C 
ATOM     22  O   UNL     1       7.634   6.722  16.449  0.00  0.00    +0.000 OA
ATOM     23  N   UNL     1       7.935   8.191  18.216  0.00  0.00    +0.000 N 
ATOM     24  H   UNL     1       7.850   8.255  19.227  0.00  0.00    +0.000 HD
BRANCH  23  25
ATOM     25  C   UNL     1       8.415   9.322  17.463  0.00  0.00    +0.000 C 
BRANCH  25  26
ATOM     26  C   UNL     1       8.883  10.429  18.373  0.00  0.00    +0.000 A 
ATOM     27  C   UNL     1       9.307  10.151  19.682  0.00  0.00    +0.000 A 
ATOM     28  C   UNL     1       9.744  11.180  20.520  0.00  0.00    +0.000 A 
ATOM     29  C   UNL     1       9.761  12.493  20.055  0.00  0.00    +0.000 A 
ATOM     30 CL   UNL     1      10.287  13.761  21.092  0.00  0.00    +0.000 Cl
ATOM     31  C   UNL     1       9.355  12.786  18.755  0.00  0.00    +0.000 A 
ATOM     32  C   UNL     1       8.921  11.755  17.916  0.00  0.00    +0.000 A 
ENDBRANCH  25  26
ENDBRANCH  23  25
ENDBRANCH  18  21
ENDBRANCH   1  17
TORSDOF 7
ENDMDL
MODEL 2
REMARK VINA RESULT:      -8.5      4.816      8.346
REMARK  Name = 
REMARK  8 active torsions:
REMARK  status: ('A' for Active; 'I' for Inactive)
REMARK    1  A    between atoms: C_1  and  O_2
REMARK    2  A    between atoms: O_2  and  C_3
REMARK    3  A    between atoms: C_6  and  C_7
REMARK    4  A    between atoms: C_13  and  C_14
REMARK    5  A    between atoms: C_14  and  N_15
REMARK    6  A    between atoms: C_16  and  C_18
REMARK    7  A    between atoms: N_20  and  C_21
REMARK    8  A    between atoms: C_21  and  C_22
REMARK                            x       y       z     vdW  Elec       q    Type
REMARK                         _______ _______ _______ _____ _____    ______ ____
ROOT
ATOM      1  C   UNL     1       2.482   5.191  20.677  0.00  0.00    +0.000 C 
ENDROOT
BRANCH   1   8
ATOM      2  C   UNL     1       4.566   3.649  18.848  0.00  0.00    +0.000 C 
ATOM      3  O   UNL     1       5.120   3.187  19.842  0.00  0.00    +0.000 OA
ATOM      4  N   UNL     1       3.193   3.803  18.772  0.00  0.00    +0.000 N 
ATOM      5  C   UNL     1       2.368   4.124  17.638  0.00  0.00    +0.000 C 
ATOM      6  C   UNL     1       0.999   3.674  18.075  0.00  0.00    +0.000 C 
ATOM      7  O   UNL     1       1.012   3.667  19.509  0.00  0.00    +0.000 OA
ATOM      8  C   UNL     1       2.378   3.820  19.964  0.00  0.00    +0.000 C 
BRANCH   2  12
ATOM      9  C   UNL     1       6.944   5.032  15.530  0.00  0.00    +0.000 A 
ATOM     10  C   UNL     1       7.180   5.519  16.819  0.00  0.00    +0.000 A 
ATOM     11  C   UNL     1       6.431   5.052  17.912  0.00  0.00    +0.000 A 
ATOM     12  C   UNL     1       5.417   4.108  17.710  0.00  0.00    +0.000 A 
ATOM     13  C   UNL     1       5.136   3.700  16.405  0.00  0.00    +0.000 A 
ATOM     14  C   UNL     1       5.916   4.119  15.329  0.00  0.00    +0.000 A 
BRANCH   9  16
ATOM     15  C   UNL     1       7.563   4.952  13.248  0.00  0.00    +0.000 C 
ATOM     16  O   UNL     1       7.723   5.552  14.532  0.00  0.00    +0.000 OA
ENDBRANCH   9  16
ENDBRANCH   2  12
ENDBRANCH   1   8
BRANCH   1  17
ATOM     17  N   UNL     1       2.271   6.327  19.807  0.00  0.00    +0.000 N 
ATOM     18  C   UNL     1       1.815   7.537  20.280  0.00  0.00    +0.000 C 
ATOM     19  O   UNL     1       1.566   7.810  21.449  0.00  0.00    +0.000 OA
ATOM     20  H   UNL     1       2.324   6.219  18.798  0.00  0.00    +0.000 HD
BRANCH  18  21
ATOM     21  C   UNL     1       1.659   8.619  19.186  0.00  0.00    +0.000 C 
ATOM     22  O   UNL     1       2.440   8.657  18.248  0.00  0.00    +0.000 OA
ATOM     23  N   UNL     1       0.612   9.478  19.412  0.00  0.00    +0.000 N 
ATOM     24  H   UNL     1       0.045   9.305  20.238  0.00  0.00    +0.000 HD
BRANCH  23  25
ATOM     25  C   UNL     1       0.316  10.603  18.563  0.00  0.00    +0.000 C 
BRANCH  25  26
ATOM     26  C   UNL     1      -1.168  10.748  18.337  0.00  0.00    +0.000 A 
ATOM     27  C   UNL     1      -1.894  11.765  18.975  0.00  0.00    +0.000 A 
ATOM     28  C   UNL     1      -3.268  11.897  18.759  0.00  0.00    +0.000 A 
ATOM     29  C   UNL     1      -3.924  11.014  17.904  0.00  0.00    +0.000 A 
ATOM     30 CL   UNL     1      -5.619  11.170  17.650  0.00  0.00    +0.000 Cl
ATOM     31  C   UNL     1      -3.217  10.005  17.255  0.00  0.00    +0.000 A 
ATOM     32  C   UNL     1      -1.841   9.876  17.468  0.00  0.00    +0.000 A 
ENDBRANCH  25  26
ENDBRANCH  23  25
ENDBRANCH  18  21
ENDBRANCH   1  17
TORSDOF 7
ENDMDL
MODEL 3
REMARK VINA RESULT:      -8.4      4.258      5.631
REMARK  Name = 
REMARK  8 active torsions:
REMARK  status: ('A' for Active; 'I' for Inactive)
REMARK    1  A    between atoms: C_1  and  O_2
REMARK    2  A    between atoms: O_2  and  C_3
REMARK    3  A    between atoms: C_6  and  C_7
REMARK    4  A    between atoms: C_13  and  C_14
REMARK    5  A    between atoms: C_14  and  N_15
REMARK    6  A    between atoms: C_16  and  C_18
REMARK    7  A    between atoms: N_20  and  C_21
REMARK    8  A    between atoms: C_21  and  C_22
REMARK                            x       y       z     vdW  Elec       q    Type
REMARK                         _______ _______ _______ _____ _____    ______ ____
ROOT
ATOM      1  C   UNL     1       4.999   3.679  19.862  0.00  0.00    +0.000 C 
ENDROOT
BRANCH   1   8
ATOM      2  C   UNL     1       2.692   5.481  18.640  0.00  0.00    +0.000 C 
ATOM      3  O   UNL     1       3.046   5.189  17.500  0.00  0.00    +0.000 OA
ATOM      4  N   UNL     1       2.710   4.566  19.677  0.00  0.00    +0.000 N 
ATOM      5  C   UNL     1       2.150   4.666  20.998  0.00  0.00    +0.000 C 
ATOM      6  C   UNL     1       2.074   3.230  21.446  0.00  0.00    +0.000 C 
ATOM      7  O   UNL     1       3.043   2.511  20.670  0.00  0.00    +0.000 OA
ATOM      8  C   UNL     1       3.507   3.364  19.596  0.00  0.00    +0.000 C 
BRANCH   2  12
ATOM      9  C   UNL     1       1.421   9.532  19.381  0.00  0.00    +0.000 A 
ATOM     10  C   UNL     1       1.375   8.579  20.403  0.00  0.00    +0.000 A 
ATOM     11  C   UNL     1       1.816   7.264  20.180  0.00  0.00    +0.000 A 
ATOM     12  C   UNL     1       2.282   6.890  18.915  0.00  0.00    +0.000 A 
ATOM     13  C   UNL     1       2.237   7.830  17.883  0.00  0.00    +0.000 A 
ATOM     14  C   UNL     1       1.856   9.149  18.118  0.00  0.00    +0.000 A 
BRANCH   9  16
ATOM     15  C   UNL     1       0.773  11.039  21.086  0.00  0.00    +0.000 C 
ATOM     16  O   UNL     1       0.966  10.783  19.696  0.00  0.00    +0.000 OA
ENDBRANCH   9  16
ENDBRANCH   2  12
ENDBRANCH   1   8
BRANCH   1  17
ATOM     17  N   UNL     1       5.664   4.356  18.770  0.00  0.00    +0.000 N 
ATOM     18  C   UNL     1       6.745   5.186  18.971  0.00  0.00    +0.000 C 
ATOM     19  O   UNL     1       7.281   5.427  20.047  0.00  0.00    +0.000 OA
ATOM     20  H   UNL     1       5.262   4.344  17.836  0.00  0.00    +0.000 HD
BRANCH  18  21
ATOM     21  C   UNL     1       7.306   5.810  17.674  0.00  0.00    +0.000 C 
ATOM     22  O   UNL     1       7.632   6.987  17.652  0.00  0.00    +0.000 OA
ATOM     23  N   UNL     1       7.363   4.928  16.623  0.00  0.00    +0.000 N 
ATOM     24  H   UNL     1       7.064   3.975  16.806  0.00  0.00    +0.000 HD
BRANCH  23  25
ATOM     25  C   UNL     1       7.788   5.304  15.298  0.00  0.00    +0.000 C 
BRANCH  25  26
ATOM     26  C   UNL     1       6.917   4.674  14.241  0.00  0.00    +0.000 A 
ATOM     27  C   UNL     1       7.414   4.436  12.951  0.00  0.00    +0.000 A 
ATOM     28  C   UNL     1       6.604   3.848  11.976  0.00  0.00    +0.000 A 
ATOM     29  C   UNL     1       5.293   3.493  12.285  0.00  0.00    +0.000 A 
ATOM     30 CL   UNL     1       4.293   2.781  11.080  0.00  0.00    +0.000 Cl
ATOM     31  C   UNL     1       4.787   3.713  13.565  0.00  0.00    +0.000 A 
ATOM     32  C   UNL     1       5.599   4.297  14.540  0.00  0.00    +0.000 A 
ENDBRANCH  25  26
ENDBRANCH  23  25
ENDBRANCH  18  21
ENDBRANCH   1  17
TORSDOF 7
ENDMDL
MODEL 4
REMARK VINA RESULT:      -8.4      0.779      1.514
REMARK  Name = 
REMARK  8 active torsions:
REMARK  status: ('A' for Active; 'I' for Inactive)
REMARK    1  A    between atoms: C_1  and  O_2
REMARK    2  A    between atoms: O_2  and  C_3
REMARK    3  A    between atoms: C_6  and  C_7
REMARK    4  A    between atoms: C_13  and  C_14
REMARK    5  A    between atoms: C_14  and  N_15
REMARK    6  A    between atoms: C_16  and  C_18
REMARK    7  A    between atoms: N_20  and  C_21
REMARK    8  A    between atoms: C_21  and  C_22
REMARK                            x       y       z     vdW  Elec       q    Type
REMARK                         _______ _______ _______ _____ _____    ______ ____
ROOT
ATOM      1  C   UNL     1       4.783   5.017  19.380  0.00  0.00    +0.000 C 
ENDROOT
BRANCH   1   8
ATOM      2  C   UNL     1       2.317   6.962  18.936  0.00  0.00    +0.000 C 
ATOM      3  O   UNL     1       2.735   7.263  17.820  0.00  0.00    +0.000 OA
ATOM      4  N   UNL     1       2.412   5.677  19.438  0.00  0.00    +0.000 N 
ATOM      5  C   UNL     1       1.806   5.104  20.610  0.00  0.00    +0.000 C 
ATOM      6  C   UNL     1       1.885   3.624  20.346  0.00  0.00    +0.000 C 
ATOM      7  O   UNL     1       2.954   3.435  19.408  0.00  0.00    +0.000 OA
ATOM      8  C   UNL     1       3.346   4.726  18.882  0.00  0.00    +0.000 C 
BRANCH   2  12
ATOM      9  C   UNL     1       0.741  10.102  21.432  0.00  0.00    +0.000 A 
ATOM     10  C   UNL     1       0.786  10.260  20.044  0.00  0.00    +0.000 A 
ATOM     11  C   UNL     1       1.269   9.230  19.219  0.00  0.00    +0.000 A 
ATOM     12  C   UNL     1       1.737   8.041  19.790  0.00  0.00    +0.000 A 
ATOM     13  C   UNL     1       1.768   7.936  21.182  0.00  0.00    +0.000 A 
ATOM     14  C   UNL     1       1.235   8.933  21.997  0.00  0.00    +0.000 A 
BRANCH   9  16
ATOM     15  C   UNL     1      -0.477  12.131  21.400  0.00  0.00    +0.000 C 
ATOM     16  O   UNL     1       0.257  11.163  22.149  0.00  0.00    +0.000 OA
ENDBRANCH   9  16
ENDBRANCH   2  12
ENDBRANCH   1   8
BRANCH   1  17
ATOM     17  N   UNL     1       5.537   5.906  18.524  0.00  0.00    +0.000 N 
ATOM     18  C   UNL     1       6.906   6.026  18.615  0.00  0.00    +0.000 C 
ATOM     19  O   UNL     1       7.637   5.404  19.378  0.00  0.00    +0.000 OA
ATOM     20  H   UNL     1       5.058   6.571  17.923  0.00  0.00    +0.000 HD
BRANCH  18  21
ATOM     21  C   UNL     1       7.516   7.030  17.611  0.00  0.00    +0.000 C 
ATOM     22  O   UNL     1       7.700   6.698  16.449  0.00  0.00    +0.000 OA
ATOM     23  N   UNL     1       7.820   8.247  18.169  0.00  0.00    +0.000 N 
ATOM     24  H   UNL     1       7.595   8.369  19.153  0.00  0.00    +0.000 HD
BRANCH  23  25
ATOM     25  C   UNL     1       8.459   9.313  17.441  0.00  0.00    +0.000 C 
BRANCH  25  26
ATOM     26  C   UNL     1       8.903  10.420  18.363  0.00  0.00    +0.000 A 
ATOM     27  C   UNL     1       8.933  11.751  17.922  0.00  0.00    +0.000 A 
ATOM     28  C   UNL     1       9.341  12.775  18.782  0.00  0.00    +0.000 A 
ATOM     29  C   UNL     1       9.720  12.473  20.087  0.00  0.00    +0.000 A 
ATOM     30 CL   UNL     1      10.235  13.733  21.141  0.00  0.00    +0.000 Cl
ATOM     31  C   UNL     1       9.686  11.158  20.546  0.00  0.00    +0.000 A 
ATOM     32  C   UNL     1       9.274  10.136  19.687  0.00  0.00    +0.000 A 
ENDBRANCH  25  26
ENDBRANCH  23  25
ENDBRANCH  18  21
ENDBRANCH   1  17
TORSDOF 7
ENDMDL
MODEL 5
REMARK VINA RESULT:      -8.2      4.860      8.928
REMARK  Name = 
REMARK  8 active torsions:
REMARK  status: ('A' for Active; 'I' for Inactive)
REMARK    1  A    between atoms: C_1  and  O_2
REMARK    2  A    between atoms: O_2  and  C_3
REMARK    3  A    between atoms: C_6  and  C_7
REMARK    4  A    between atoms: C_13  and  C_14
REMARK    5  A    between atoms: C_14  and  N_15
REMARK    6  A    between atoms: C_16  and  C_18
REMARK    7  A    between atoms: N_20  and  C_21
REMARK    8  A    between atoms: C_21  and  C_22
REMARK                            x       y       z     vdW  Elec       q    Type
REMARK                         _______ _______ _______ _____ _____    ______ ____
ROOT
ATOM      1  C   UNL     1       2.426   6.916  19.861  0.00  0.00    +0.000 C 
ENDROOT
BRANCH   1   8
ATOM      2  C   UNL     1       4.673   5.085  18.571  0.00  0.00    +0.000 C 
ATOM      3  O   UNL     1       5.469   5.418  19.446  0.00  0.00    +0.000 OA
ATOM      4  N   UNL     1       3.332   4.869  18.836  0.00  0.00    +0.000 N 
ATOM      5  C   UNL     1       2.316   4.286  18.001  0.00  0.00    +0.000 C 
ATOM      6  C   UNL     1       1.247   3.896  18.988  0.00  0.00    +0.000 C 
ATOM      7  O   UNL     1       1.436   4.728  20.141  0.00  0.00    +0.000 OA
ATOM      8  C   UNL     1       2.712   5.403  20.026  0.00  0.00    +0.000 C 
BRANCH   2  12
ATOM      9  C   UNL     1       6.206   4.764  14.556  0.00  0.00    +0.000 A 
ATOM     10  C   UNL     1       5.933   3.613  15.301  0.00  0.00    +0.000 A 
ATOM     11  C   UNL     1       5.404   3.707  16.600  0.00  0.00    +0.000 A 
ATOM     12  C   UNL     1       5.171   4.964  17.169  0.00  0.00    +0.000 A 
ATOM     13  C   UNL     1       5.533   6.101  16.445  0.00  0.00    +0.000 A 
ATOM     14  C   UNL     1       6.002   6.010  15.136  0.00  0.00    +0.000 A 
BRANCH   9  16
ATOM     15  C   UNL     1       6.245   3.416  12.612  0.00  0.00    +0.000 C 
ATOM     16  O   UNL     1       6.722   4.568  13.304  0.00  0.00    +0.000 OA
ENDBRANCH   9  16
ENDBRANCH   2  12
ENDBRANCH   1   8
BRANCH   1  17
ATOM     17  N   UNL     1       1.482   7.447  20.819  0.00  0.00    +0.000 N 
ATOM     18  C   UNL     1       0.937   8.705  20.692  0.00  0.00    +0.000 C 
ATOM     19  O   UNL     1       1.147   9.495  19.778  0.00  0.00    +0.000 OA
ATOM     20  H   UNL     1       1.300   6.954  21.690  0.00  0.00    +0.000 HD
BRANCH  18  21
ATOM     21  C   UNL     1      -0.049   9.080  21.822  0.00  0.00    +0.000 C 
ATOM     22  O   UNL     1      -0.755   8.220  22.327  0.00  0.00    +0.000 OA
ATOM     23  N   UNL     1      -0.037  10.415  22.139  0.00  0.00    +0.000 N 
ATOM     24  H   UNL     1       0.620  11.002  21.631  0.00  0.00    +0.000 HD
BRANCH  23  25
ATOM     25  C   UNL     1      -0.919  11.004  23.114  0.00  0.00    +0.000 C 
BRANCH  25  26
ATOM     26  C   UNL     1      -1.980  11.850  22.455  0.00  0.00    +0.000 A 
ATOM     27  C   UNL     1      -3.103  12.281  23.177  0.00  0.00    +0.000 A 
ATOM     28  C   UNL     1      -4.081  13.069  22.564  0.00  0.00    +0.000 A 
ATOM     29  C   UNL     1      -3.942  13.430  21.226  0.00  0.00    +0.000 A 
ATOM     30 CL   UNL     1      -5.153  14.389  20.469  0.00  0.00    +0.000 Cl
ATOM     31  C   UNL     1      -2.828  13.020  20.497  0.00  0.00    +0.000 A 
ATOM     32  C   UNL     1      -1.848  12.235  21.112  0.00  0.00    +0.000 A 
ENDBRANCH  25  26
ENDBRANCH  23  25
ENDBRANCH  18  21
ENDBRANCH   1  17
TORSDOF 7
ENDMDL
MODEL 6
REMARK VINA RESULT:      -8.2      4.816      6.003
REMARK  Name = 
REMARK  8 active torsions:
REMARK  status: ('A' for Active; 'I' for Inactive)
REMARK    1  A    between atoms: C_1  and  O_2
REMARK    2  A    between atoms: O_2  and  C_3
REMARK    3  A    between atoms: C_6  and  C_7
REMARK    4  A    between atoms: C_13  and  C_14
REMARK    5  A    between atoms: C_14  and  N_15
REMARK    6  A    between atoms: C_16  and  C_18
REMARK    7  A    between atoms: N_20  and  C_21
REMARK    8  A    between atoms: C_21  and  C_22
REMARK                            x       y       z     vdW  Elec       q    Type
REMARK                         _______ _______ _______ _____ _____    ______ ____
ROOT
ATOM      1  C   UNL     1       4.378   3.133  19.973  0.00  0.00    +0.000 C 
ENDROOT
BRANCH   1   8
ATOM      2  C   UNL     1       2.483   5.176  18.457  0.00  0.00    +0.000 C 
ATOM      3  O   UNL     1       3.022   4.906  17.386  0.00  0.00    +0.000 OA
ATOM      4  N   UNL     1       2.237   4.217  19.423  0.00  0.00    +0.000 N 
ATOM      5  C   UNL     1       1.447   4.305  20.622  0.00  0.00    +0.000 C 
ATOM      6  C   UNL     1       1.181   2.862  20.962  0.00  0.00    +0.000 C 
ATOM      7  O   UNL     1       2.223   2.099  20.337  0.00  0.00    +0.000 OA
ATOM      8  C   UNL     1       2.943   2.957  19.419  0.00  0.00    +0.000 C 
BRANCH   2  12
ATOM      9  C   UNL     1       1.573   9.303  19.304  0.00  0.00    +0.000 A 
ATOM     10  C   UNL     1       1.865   8.898  17.998  0.00  0.00    +0.000 A 
ATOM     11  C   UNL     1       2.133   7.550  17.707  0.00  0.00    +0.000 A 
ATOM     12  C   UNL     1       2.135   6.601  18.736  0.00  0.00    +0.000 A 
ATOM     13  C   UNL     1       1.929   7.038  20.046  0.00  0.00    +0.000 A 
ATOM     14  C   UNL     1       1.606   8.364  20.328  0.00  0.00    +0.000 A 
BRANCH   9  16
ATOM     15  C   UNL     1       0.175  10.954  20.262  0.00  0.00    +0.000 C 
ATOM     16  O   UNL     1       1.330  10.637  19.487  0.00  0.00    +0.000 OA
ENDBRANCH   9  16
ENDBRANCH   2  12
ENDBRANCH   1   8
BRANCH   1  17
ATOM     17  N   UNL     1       5.382   3.352  18.955  0.00  0.00    +0.000 N 
ATOM     18  C   UNL     1       6.112   4.518  18.885  0.00  0.00    +0.000 C 
ATOM     19  O   UNL     1       6.033   5.468  19.655  0.00  0.00    +0.000 OA
ATOM     20  H   UNL     1       5.479   2.702  18.179  0.00  0.00    +0.000 HD
BRANCH  18  21
ATOM     21  C   UNL     1       7.132   4.549  17.723  0.00  0.00    +0.000 C 
ATOM     22  O   UNL     1       8.330   4.519  17.961  0.00  0.00    +0.000 OA
ATOM     23  N   UNL     1       6.548   4.632  16.484  0.00  0.00    +0.000 N 
ATOM     24  H   UNL     1       5.532   4.637  16.455  0.00  0.00    +0.000 HD
BRANCH  23  25
ATOM     25  C   UNL     1       7.301   4.743  15.261  0.00  0.00    +0.000 C 
BRANCH  25  26
ATOM     26  C   UNL     1       6.499   4.267  14.076  0.00  0.00    +0.000 A 
ATOM     27  C   UNL     1       5.101   4.184  14.144  0.00  0.00    +0.000 A 
ATOM     28  C   UNL     1       4.361   3.747  13.041  0.00  0.00    +0.000 A 
ATOM     29  C   UNL     1       5.016   3.390  11.865  0.00  0.00    +0.000 A 
ATOM     30 CL   UNL     1       4.106   2.839  10.513  0.00  0.00    +0.000 Cl
ATOM     31  C   UNL     1       6.404   3.476  11.777  0.00  0.00    +0.000 A 
ATOM     32  C   UNL     1       7.142   3.917  12.878  0.00  0.00    +0.000 A 
ENDBRANCH  25  26
ENDBRANCH  23  25
ENDBRANCH  18  21
ENDBRANCH   1  17
TORSDOF 7
ENDMDL
MODEL 7
REMARK VINA RESULT:      -8.1      4.830      8.693
REMARK  Name = 
REMARK  8 active torsions:
REMARK  status: ('A' for Active; 'I' for Inactive)
REMARK    1  A    between atoms: C_1  and  O_2
REMARK    2  A    between atoms: O_2  and  C_3
REMARK    3  A    between atoms: C_6  and  C_7
REMARK    4  A    between atoms: C_13  and  C_14
REMARK    5  A    between atoms: C_14  and  N_15
REMARK    6  A    between atoms: C_16  and  C_18
REMARK    7  A    between atoms: N_20  and  C_21
REMARK    8  A    between atoms: C_21  and  C_22
REMARK                            x       y       z     vdW  Elec       q    Type
REMARK                         _______ _______ _______ _____ _____    ______ ____
ROOT
ATOM      1  C   UNL     1       2.221   7.030  19.611  0.00  0.00    +0.000 C 
ENDROOT
BRANCH   1   8
ATOM      2  C   UNL     1       4.640   5.255  18.581  0.00  0.00    +0.000 C 
ATOM      3  O   UNL     1       5.380   5.739  19.435  0.00  0.00    +0.000 OA
ATOM      4  N   UNL     1       3.312   4.964  18.834  0.00  0.00    +0.000 N 
ATOM      5  C   UNL     1       2.370   4.219  18.042  0.00  0.00    +0.000 C 
ATOM      6  C   UNL     1       1.301   3.853  19.038  0.00  0.00    +0.000 C 
ATOM      7  O   UNL     1       1.389   4.813  20.100  0.00  0.00    +0.000 OA
ATOM      8  C   UNL     1       2.614   5.570  19.944  0.00  0.00    +0.000 C 
BRANCH   2  12
ATOM      9  C   UNL     1       6.152   4.533  14.610  0.00  0.00    +0.000 A 
ATOM     10  C   UNL     1       5.538   5.750  14.922  0.00  0.00    +0.000 A 
ATOM     11  C   UNL     1       5.070   6.006  16.221  0.00  0.00    +0.000 A 
ATOM     12  C   UNL     1       5.192   5.026  17.213  0.00  0.00    +0.000 A 
ATOM     13  C   UNL     1       5.726   3.785  16.862  0.00  0.00    +0.000 A 
ATOM     14  C   UNL     1       6.244   3.551  15.589  0.00  0.00    +0.000 A 
BRANCH   9  16
ATOM     15  C   UNL     1       5.896   3.370  12.566  0.00  0.00    +0.000 C 
ATOM     16  O   UNL     1       6.571   4.377  13.317  0.00  0.00    +0.000 OA
ENDBRANCH   9  16
ENDBRANCH   2  12
ENDBRANCH   1   8
BRANCH   1  17
ATOM     17  N   UNL     1       1.752   7.790  20.749  0.00  0.00    +0.000 N 
ATOM     18  C   UNL     1       1.146   9.019  20.610  0.00  0.00    +0.000 C 
ATOM     19  O   UNL     1       0.908   9.593  19.553  0.00  0.00    +0.000 OA
ATOM     20  H   UNL     1       1.983   7.497  21.694  0.00  0.00    +0.000 HD
BRANCH  18  21
ATOM     21  C   UNL     1       0.720   9.663  21.949  0.00  0.00    +0.000 C 
ATOM     22  O   UNL     1       1.433   9.553  22.935  0.00  0.00    +0.000 OA
ATOM     23  N   UNL     1      -0.490  10.309  21.886  0.00  0.00    +0.000 N 
ATOM     24  H   UNL     1      -0.958  10.320  20.984  0.00  0.00    +0.000 HD
BRANCH  23  25
ATOM     25  C   UNL     1      -1.118  10.923  23.027  0.00  0.00    +0.000 C 
BRANCH  25  26
ATOM     26  C   UNL     1      -1.691  12.274  22.679  0.00  0.00    +0.000 A 
ATOM     27  C   UNL     1      -1.392  13.401  23.458  0.00  0.00    +0.000 A 
ATOM     28  C   UNL     1      -1.921  14.652  23.129  0.00  0.00    +0.000 A 
ATOM     29  C   UNL     1      -2.751  14.783  22.019  0.00  0.00    +0.000 A 
ATOM     30 CL   UNL     1      -3.413  16.321  21.622  0.00  0.00    +0.000 Cl
ATOM     31  C   UNL     1      -3.050  13.676  21.227  0.00  0.00    +0.000 A 
ATOM     32  C   UNL     1      -2.517  12.426  21.555  0.00  0.00    +0.000 A 
ENDBRANCH  25  26
ENDBRANCH  23  25
ENDBRANCH  18  21
ENDBRANCH   1  17
TORSDOF 7
ENDMDL
MODEL 8
REMARK VINA RESULT:      -8.1      4.610      5.769
REMARK  Name = 
REMARK  8 active torsions:
REMARK  status: ('A' for Active; 'I' for Inactive)
REMARK    1  A    between atoms: C_1  and  O_2
REMARK    2  A    between atoms: O_2  and  C_3
REMARK    3  A    between atoms: C_6  and  C_7
REMARK    4  A    between atoms: C_13  and  C_14
REMARK    5  A    between atoms: C_14  and  N_15
REMARK    6  A    between atoms: C_16  and  C_18
REMARK    7  A    between atoms: N_20  and  C_21
REMARK    8  A    between atoms: C_21  and  C_22
REMARK                            x       y       z     vdW  Elec       q    Type
REMARK                         _______ _______ _______ _____ _____    ______ ____
ROOT
ATOM      1  C   UNL     1       4.776   2.903  20.064  0.00  0.00    +0.000 C 
ENDROOT
BRANCH   1   8
ATOM      2  C   UNL     1       2.856   4.655  18.245  0.00  0.00    +0.000 C 
ATOM      3  O   UNL     1       3.182   4.008  17.252  0.00  0.00    +0.000 OA
ATOM      4  N   UNL     1       2.685   4.067  19.485  0.00  0.00    +0.000 N 
ATOM      5  C   UNL     1       2.118   4.614  20.689  0.00  0.00    +0.000 C 
ATOM      6  C   UNL     1       1.777   3.388  21.493  0.00  0.00    +0.000 C 
ATOM      7  O   UNL     1       2.624   2.336  21.009  0.00  0.00    +0.000 OA
ATOM      8  C   UNL     1       3.259   2.775  19.784  0.00  0.00    +0.000 C 
BRANCH   2  12
ATOM      9  C   UNL     1       2.400   8.911  17.743  0.00  0.00    +0.000 A 
ATOM     10  C   UNL     1       1.296   8.116  18.066  0.00  0.00    +0.000 A 
ATOM     11  C   UNL     1       1.440   6.732  18.262  0.00  0.00    +0.000 A 
ATOM     12  C   UNL     1       2.695   6.133  18.107  0.00  0.00    +0.000 A 
ATOM     13  C   UNL     1       3.768   6.927  17.698  0.00  0.00    +0.000 A 
ATOM     14  C   UNL     1       3.638   8.308  17.560  0.00  0.00    +0.000 A 
BRANCH   9  16
ATOM     15  C   UNL     1       1.345  10.862  18.568  0.00  0.00    +0.000 C 
ATOM     16  O   UNL     1       2.156  10.246  17.569  0.00  0.00    +0.000 OA
ENDBRANCH   9  16
ENDBRANCH   2  12
ENDBRANCH   1   8
BRANCH   1  17
ATOM     17  N   UNL     1       5.557   3.316  18.919  0.00  0.00    +0.000 N 
ATOM     18  C   UNL     1       6.379   4.420  18.951  0.00  0.00    +0.000 C 
ATOM     19  O   UNL     1       6.572   5.150  19.918  0.00  0.00    +0.000 OA
ATOM     20  H   UNL     1       5.412   2.878  18.013  0.00  0.00    +0.000 HD
BRANCH  18  21
ATOM     21  C   UNL     1       7.123   4.687  17.623  0.00  0.00    +0.000 C 
ATOM     22  O   UNL     1       8.216   4.180  17.421  0.00  0.00    +0.000 OA
ATOM     23  N   UNL     1       6.445   5.529  16.776  0.00  0.00    +0.000 N 
ATOM     24  H   UNL     1       5.537   5.861  17.088  0.00  0.00    +0.000 HD
BRANCH  23  25
ATOM     25  C   UNL     1       6.976   5.973  15.512  0.00  0.00    +0.000 C 
BRANCH  25  26
ATOM     26  C   UNL     1       6.610   5.025  14.398  0.00  0.00    +0.000 A 
ATOM     27  C   UNL     1       5.391   4.330  14.421  0.00  0.00    +0.000 A 
ATOM     28  C   UNL     1       5.054   3.456  13.384  0.00  0.00    +0.000 A 
ATOM     29  C   UNL     1       5.932   3.273  12.319  0.00  0.00    +0.000 A 
ATOM     30 CL   UNL     1       5.521   2.186  11.049  0.00  0.00    +0.000 Cl
ATOM     31  C   UNL     1       7.141   3.963  12.274  0.00  0.00    +0.000 A 
ATOM     32  C   UNL     1       7.476   4.840  13.310  0.00  0.00    +0.000 A 
ENDBRANCH  25  26
ENDBRANCH  23  25
ENDBRANCH  18  21
ENDBRANCH   1  17
TORSDOF 7
ENDMDL
MODEL 9
REMARK VINA RESULT:      -8.1      2.958      4.646
REMARK  Name = 
REMARK  8 active torsions:
REMARK  status: ('A' for Active; 'I' for Inactive)
REMARK    1  A    between atoms: C_1  and  O_2
REMARK    2  A    between atoms: O_2  and  C_3
REMARK    3  A    between atoms: C_6  and  C_7
REMARK    4  A    between atoms: C_13  and  C_14
REMARK    5  A    between atoms: C_14  and  N_15
REMARK    6  A    between atoms: C_16  and  C_18
REMARK    7  A    between atoms: N_20  and  C_21
REMARK    8  A    between atoms: C_21  and  C_22
REMARK                            x       y       z     vdW  Elec       q    Type
REMARK                         _______ _______ _______ _____ _____    ______ ____
ROOT
ATOM      1  C   UNL     1       7.226   7.222  17.597  0.00  0.00    +0.000 C 
ENDROOT
BRANCH   1   8
ATOM      2  C   UNL     1       4.201   6.307  17.316  0.00  0.00    +0.000 C 
ATOM      3  O   UNL     1       3.855   7.466  17.095  0.00  0.00    +0.000 OA
ATOM      4  N   UNL     1       5.383   5.783  16.825  0.00  0.00    +0.000 N 
ATOM      5  C   UNL     1       5.844   4.421  16.805  0.00  0.00    +0.000 C 
ATOM      6  C   UNL     1       6.915   4.437  15.748  0.00  0.00    +0.000 C 
ATOM      7  O   UNL     1       7.369   5.795  15.650  0.00  0.00    +0.000 OA
ATOM      8  C   UNL     1       6.455   6.646  16.384  0.00  0.00    +0.000 C 
BRANCH   2  12
ATOM      9  C   UNL     1       1.741   3.785  19.799  0.00  0.00    +0.000 A 
ATOM     10  C   UNL     1       2.840   4.457  20.344  0.00  0.00    +0.000 A 
ATOM     11  C   UNL     1       3.629   5.305  19.550  0.00  0.00    +0.000 A 
ATOM     12  C   UNL     1       3.334   5.463  18.191  0.00  0.00    +0.000 A 
ATOM     13  C   UNL     1       2.289   4.717  17.644  0.00  0.00    +0.000 A 
ATOM     14  C   UNL     1       1.469   3.921  18.442  0.00  0.00    +0.000 A 
BRANCH   9  16
ATOM     15  C   UNL     1       1.704   2.630  21.863  0.00  0.00    +0.000 C 
ATOM     16  O   UNL     1       1.037   2.980  20.651  0.00  0.00    +0.000 OA
ENDBRANCH   9  16
ENDBRANCH   2  12
ENDBRANCH   1   8
BRANCH   1  17
ATOM     17  N   UNL     1       7.569   8.621  17.469  0.00  0.00    +0.000 N 
ATOM     18  C   UNL     1       8.468   9.236  18.312  0.00  0.00    +0.000 C 
ATOM     19  O   UNL     1       9.089   8.699  19.222  0.00  0.00    +0.000 OA
ATOM     20  H   UNL     1       7.049   9.223  16.835  0.00  0.00    +0.000 HD
BRANCH  18  21
ATOM     21  C   UNL     1       8.692  10.734  18.005  0.00  0.00    +0.000 C 
ATOM     22  O   UNL     1       7.906  11.337  17.289  0.00  0.00    +0.000 OA
ATOM     23  N   UNL     1       9.825  11.248  18.586  0.00  0.00    +0.000 N 
ATOM     24  H   UNL     1      10.372  10.616  19.164  0.00  0.00    +0.000 HD
BRANCH  23  25
ATOM     25  C   UNL     1      10.272  12.603  18.383  0.00  0.00    +0.000 C 
BRANCH  25  26
ATOM     26  C   UNL     1       9.840  13.500  19.514  0.00  0.00    +0.000 A 
ATOM     27  C   UNL     1       8.503  13.911  19.632  0.00  0.00    +0.000 A 
ATOM     28  C   UNL     1       8.106  14.739  20.686  0.00  0.00    +0.000 A 
ATOM     29  C   UNL     1       9.042  15.161  21.627  0.00  0.00    +0.000 A 
ATOM     30 CL   UNL     1       8.554  16.191  22.916  0.00  0.00    +0.000 Cl
ATOM     31  C   UNL     1      10.371  14.754  21.531  0.00  0.00    +0.000 A 
ATOM     32  C   UNL     1      10.767  13.922  20.480  0.00  0.00    +0.000 A 
ENDBRANCH  25  26
ENDBRANCH  23  25
ENDBRANCH  18  21
ENDBRANCH   1  17
TORSDOF 7
ENDMDL
