MODEL 1
REMARK VINA RESULT:      -5.6      0.000      0.000
REMARK  Name = 
REMARK  6 active torsions:
REMARK  status: ('A' for Active; 'I' for Inactive)
REMARK    1  A    between atoms: N_1  and  C_2
REMARK    2  A    between atoms: C_3  and  O_4
REMARK    3  A    between atoms: C_5  and  O_6
REMARK    4  A    between atoms: C_7  and  O_8
REMARK    5  A    between atoms: C_9  and  O_10
REMARK    6  A    between atoms: C_11  and  O_12
REMARK                            x       y       z     vdW  Elec       q    Type
REMARK                         _______ _______ _______ _____ _____    ______ ____
ROOT
ATOM      1  C   UNL     1       2.685   2.276  19.865  0.00  0.00    +0.000 C 
ATOM      2  C   UNL     1       1.795   3.532  19.924  0.00  0.00    +0.000 C 
ATOM      3  C   UNL     1       2.099   4.505  18.764  0.00  0.00    +0.000 C 
ATOM      4  C   UNL     1       3.589   4.879  18.702  0.00  0.00    +0.000 C 
ATOM      5  C   UNL     1       4.494   3.636  18.676  0.00  0.00    +0.000 C 
ATOM      6  C   UNL     1       4.177   2.660  19.823  0.00  0.00    +0.000 C 
ENDROOT
BRANCH   1   7
ATOM      7  N   UNL     1       2.333   1.444  18.680  0.00  0.00    +0.000 NA
ATOM      8  H   UNL     1       2.118   2.090  17.914  0.00  0.00    +0.000 HD
ATOM      9  H   UNL     1       1.428   1.010  18.909  0.00  0.00    +0.000 HD
ENDBRANCH   1   7
BRANCH   2  10
ATOM     10  O   UNL     1       0.416   3.147  19.878  0.00  0.00    +0.000 OA
ATOM     11  H   UNL     1       0.111   3.129  20.813  0.00  0.00    +0.000 HD
ENDBRANCH   2  10
BRANCH   3  12
ATOM     12  O   UNL     1       1.681   3.906  17.526  0.00  0.00    +0.000 OA
ATOM     13  H   UNL     1       1.052   3.179  17.744  0.00  0.00    +0.000 HD
ENDBRANCH   3  12
BRANCH   4  14
ATOM     14  O   UNL     1       4.011   5.715  19.794  0.00  0.00    +0.000 OA
ATOM     15  H   UNL     1       3.452   6.508  19.855  0.00  0.00    +0.000 HD
ENDBRANCH   4  14
BRANCH   5  16
ATOM     16  O   UNL     1       5.874   4.028  18.792  0.00  0.00    +0.000 OA
ATOM     17  H   UNL     1       5.885   5.000  18.664  0.00  0.00    +0.000 HD
ENDBRANCH   5  16
BRANCH   6  18
ATOM     18  O   UNL     1       4.951   1.455  19.664  0.00  0.00    +0.000 OA
ATOM     19  H   UNL     1       5.597   1.451  20.399  0.00  0.00    +0.000 HD
ENDBRANCH   6  18
TORSDOF 6
ENDMDL
MODEL 2
REMARK VINA RESULT:      -5.5      3.410      4.935
REMARK  Name = 
REMARK  6 active torsions:
REMARK  status: ('A' for Active; 'I' for Inactive)
REMARK    1  A    between atoms: N_1  and  C_2
REMARK    2  A    between atoms: C_3  and  O_4
REMARK    3  A    between atoms: C_5  and  O_6
REMARK    4  A    between atoms: C_7  and  O_8
REMARK    5  A    between atoms: C_9  and  O_10
REMARK    6  A    between atoms: C_11  and  O_12
REMARK                            x       y       z     vdW  Elec       q    Type
REMARK                         _______ _______ _______ _____ _____    ______ ____
ROOT
ATOM      1  C   UNL     1       7.513   5.451  17.692  0.00  0.00    +0.000 C 
ATOM      2  C   UNL     1       6.548   5.633  18.879  0.00  0.00    +0.000 C 
ATOM      3  C   UNL     1       5.323   4.700  18.769  0.00  0.00    +0.000 C 
ATOM      4  C   UNL     1       4.592   4.864  17.426  0.00  0.00    +0.000 C 
ATOM      5  C   UNL     1       5.547   4.719  16.230  0.00  0.00    +0.000 C 
ATOM      6  C   UNL     1       6.777   5.636  16.350  0.00  0.00    +0.000 C 
ENDROOT
BRANCH   1   7
ATOM      7  N   UNL     1       8.156   4.108  17.746  0.00  0.00    +0.000 NA
ATOM      8  H   UNL     1       8.365   3.915  18.731  0.00  0.00    +0.000 HD
ATOM      9  H   UNL     1       9.081   4.229  17.309  0.00  0.00    +0.000 HD
ENDBRANCH   1   7
BRANCH   2  10
ATOM     10  O   UNL     1       7.240   5.373  20.106  0.00  0.00    +0.000 OA
ATOM     11  H   UNL     1       6.568   5.467  20.818  0.00  0.00    +0.000 HD
ENDBRANCH   2  10
BRANCH   3  12
ATOM     12  O   UNL     1       5.750   3.339  18.944  0.00  0.00    +0.000 OA
ATOM     13  H   UNL     1       5.645   3.114  19.898  0.00  0.00    +0.000 HD
ENDBRANCH   3  12
BRANCH   4  14
ATOM     14  O   UNL     1       3.910   6.124  17.300  0.00  0.00    +0.000 OA
ATOM     15  H   UNL     1       3.905   6.421  16.374  0.00  0.00    +0.000 HD
ENDBRANCH   4  14
BRANCH   5  16
ATOM     16  O   UNL     1       4.863   5.048  15.008  0.00  0.00    +0.000 OA
ATOM     17  H   UNL     1       5.341   5.819  14.636  0.00  0.00    +0.000 HD
ENDBRANCH   5  16
BRANCH   6  18
ATOM     18  O   UNL     1       7.702   5.352  15.283  0.00  0.00    +0.000 OA
ATOM     19  H   UNL     1       8.236   4.590  15.585  0.00  0.00    +0.000 HD
ENDBRANCH   6  18
TORSDOF 6
ENDMDL
MODEL 3
REMARK VINA RESULT:      -5.4      3.109      3.828
REMARK  Name = 
REMARK  6 active torsions:
REMARK  status: ('A' for Active; 'I' for Inactive)
REMARK    1  A    between atoms: N_1  and  C_2
REMARK    2  A    between atoms: C_3  and  O_4
REMARK    3  A    between atoms: C_5  and  O_6
REMARK    4  A    between atoms: C_7  and  O_8
REMARK    5  A    between atoms: C_9  and  O_10
REMARK    6  A    between atoms: C_11  and  O_12
REMARK                            x       y       z     vdW  Elec       q    Type
REMARK                         _______ _______ _______ _____ _____    ______ ____
ROOT
ATOM      1  C   UNL     1       6.048   4.884  18.798  0.00  0.00    +0.000 C 
ATOM      2  C   UNL     1       4.818   5.754  18.477  0.00  0.00    +0.000 C 
ATOM      3  C   UNL     1       4.193   5.381  17.115  0.00  0.00    +0.000 C 
ATOM      4  C   UNL     1       5.224   5.430  15.975  0.00  0.00    +0.000 C 
ATOM      5  C   UNL     1       6.474   4.594  16.294  0.00  0.00    +0.000 C 
ATOM      6  C   UNL     1       7.085   4.955  17.660  0.00  0.00    +0.000 C 
ENDROOT
BRANCH   1   7
ATOM      7  N   UNL     1       5.639   3.471  19.036  0.00  0.00    +0.000 NA
ATOM      8  H   UNL     1       5.381   3.397  20.025  0.00  0.00    +0.000 HD
ATOM      9  H   UNL     1       6.504   2.918  18.956  0.00  0.00    +0.000 HD
ENDBRANCH   1   7
BRANCH   2  10
ATOM     10  O   UNL     1       3.839   5.603  19.511  0.00  0.00    +0.000 OA
ATOM     11  H   UNL     1       3.569   4.658  19.490  0.00  0.00    +0.000 HD
ENDBRANCH   2  10
BRANCH   3  12
ATOM     12  O   UNL     1       3.610   4.070  17.208  0.00  0.00    +0.000 OA
ATOM     13  H   UNL     1       2.885   4.113  17.873  0.00  0.00    +0.000 HD
ENDBRANCH   3  12
BRANCH   4  14
ATOM     14  O   UNL     1       5.651   6.765  15.653  0.00  0.00    +0.000 OA
ATOM     15  H   UNL     1       4.926   7.269  15.245  0.00  0.00    +0.000 HD
ENDBRANCH   4  14
BRANCH   5  16
ATOM     16  O   UNL     1       7.479   4.805  15.286  0.00  0.00    +0.000 OA
ATOM     17  H   UNL     1       7.042   5.326  14.580  0.00  0.00    +0.000 HD
ENDBRANCH   5  16
BRANCH   6  18
ATOM     18  O   UNL     1       8.159   4.045  17.968  0.00  0.00    +0.000 OA
ATOM     19  H   UNL     1       7.795   3.145  17.837  0.00  0.00    +0.000 HD
ENDBRANCH   6  18
TORSDOF 6
ENDMDL
MODEL 4
REMARK VINA RESULT:      -5.4      1.739      3.719
REMARK  Name = 
REMARK  6 active torsions:
REMARK  status: ('A' for Active; 'I' for Inactive)
REMARK    1  A    between atoms: N_1  and  C_2
REMARK    2  A    between atoms: C_3  and  O_4
REMARK    3  A    between atoms: C_5  and  O_6
REMARK    4  A    between atoms: C_7  and  O_8
REMARK    5  A    between atoms: C_9  and  O_10
REMARK    6  A    between atoms: C_11  and  O_12
REMARK                            x       y       z     vdW  Elec       q    Type
REMARK                         _______ _______ _______ _____ _____    ______ ____
ROOT
ATOM      1  C   UNL     1       4.351   3.903  19.197  0.00  0.00    +0.000 C 
ATOM      2  C   UNL     1       4.024   2.527  19.808  0.00  0.00    +0.000 C 
ATOM      3  C   UNL     1       3.307   1.607  18.796  0.00  0.00    +0.000 C 
ATOM      4  C   UNL     1       2.050   2.269  18.207  0.00  0.00    +0.000 C 
ATOM      5  C   UNL     1       2.352   3.658  17.622  0.00  0.00    +0.000 C 
ATOM      6  C   UNL     1       3.082   4.568  18.626  0.00  0.00    +0.000 C 
ENDROOT
BRANCH   1   7
ATOM      7  N   UNL     1       5.385   3.768  18.134  0.00  0.00    +0.000 NA
ATOM      8  H   UNL     1       6.083   3.100  18.478  0.00  0.00    +0.000 HD
ATOM      9  H   UNL     1       5.882   4.671  18.118  0.00  0.00    +0.000 HD
ENDBRANCH   1   7
BRANCH   2  10
ATOM     10  O   UNL     1       5.232   1.900  20.255  0.00  0.00    +0.000 OA
ATOM     11  H   UNL     1       5.911   2.111  19.575  0.00  0.00    +0.000 HD
ENDBRANCH   2  10
BRANCH   3  12
ATOM     12  O   UNL     1       4.225   1.254  17.749  0.00  0.00    +0.000 OA
ATOM     13  H   UNL     1       3.696   1.060  16.941  0.00  0.00    +0.000 HD
ENDBRANCH   3  12
BRANCH   4  14
ATOM     14  O   UNL     1       0.981   2.408  19.159  0.00  0.00    +0.000 OA
ATOM     15  H   UNL     1       0.185   2.767  18.732  0.00  0.00    +0.000 HD
ENDBRANCH   4  14
BRANCH   5  16
ATOM     16  O   UNL     1       1.127   4.309  17.240  0.00  0.00    +0.000 OA
ATOM     17  H   UNL     1       0.657   3.672  16.662  0.00  0.00    +0.000 HD
ENDBRANCH   5  16
BRANCH   6  18
ATOM     18  O   UNL     1       3.466   5.796  17.980  0.00  0.00    +0.000 OA
ATOM     19  H   UNL     1       3.235   5.687  17.034  0.00  0.00    +0.000 HD
ENDBRANCH   6  18
TORSDOF 6
ENDMDL
MODEL 5
REMARK VINA RESULT:      -5.4      1.732      2.649
REMARK  Name = 
REMARK  6 active torsions:
REMARK  status: ('A' for Active; 'I' for Inactive)
REMARK    1  A    between atoms: N_1  and  C_2
REMARK    2  A    between atoms: C_3  and  O_4
REMARK    3  A    between atoms: C_5  and  O_6
REMARK    4  A    between atoms: C_7  and  O_8
REMARK    5  A    between atoms: C_9  and  O_10
REMARK    6  A    between atoms: C_11  and  O_12
REMARK                            x       y       z     vdW  Elec       q    Type
REMARK                         _______ _______ _______ _____ _____    ______ ____
ROOT
ATOM      1  C   UNL     1       2.600   2.877  17.438  0.00  0.00    +0.000 C 
ATOM      2  C   UNL     1       2.237   1.954  18.617  0.00  0.00    +0.000 C 
ATOM      3  C   UNL     1       2.708   2.537  19.967  0.00  0.00    +0.000 C 
ATOM      4  C   UNL     1       4.209   2.868  19.959  0.00  0.00    +0.000 C 
ATOM      5  C   UNL     1       4.595   3.762  18.770  0.00  0.00    +0.000 C 
ATOM      6  C   UNL     1       4.109   3.188  17.427  0.00  0.00    +0.000 C 
ENDROOT
BRANCH   1   7
ATOM      7  N   UNL     1       1.813   4.141  17.506  0.00  0.00    +0.000 NA
ATOM      8  H   UNL     1       1.993   4.556  18.426  0.00  0.00    +0.000 HD
ATOM      9  H   UNL     1       0.827   3.848  17.546  0.00  0.00    +0.000 HD
ENDBRANCH   1   7
BRANCH   2  10
ATOM     10  O   UNL     1       0.819   1.750  18.650  0.00  0.00    +0.000 OA
ATOM     11  H   UNL     1       0.438   2.421  18.040  0.00  0.00    +0.000 HD
ENDBRANCH   2  10
BRANCH   3  12
ATOM     12  O   UNL     1       1.936   3.712  20.266  0.00  0.00    +0.000 OA
ATOM     13  H   UNL     1       2.457   4.494  19.969  0.00  0.00    +0.000 HD
ENDBRANCH   3  12
BRANCH   4  14
ATOM     14  O   UNL     1       5.049   1.700  19.930  0.00  0.00    +0.000 OA
ATOM     15  H   UNL     1       5.949   1.918  20.225  0.00  0.00    +0.000 HD
ENDBRANCH   4  14
BRANCH   5  16
ATOM     16  O   UNL     1       6.025   3.905  18.703  0.00  0.00    +0.000 OA
ATOM     17  H   UNL     1       6.388   3.006  18.848  0.00  0.00    +0.000 HD
ENDBRANCH   5  16
BRANCH   6  18
ATOM     18  O   UNL     1       4.369   4.134  16.372  0.00  0.00    +0.000 OA
ATOM     19  H   UNL     1       3.493   4.395  16.022  0.00  0.00    +0.000 HD
ENDBRANCH   6  18
TORSDOF 6
ENDMDL
MODEL 6
REMARK VINA RESULT:      -5.4      1.545      3.377
REMARK  Name = 
REMARK  6 active torsions:
REMARK  status: ('A' for Active; 'I' for Inactive)
REMARK    1  A    between atoms: N_1  and  C_2
REMARK    2  A    between atoms: C_3  and  O_4
REMARK    3  A    between atoms: C_5  and  O_6
REMARK    4  A    between atoms: C_7  and  O_8
REMARK    5  A    between atoms: C_9  and  O_10
REMARK    6  A    between atoms: C_11  and  O_12
REMARK                            x       y       z     vdW  Elec       q    Type
REMARK                         _______ _______ _______ _____ _____    ______ ____
ROOT
ATOM      1  C   UNL     1       2.971   2.391  17.701  0.00  0.00    +0.000 C 
ATOM      2  C   UNL     1       3.941   3.588  17.726  0.00  0.00    +0.000 C 
ATOM      3  C   UNL     1       4.335   3.976  19.167  0.00  0.00    +0.000 C 
ATOM      4  C   UNL     1       3.104   4.237  20.051  0.00  0.00    +0.000 C 
ATOM      5  C   UNL     1       2.109   3.065  20.012  0.00  0.00    +0.000 C 
ATOM      6  C   UNL     1       1.731   2.668  18.574  0.00  0.00    +0.000 C 
ENDROOT
BRANCH   1   7
ATOM      7  N   UNL     1       3.660   1.153  18.164  0.00  0.00    +0.000 NA
ATOM      8  H   UNL     1       2.933   0.450  18.330  0.00  0.00    +0.000 HD
ATOM      9  H   UNL     1       4.021   1.375  19.103  0.00  0.00    +0.000 HD
ENDBRANCH   1   7
BRANCH   2  10
ATOM     10  O   UNL     1       5.118   3.268  16.975  0.00  0.00    +0.000 OA
ATOM     11  H   UNL     1       4.801   2.862  16.138  0.00  0.00    +0.000 HD
ENDBRANCH   2  10
BRANCH   3  12
ATOM     12  O   UNL     1       5.144   2.930  19.731  0.00  0.00    +0.000 OA
ATOM     13  H   UNL     1       4.598   2.459  20.403  0.00  0.00    +0.000 HD
ENDBRANCH   3  12
BRANCH   4  14
ATOM     14  O   UNL     1       2.394   5.436  19.697  0.00  0.00    +0.000 OA
ATOM     15  H   UNL     1       1.616   5.556  20.268  0.00  0.00    +0.000 HD
ENDBRANCH   4  14
BRANCH   5  16
ATOM     16  O   UNL     1       0.902   3.419  20.709  0.00  0.00    +0.000 OA
ATOM     17  H   UNL     1       0.279   2.678  20.556  0.00  0.00    +0.000 HD
ENDBRANCH   5  16
BRANCH   6  18
ATOM     18  O   UNL     1       0.917   1.480  18.595  0.00  0.00    +0.000 OA
ATOM     19  H   UNL     1       0.050   1.754  18.959  0.00  0.00    +0.000 HD
ENDBRANCH   6  18
TORSDOF 6
ENDMDL
MODEL 7
REMARK VINA RESULT:      -5.3      1.720      3.395
REMARK  Name = 
REMARK  6 active torsions:
REMARK  status: ('A' for Active; 'I' for Inactive)
REMARK    1  A    between atoms: N_1  and  C_2
REMARK    2  A    between atoms: C_3  and  O_4
REMARK    3  A    between atoms: C_5  and  O_6
REMARK    4  A    between atoms: C_7  and  O_8
REMARK    5  A    between atoms: C_9  and  O_10
REMARK    6  A    between atoms: C_11  and  O_12
REMARK                            x       y       z     vdW  Elec       q    Type
REMARK                         _______ _______ _______ _____ _____    ______ ____
ROOT
ATOM      1  C   UNL     1       4.631   3.523  17.999  0.00  0.00    +0.000 C 
ATOM      2  C   UNL     1       4.043   4.927  17.763  0.00  0.00    +0.000 C 
ATOM      3  C   UNL     1       2.867   5.224  18.717  0.00  0.00    +0.000 C 
ATOM      4  C   UNL     1       1.776   4.143  18.642  0.00  0.00    +0.000 C 
ATOM      5  C   UNL     1       2.350   2.731  18.843  0.00  0.00    +0.000 C 
ATOM      6  C   UNL     1       3.534   2.444  17.902  0.00  0.00    +0.000 C 
ENDROOT
BRANCH   1   7
ATOM      7  N   UNL     1       5.302   3.457  19.328  0.00  0.00    +0.000 NA
ATOM      8  H   UNL     1       5.333   4.414  19.695  0.00  0.00    +0.000 HD
ATOM      9  H   UNL     1       6.287   3.229  19.126  0.00  0.00    +0.000 HD
ENDBRANCH   1   7
BRANCH   2  10
ATOM     10  O   UNL     1       5.067   5.913  17.941  0.00  0.00    +0.000 OA
ATOM     11  H   UNL     1       5.719   5.755  17.222  0.00  0.00    +0.000 HD
ENDBRANCH   2  10
BRANCH   3  12
ATOM     12  O   UNL     1       3.367   5.338  20.060  0.00  0.00    +0.000 OA
ATOM     13  H   UNL     1       3.164   4.494  20.527  0.00  0.00    +0.000 HD
ENDBRANCH   3  12
BRANCH   4  14
ATOM     14  O   UNL     1       1.048   4.156  17.401  0.00  0.00    +0.000 OA
ATOM     15  H   UNL     1       1.128   3.299  16.947  0.00  0.00    +0.000 HD
ENDBRANCH   4  14
BRANCH   5  16
ATOM     16  O   UNL     1       1.333   1.745  18.594  0.00  0.00    +0.000 OA
ATOM     17  H   UNL     1       1.681   0.906  18.965  0.00  0.00    +0.000 HD
ENDBRANCH   5  16
BRANCH   6  18
ATOM     18  O   UNL     1       4.121   1.171  18.234  0.00  0.00    +0.000 OA
ATOM     19  H   UNL     1       3.449   0.694  18.763  0.00  0.00    +0.000 HD
ENDBRANCH   6  18
TORSDOF 6
ENDMDL
MODEL 8
REMARK VINA RESULT:      -5.3      1.645      2.574
REMARK  Name = 
REMARK  6 active torsions:
REMARK  status: ('A' for Active; 'I' for Inactive)
REMARK    1  A    between atoms: N_1  and  C_2
REMARK    2  A    between atoms: C_3  and  O_4
REMARK    3  A    between atoms: C_5  and  O_6
REMARK    4  A    between atoms: C_7  and  O_8
REMARK    5  A    between atoms: C_9  and  O_10
REMARK    6  A    between atoms: C_11  and  O_12
REMARK                            x       y       z     vdW  Elec       q    Type
REMARK                         _______ _______ _______ _____ _____    ______ ____
ROOT
ATOM      1  C   UNL     1       1.698   3.898  19.743  0.00  0.00    +0.000 C 
ATOM      2  C   UNL     1       2.235   4.088  18.311  0.00  0.00    +0.000 C 
ATOM      3  C   UNL     1       2.993   2.838  17.813  0.00  0.00    +0.000 C 
ATOM      4  C   UNL     1       4.115   2.422  18.779  0.00  0.00    +0.000 C 
ATOM      5  C   UNL     1       3.603   2.260  20.220  0.00  0.00    +0.000 C 
ATOM      6  C   UNL     1       2.832   3.500  20.708  0.00  0.00    +0.000 C 
ENDROOT
BRANCH   1   7
ATOM      7  N   UNL     1       0.620   2.870  19.762  0.00  0.00    +0.000 NA
ATOM      8  H   UNL     1       0.471   2.575  18.792  0.00  0.00    +0.000 HD
ATOM      9  H   UNL     1      -0.240   3.380  20.008  0.00  0.00    +0.000 HD
ENDBRANCH   1   7
BRANCH   2  10
ATOM     10  O   UNL     1       1.148   4.375  17.424  0.00  0.00    +0.000 OA
ATOM     11  H   UNL     1       1.362   3.918  16.580  0.00  0.00    +0.000 HD
ENDBRANCH   2  10
BRANCH   3  12
ATOM     12  O   UNL     1       2.058   1.761  17.636  0.00  0.00    +0.000 OA
ATOM     13  H   UNL     1       1.617   1.889  16.764  0.00  0.00    +0.000 HD
ENDBRANCH   3  12
BRANCH   4  14
ATOM     14  O   UNL     1       5.219   3.343  18.799  0.00  0.00    +0.000 OA
ATOM     15  H   UNL     1       5.047   4.098  18.211  0.00  0.00    +0.000 HD
ENDBRANCH   4  14
BRANCH   5  16
ATOM     16  O   UNL     1       4.708   2.040  21.115  0.00  0.00    +0.000 OA
ATOM     17  H   UNL     1       4.849   1.070  21.128  0.00  0.00    +0.000 HD
ENDBRANCH   5  16
BRANCH   6  18
ATOM     18  O   UNL     1       2.255   3.236  22.001  0.00  0.00    +0.000 OA
ATOM     19  H   UNL     1       1.437   3.772  22.045  0.00  0.00    +0.000 HD
ENDBRANCH   6  18
TORSDOF 6
ENDMDL
MODEL 9
REMARK VINA RESULT:      -5.3      1.746      3.029
REMARK  Name = 
REMARK  6 active torsions:
REMARK  status: ('A' for Active; 'I' for Inactive)
REMARK    1  A    between atoms: N_1  and  C_2
REMARK    2  A    between atoms: C_3  and  O_4
REMARK    3  A    between atoms: C_5  and  O_6
REMARK    4  A    between atoms: C_7  and  O_8
REMARK    5  A    between atoms: C_9  and  O_10
REMARK    6  A    between atoms: C_11  and  O_12
REMARK                            x       y       z     vdW  Elec       q    Type
REMARK                         _______ _______ _______ _____ _____    ______ ____
ROOT
ATOM      1  C   UNL     1       2.242   4.652  19.540  0.00  0.00    +0.000 C 
ATOM      2  C   UNL     1       1.676   3.232  19.735  0.00  0.00    +0.000 C 
ATOM      3  C   UNL     1       2.673   2.314  20.473  0.00  0.00    +0.000 C 
ATOM      4  C   UNL     1       4.044   2.277  19.778  0.00  0.00    +0.000 C 
ATOM      5  C   UNL     1       4.610   3.687  19.546  0.00  0.00    +0.000 C 
ATOM      6  C   UNL     1       3.607   4.606  18.826  0.00  0.00    +0.000 C 
ENDROOT
BRANCH   1   7
ATOM      7  N   UNL     1       2.370   5.346  20.852  0.00  0.00    +0.000 NA
ATOM      8  H   UNL     1       2.367   4.620  21.576  0.00  0.00    +0.000 HD
ATOM      9  H   UNL     1       1.478   5.844  20.987  0.00  0.00    +0.000 HD
ENDBRANCH   1   7
BRANCH   2  10
ATOM     10  O   UNL     1       0.450   3.301  20.473  0.00  0.00    +0.000 OA
ATOM     11  H   UNL     1      -0.268   3.319  19.801  0.00  0.00    +0.000 HD
ENDBRANCH   2  10
BRANCH   3  12
ATOM     12  O   UNL     1       2.811   2.765  21.831  0.00  0.00    +0.000 OA
ATOM     13  H   UNL     1       3.552   2.259  22.239  0.00  0.00    +0.000 HD
ENDBRANCH   3  12
BRANCH   4  14
ATOM     14  O   UNL     1       4.022   1.591  18.514  0.00  0.00    +0.000 OA
ATOM     15  H   UNL     1       3.124   1.587  18.141  0.00  0.00    +0.000 HD
ENDBRANCH   4  14
BRANCH   5  16
ATOM     16  O   UNL     1       5.803   3.615  18.745  0.00  0.00    +0.000 OA
ATOM     17  H   UNL     1       6.538   3.871  19.341  0.00  0.00    +0.000 HD
ENDBRANCH   5  16
BRANCH   6  18
ATOM     18  O   UNL     1       4.132   5.947  18.766  0.00  0.00    +0.000 OA
ATOM     19  H   UNL     1       3.767   6.414  19.545  0.00  0.00    +0.000 HD
ENDBRANCH   6  18
TORSDOF 6
ENDMDL
