MODEL 1
REMARK VINA RESULT:      -8.0      0.000      0.000
REMARK  Name = 
REMARK  1 active torsions:
REMARK  status: ('A' for Active; 'I' for Inactive)
REMARK    1  A    between atoms: N_9  and  C_10
REMARK                            x       y       z     vdW  Elec       q    Type
REMARK                         _______ _______ _______ _____ _____    ______ ____
ROOT
ATOM      1  O   UNL     1       0.509   2.123  18.321  0.00  0.00    +0.000 OA
ATOM      2  C   UNL     1       1.167   2.863  19.048  0.00  0.00    +0.000 C 
ATOM      3  C   UNL     1       0.695   3.300  20.417  0.00  0.00    +0.000 C 
ATOM      4  C   UNL     1       1.118   4.739  20.676  0.00  0.00    +0.000 C 
ATOM      5  C   UNL     1       2.636   4.868  20.615  0.00  0.00    +0.000 C 
ATOM      6  C   UNL     1       3.214   4.224  19.384  0.00  0.00    +0.000 A 
ATOM      7  N   UNL     1       4.473   4.579  19.064  0.00  0.00    +0.000 NA
ATOM      8  C   UNL     1       5.045   4.019  17.981  0.00  0.00    +0.000 A 
ATOM      9  N   UNL     1       6.370   4.336  17.682  0.00  0.00    +0.000 N 
ATOM     10  N   UNL     1       4.417   3.136  17.188  0.00  0.00    +0.000 NA
ATOM     11  C   UNL     1       3.150   2.800  17.532  0.00  0.00    +0.000 A 
ATOM     12  C   UNL     1       2.509   3.302  18.645  0.00  0.00    +0.000 A 
ATOM     13  H   UNL     1       6.652   3.847  16.841  0.00  0.00    +0.000 HD
ENDROOT
BRANCH   9  14
ATOM     14  C   UNL     1       6.983   5.590  17.859  0.00  0.00    +0.000 A 
ATOM     15  C   UNL     1       6.691   6.629  16.971  0.00  0.00    +0.000 A 
ATOM     16  C   UNL     1       7.271   7.891  17.131  0.00  0.00    +0.000 A 
ATOM     17  C   UNL     1       8.138   8.126  18.196  0.00  0.00    +0.000 A 
ATOM     18 CL   UNL     1       8.826   9.686  18.414  0.00  0.00    +0.000 Cl
ATOM     19  C   UNL     1       8.436   7.109  19.096  0.00  0.00    +0.000 A 
ATOM     20  C   UNL     1       7.859   5.848  18.926  0.00  0.00    +0.000 A 
ENDBRANCH   9  14
TORSDOF 1
ENDMDL
MODEL 2
REMARK VINA RESULT:      -7.9      0.148      1.115
REMARK  Name = 
REMARK  1 active torsions:
REMARK  status: ('A' for Active; 'I' for Inactive)
REMARK    1  A    between atoms: N_9  and  C_10
REMARK                            x       y       z     vdW  Elec       q    Type
REMARK                         _______ _______ _______ _____ _____    ______ ____
ROOT
ATOM      1  O   UNL     1       0.490   1.916  18.396  0.00  0.00    +0.000 OA
ATOM      2  C   UNL     1       1.120   2.701  19.098  0.00  0.00    +0.000 C 
ATOM      3  C   UNL     1       0.631   3.166  20.453  0.00  0.00    +0.000 C 
ATOM      4  C   UNL     1       1.003   4.626  20.664  0.00  0.00    +0.000 C 
ATOM      5  C   UNL     1       2.516   4.807  20.599  0.00  0.00    +0.000 C 
ATOM      6  C   UNL     1       3.118   4.144  19.390  0.00  0.00    +0.000 A 
ATOM      7  N   UNL     1       4.364   4.533  19.059  0.00  0.00    +0.000 NA
ATOM      8  C   UNL     1       4.957   3.958  17.994  0.00  0.00    +0.000 A 
ATOM      9  N   UNL     1       6.269   4.312  17.685  0.00  0.00    +0.000 N 
ATOM     10  N   UNL     1       4.361   3.028  17.231  0.00  0.00    +0.000 NA
ATOM     11  C   UNL     1       3.106   2.660  17.585  0.00  0.00    +0.000 A 
ATOM     12  C   UNL     1       2.446   3.174  18.681  0.00  0.00    +0.000 A 
ATOM     13  H   UNL     1       6.570   3.806  16.861  0.00  0.00    +0.000 HD
ENDROOT
BRANCH   9  14
ATOM     14  C   UNL     1       6.838   5.591  17.822  0.00  0.00    +0.000 A 
ATOM     15  C   UNL     1       7.779   5.820  18.830  0.00  0.00    +0.000 A 
ATOM     16  C   UNL     1       8.376   7.076  18.980  0.00  0.00    +0.000 A 
ATOM     17  C   UNL     1       8.046   8.110  18.107  0.00  0.00    +0.000 A 
ATOM     18 CL   UNL     1       8.802   9.645  18.269  0.00  0.00    +0.000 Cl
ATOM     19  C   UNL     1       7.118   7.901  17.092  0.00  0.00    +0.000 A 
ATOM     20  C   UNL     1       6.520   6.647  16.952  0.00  0.00    +0.000 A 
ENDBRANCH   9  14
TORSDOF 1
ENDMDL
MODEL 3
REMARK VINA RESULT:      -7.1      4.309      6.696
REMARK  Name = 
REMARK  1 active torsions:
REMARK  status: ('A' for Active; 'I' for Inactive)
REMARK    1  A    between atoms: N_9  and  C_10
REMARK                            x       y       z     vdW  Elec       q    Type
REMARK                         _______ _______ _______ _____ _____    ______ ____
ROOT
ATOM      1  O   UNL     1       8.262   5.789  12.786  0.00  0.00    +0.000 OA
ATOM      2  C   UNL     1       7.421   4.967  13.138  0.00  0.00    +0.000 C 
ATOM      3  C   UNL     1       6.776   3.991  12.178  0.00  0.00    +0.000 C 
ATOM      4  C   UNL     1       5.316   3.784  12.554  0.00  0.00    +0.000 C 
ATOM      5  C   UNL     1       5.202   3.229  13.970  0.00  0.00    +0.000 C 
ATOM      6  C   UNL     1       6.032   4.007  14.955  0.00  0.00    +0.000 A 
ATOM      7  N   UNL     1       5.735   3.824  16.256  0.00  0.00    +0.000 NA
ATOM      8  C   UNL     1       6.458   4.483  17.182  0.00  0.00    +0.000 A 
ATOM      9  N   UNL     1       6.195   4.248  18.531  0.00  0.00    +0.000 N 
ATOM     10  N   UNL     1       7.451   5.333  16.874  0.00  0.00    +0.000 NA
ATOM     11  C   UNL     1       7.725   5.501  15.558  0.00  0.00    +0.000 A 
ATOM     12  C   UNL     1       7.055   4.835  14.553  0.00  0.00    +0.000 A 
ATOM     13  H   UNL     1       6.810   4.819  19.098  0.00  0.00    +0.000 HD
ENDROOT
BRANCH   9  14
ATOM     14  C   UNL     1       4.932   4.010  19.101  0.00  0.00    +0.000 A 
ATOM     15  C   UNL     1       4.063   5.083  19.318  0.00  0.00    +0.000 A 
ATOM     16  C   UNL     1       2.793   4.876  19.867  0.00  0.00    +0.000 A 
ATOM     17  C   UNL     1       2.378   3.586  20.187  0.00  0.00    +0.000 A 
ATOM     18 CL   UNL     1       0.806   3.325  20.832  0.00  0.00    +0.000 Cl
ATOM     19  C   UNL     1       3.224   2.503  19.973  0.00  0.00    +0.000 A 
ATOM     20  C   UNL     1       4.493   2.717  19.432  0.00  0.00    +0.000 A 
ENDBRANCH   9  14
TORSDOF 1
ENDMDL
MODEL 4
REMARK VINA RESULT:      -7.1      4.350      6.789
REMARK  Name = 
REMARK  1 active torsions:
REMARK  status: ('A' for Active; 'I' for Inactive)
REMARK    1  A    between atoms: N_9  and  C_10
REMARK                            x       y       z     vdW  Elec       q    Type
REMARK                         _______ _______ _______ _____ _____    ______ ____
ROOT
ATOM      1  O   UNL     1       8.339   5.774  12.723  0.00  0.00    +0.000 OA
ATOM      2  C   UNL     1       7.480   4.964  13.059  0.00  0.00    +0.000 C 
ATOM      3  C   UNL     1       6.840   3.995  12.088  0.00  0.00    +0.000 C 
ATOM      4  C   UNL     1       5.371   3.809  12.434  0.00  0.00    +0.000 C 
ATOM      5  C   UNL     1       5.221   3.257  13.848  0.00  0.00    +0.000 C 
ATOM      6  C   UNL     1       6.041   4.025  14.849  0.00  0.00    +0.000 A 
ATOM      7  N   UNL     1       5.715   3.847  16.144  0.00  0.00    +0.000 NA
ATOM      8  C   UNL     1       6.428   4.498  17.083  0.00  0.00    +0.000 A 
ATOM      9  N   UNL     1       6.136   4.269  18.427  0.00  0.00    +0.000 N 
ATOM     10  N   UNL     1       7.439   5.334  16.795  0.00  0.00    +0.000 NA
ATOM     11  C   UNL     1       7.742   5.496  15.484  0.00  0.00    +0.000 A 
ATOM     12  C   UNL     1       7.083   4.839  14.467  0.00  0.00    +0.000 A 
ATOM     13  H   UNL     1       6.747   4.832  19.006  0.00  0.00    +0.000 HD
ENDROOT
BRANCH   9  14
ATOM     14  C   UNL     1       4.858   4.048  18.972  0.00  0.00    +0.000 A 
ATOM     15  C   UNL     1       4.441   2.740  19.237  0.00  0.00    +0.000 A 
ATOM     16  C   UNL     1       3.183   2.490  19.796  0.00  0.00    +0.000 A 
ATOM     17  C   UNL     1       2.339   3.553  20.109  0.00  0.00    +0.000 A 
ATOM     18 CL   UNL     1       0.806   3.249  20.826  0.00  0.00    +0.000 Cl
ATOM     19  C   UNL     1       2.737   4.861  19.860  0.00  0.00    +0.000 A 
ATOM     20  C   UNL     1       3.991   5.105  19.295  0.00  0.00    +0.000 A 
ENDBRANCH   9  14
TORSDOF 1
ENDMDL
MODEL 5
REMARK VINA RESULT:      -7.0      3.064      3.856
REMARK  Name = 
REMARK  1 active torsions:
REMARK  status: ('A' for Active; 'I' for Inactive)
REMARK    1  A    between atoms: N_9  and  C_10
REMARK                            x       y       z     vdW  Elec       q    Type
REMARK                         _______ _______ _______ _____ _____    ______ ____
ROOT
ATOM      1  O   UNL     1       2.408   2.496  21.886  0.00  0.00    +0.000 OA
ATOM      2  C   UNL     1       2.161   2.914  20.758  0.00  0.00    +0.000 C 
ATOM      3  C   UNL     1       0.751   3.105  20.244  0.00  0.00    +0.000 C 
ATOM      4  C   UNL     1       0.684   2.743  18.767  0.00  0.00    +0.000 C 
ATOM      5  C   UNL     1       1.627   3.626  17.957  0.00  0.00    +0.000 C 
ATOM      6  C   UNL     1       3.005   3.690  18.558  0.00  0.00    +0.000 A 
ATOM      7  N   UNL     1       3.983   4.145  17.751  0.00  0.00    +0.000 NA
ATOM      8  C   UNL     1       5.233   4.239  18.243  0.00  0.00    +0.000 A 
ATOM      9  N   UNL     1       6.236   4.768  17.432  0.00  0.00    +0.000 N 
ATOM     10  N   UNL     1       5.562   3.882  19.495  0.00  0.00    +0.000 NA
ATOM     11  C   UNL     1       4.559   3.424  20.283  0.00  0.00    +0.000 A 
ATOM     12  C   UNL     1       3.248   3.333  19.864  0.00  0.00    +0.000 A 
ATOM     13  H   UNL     1       7.114   4.765  17.936  0.00  0.00    +0.000 HD
ENDROOT
BRANCH   9  14
ATOM     14  C   UNL     1       6.363   4.585  16.042  0.00  0.00    +0.000 A 
ATOM     15  C   UNL     1       7.387   5.243  15.354  0.00  0.00    +0.000 A 
ATOM     16  C   UNL     1       7.550   5.067  13.976  0.00  0.00    +0.000 A 
ATOM     17  C   UNL     1       6.695   4.216  13.279  0.00  0.00    +0.000 A 
ATOM     18 CL   UNL     1       6.913   3.975  11.591  0.00  0.00    +0.000 Cl
ATOM     19  C   UNL     1       5.674   3.548  13.946  0.00  0.00    +0.000 A 
ATOM     20  C   UNL     1       5.512   3.732  15.321  0.00  0.00    +0.000 A 
ENDBRANCH   9  14
TORSDOF 1
ENDMDL
MODEL 6
REMARK VINA RESULT:      -6.9      4.030      6.203
REMARK  Name = 
REMARK  1 active torsions:
REMARK  status: ('A' for Active; 'I' for Inactive)
REMARK    1  A    between atoms: N_9  and  C_10
REMARK                            x       y       z     vdW  Elec       q    Type
REMARK                         _______ _______ _______ _____ _____    ______ ____
ROOT
ATOM      1  O   UNL     1       8.250   4.042  17.370  0.00  0.00    +0.000 OA
ATOM      2  C   UNL     1       7.258   4.512  16.821  0.00  0.00    +0.000 C 
ATOM      3  C   UNL     1       7.051   4.469  15.322  0.00  0.00    +0.000 C 
ATOM      4  C   UNL     1       6.373   5.750  14.857  0.00  0.00    +0.000 C 
ATOM      5  C   UNL     1       5.017   5.912  15.535  0.00  0.00    +0.000 C 
ATOM      6  C   UNL     1       5.097   5.715  17.024  0.00  0.00    +0.000 A 
ATOM      7  N   UNL     1       4.052   6.172  17.741  0.00  0.00    +0.000 NA
ATOM      8  C   UNL     1       4.065   6.006  19.077  0.00  0.00    +0.000 A 
ATOM      9  N   UNL     1       2.958   6.421  19.816  0.00  0.00    +0.000 N 
ATOM     10  N   UNL     1       5.078   5.423  19.738  0.00  0.00    +0.000 NA
ATOM     11  C   UNL     1       6.117   4.976  18.993  0.00  0.00    +0.000 A 
ATOM     12  C   UNL     1       6.162   5.077  17.618  0.00  0.00    +0.000 A 
ATOM     13  H   UNL     1       3.120   6.238  20.799  0.00  0.00    +0.000 HD
ENDROOT
BRANCH   9  14
ATOM     14  C   UNL     1       2.167   7.556  19.558  0.00  0.00    +0.000 A 
ATOM     15  C   UNL     1       1.451   8.145  20.605  0.00  0.00    +0.000 A 
ATOM     16  C   UNL     1       0.670   9.284  20.385  0.00  0.00    +0.000 A 
ATOM     17  C   UNL     1       0.614   9.852  19.114  0.00  0.00    +0.000 A 
ATOM     18 CL   UNL     1      -0.320  11.271  18.848  0.00  0.00    +0.000 Cl
ATOM     19  C   UNL     1       1.324   9.286  18.061  0.00  0.00    +0.000 A 
ATOM     20  C   UNL     1       2.096   8.144  18.285  0.00  0.00    +0.000 A 
ENDBRANCH   9  14
TORSDOF 1
ENDMDL
MODEL 7
REMARK VINA RESULT:      -6.8      4.028      6.140
REMARK  Name = 
REMARK  1 active torsions:
REMARK  status: ('A' for Active; 'I' for Inactive)
REMARK    1  A    between atoms: N_9  and  C_10
REMARK                            x       y       z     vdW  Elec       q    Type
REMARK                         _______ _______ _______ _____ _____    ______ ____
ROOT
ATOM      1  O   UNL     1       8.234   4.023  17.369  0.00  0.00    +0.000 OA
ATOM      2  C   UNL     1       7.257   4.525  16.821  0.00  0.00    +0.000 C 
ATOM      3  C   UNL     1       7.072   4.531  15.319  0.00  0.00    +0.000 C 
ATOM      4  C   UNL     1       6.422   5.836  14.883  0.00  0.00    +0.000 C 
ATOM      5  C   UNL     1       5.059   6.003  15.547  0.00  0.00    +0.000 C 
ATOM      6  C   UNL     1       5.115   5.759  17.031  0.00  0.00    +0.000 A 
ATOM      7  N   UNL     1       4.068   6.213  17.746  0.00  0.00    +0.000 NA
ATOM      8  C   UNL     1       4.059   6.007  19.077  0.00  0.00    +0.000 A 
ATOM      9  N   UNL     1       2.949   6.420  19.812  0.00  0.00    +0.000 N 
ATOM     10  N   UNL     1       5.052   5.387  19.734  0.00  0.00    +0.000 NA
ATOM     11  C   UNL     1       6.094   4.945  18.990  0.00  0.00    +0.000 A 
ATOM     12  C   UNL     1       6.160   5.085  17.620  0.00  0.00    +0.000 A 
ATOM     13  H   UNL     1       3.094   6.204  20.791  0.00  0.00    +0.000 HD
ENDROOT
BRANCH   9  14
ATOM     14  C   UNL     1       2.180   7.575  19.578  0.00  0.00    +0.000 A 
ATOM     15  C   UNL     1       2.126   8.114  18.289  0.00  0.00    +0.000 A 
ATOM     16  C   UNL     1       1.357   9.250  18.021  0.00  0.00    +0.000 A 
ATOM     17  C   UNL     1       0.621   9.847  19.043  0.00  0.00    +0.000 A 
ATOM     18 CL   UNL     1      -0.351  11.225  18.708  0.00  0.00    +0.000 Cl
ATOM     19  C   UNL     1       0.655   9.322  20.330  0.00  0.00    +0.000 A 
ATOM     20  C   UNL     1       1.431   8.191  20.593  0.00  0.00    +0.000 A 
ENDBRANCH   9  14
TORSDOF 1
ENDMDL
MODEL 8
REMARK VINA RESULT:      -6.8      3.025      3.794
REMARK  Name = 
REMARK  1 active torsions:
REMARK  status: ('A' for Active; 'I' for Inactive)
REMARK    1  A    between atoms: N_9  and  C_10
REMARK                            x       y       z     vdW  Elec       q    Type
REMARK                         _______ _______ _______ _____ _____    ______ ____
ROOT
ATOM      1  O   UNL     1       2.297   2.468  21.920  0.00  0.00    +0.000 OA
ATOM      2  C   UNL     1       2.086   2.897  20.789  0.00  0.00    +0.000 C 
ATOM      3  C   UNL     1       0.693   3.114  20.240  0.00  0.00    +0.000 C 
ATOM      4  C   UNL     1       0.659   2.763  18.760  0.00  0.00    +0.000 C 
ATOM      5  C   UNL     1       1.636   3.636  17.981  0.00  0.00    +0.000 C 
ATOM      6  C   UNL     1       2.999   3.674  18.617  0.00  0.00    +0.000 A 
ATOM      7  N   UNL     1       4.005   4.118  17.839  0.00  0.00    +0.000 NA
ATOM      8  C   UNL     1       5.243   4.188  18.364  0.00  0.00    +0.000 A 
ATOM      9  N   UNL     1       6.275   4.706  17.583  0.00  0.00    +0.000 N 
ATOM     10  N   UNL     1       5.533   3.818  19.622  0.00  0.00    +0.000 NA
ATOM     11  C   UNL     1       4.502   3.371  20.380  0.00  0.00    +0.000 A 
ATOM     12  C   UNL     1       3.202   3.304  19.927  0.00  0.00    +0.000 A 
ATOM     13  H   UNL     1       7.140   4.686  18.110  0.00  0.00    +0.000 HD
ENDROOT
BRANCH   9  14
ATOM     14  C   UNL     1       6.434   4.531  16.196  0.00  0.00    +0.000 A 
ATOM     15  C   UNL     1       5.644   3.592  15.527  0.00  0.00    +0.000 A 
ATOM     16  C   UNL     1       5.766   3.408  14.146  0.00  0.00    +0.000 A 
ATOM     17  C   UNL     1       6.673   4.178  13.421  0.00  0.00    +0.000 A 
ATOM     18 CL   UNL     1       6.802   3.976  11.719  0.00  0.00    +0.000 Cl
ATOM     19  C   UNL     1       7.463   5.123  14.066  0.00  0.00    +0.000 A 
ATOM     20  C   UNL     1       7.342   5.297  15.446  0.00  0.00    +0.000 A 
ENDBRANCH   9  14
TORSDOF 1
ENDMDL
MODEL 9
REMARK VINA RESULT:      -6.7      4.447      6.105
REMARK  Name = 
REMARK  1 active torsions:
REMARK  status: ('A' for Active; 'I' for Inactive)
REMARK    1  A    between atoms: N_9  and  C_10
REMARK                            x       y       z     vdW  Elec       q    Type
REMARK                         _______ _______ _______ _____ _____    ______ ____
ROOT
ATOM      1  O   UNL     1       2.859   2.467  17.510  0.00  0.00    +0.000 OA
ATOM      2  C   UNL     1       2.631   2.904  18.635  0.00  0.00    +0.000 C 
ATOM      3  C   UNL     1       2.633   2.030  19.870  0.00  0.00    +0.000 C 
ATOM      4  C   UNL     1       1.548   2.491  20.832  0.00  0.00    +0.000 C 
ATOM      5  C   UNL     1       1.786   3.937  21.253  0.00  0.00    +0.000 C 
ATOM      6  C   UNL     1       2.047   4.837  20.075  0.00  0.00    +0.000 A 
ATOM      7  N   UNL     1       1.922   6.160  20.300  0.00  0.00    +0.000 NA
ATOM      8  C   UNL     1       2.161   7.012  19.285  0.00  0.00    +0.000 A 
ATOM      9  N   UNL     1       2.094   8.382  19.529  0.00  0.00    +0.000 N 
ATOM     10  N   UNL     1       2.500   6.610  18.049  0.00  0.00    +0.000 NA
ATOM     11  C   UNL     1       2.614   5.274  17.851  0.00  0.00    +0.000 A 
ATOM     12  C   UNL     1       2.421   4.341  18.847  0.00  0.00    +0.000 A 
ATOM     13  H   UNL     1       2.289   8.887  18.673  0.00  0.00    +0.000 HD
ENDROOT
BRANCH   9  14
ATOM     14  C   UNL     1       1.192   9.029  20.393  0.00  0.00    +0.000 A 
ATOM     15  C   UNL     1       1.255   8.775  21.767  0.00  0.00    +0.000 A 
ATOM     16  C   UNL     1       0.383   9.416  22.654  0.00  0.00    +0.000 A 
ATOM     17  C   UNL     1      -0.549  10.331  22.170  0.00  0.00    +0.000 A 
ATOM     18 CL   UNL     1      -1.600  11.143  23.261  0.00  0.00    +0.000 Cl
ATOM     19  C   UNL     1      -0.624  10.603  20.808  0.00  0.00    +0.000 A 
ATOM     20  C   UNL     1       0.244   9.954  19.927  0.00  0.00    +0.000 A 
ENDBRANCH   9  14
TORSDOF 1
ENDMDL
