MODEL 1
REMARK VINA RESULT:      -7.4      0.000      0.000
REMARK  Name = 
REMARK  4 active torsions:
REMARK  status: ('A' for Active; 'I' for Inactive)
REMARK    1  A    between atoms: C_1  and  C_2
REMARK    2  A    between atoms: C_5  and  N_6
REMARK    3  A    between atoms: C_7  and  C_8
REMARK    4  A    between atoms: N_14  and  C_15
REMARK                            x       y       z     vdW  Elec       q    Type
REMARK                         _______ _______ _______ _____ _____    ______ ____
ROOT
ATOM      1  N   UNL     1       1.067   9.100  19.747  0.00  0.00    +0.000 N 
ATOM      2  C   UNL     1       1.964   9.036  18.670  0.00  0.00    +0.000 A 
ATOM      3  C   UNL     1       2.143  10.229  17.748  0.00  0.00    +0.000 C 
ATOM      4  N   UNL     1       2.729   8.011  18.404  0.00  0.00    +0.000 NA
ATOM      5  C   UNL     1       2.607   6.965  19.255  0.00  0.00    +0.000 A 
ATOM      6  C   UNL     1       1.772   6.911  20.339  0.00  0.00    +0.000 A 
ATOM      7  C   UNL     1       1.923   5.640  20.884  0.00  0.00    +0.000 A 
ATOM      8  N   UNL     1       2.812   4.910  20.207  0.00  0.00    +0.000 NA
ATOM      9  N   UNL     1       3.280   5.743  19.222  0.00  0.00    +0.000 N 
ATOM     10  C   UNL     1       0.950   8.036  20.673  0.00  0.00    +0.000 A 
ATOM     11  O   UNL     1       0.221   8.014  21.658  0.00  0.00    +0.000 OA
ENDROOT
BRANCH   1  16
ATOM     12  C   UNL     1      -2.367  13.607  20.654  0.00  0.00    +0.000 C 
ATOM     13  C   UNL     1      -1.461  12.439  20.399  0.00  0.00    +0.000 A 
ATOM     14  C   UNL     1      -1.803  11.461  19.460  0.00  0.00    +0.000 A 
ATOM     15  C   UNL     1      -0.960  10.371  19.235  0.00  0.00    +0.000 A 
ATOM     16  C   UNL     1       0.227  10.231  19.965  0.00  0.00    +0.000 A 
ATOM     17  C   UNL     1       0.585  11.221  20.888  0.00  0.00    +0.000 A 
ATOM     18  C   UNL     1      -0.255  12.319  21.102  0.00  0.00    +0.000 A 
ENDBRANCH   1  16
BRANCH   9  19
ATOM     19  C   UNL     1       4.330   5.300  18.361  0.00  0.00    +0.000 A 
ATOM     20  C   UNL     1       5.659   5.357  18.821  0.00  0.00    +0.000 A 
ATOM     21  C   UNL     1       6.712   4.949  17.998  0.00  0.00    +0.000 A 
ATOM     22  C   UNL     1       6.441   4.493  16.716  0.00  0.00    +0.000 A 
ATOM     23  F   UNL     1       7.450   4.109  15.923  0.00  0.00    +0.000 F 
ATOM     24  C   UNL     1       5.136   4.432  16.242  0.00  0.00    +0.000 A 
ATOM     25  C   UNL     1       4.078   4.832  17.063  0.00  0.00    +0.000 A 
ENDBRANCH   9  19
TORSDOF 2
ENDMDL
MODEL 2
REMARK VINA RESULT:      -7.4      0.664      1.452
REMARK  Name = 
REMARK  4 active torsions:
REMARK  status: ('A' for Active; 'I' for Inactive)
REMARK    1  A    between atoms: C_1  and  C_2
REMARK    2  A    between atoms: C_5  and  N_6
REMARK    3  A    between atoms: C_7  and  C_8
REMARK    4  A    between atoms: N_14  and  C_15
REMARK                            x       y       z     vdW  Elec       q    Type
REMARK                         _______ _______ _______ _____ _____    ______ ____
ROOT
ATOM      1  N   UNL     1       1.259   9.064  19.632  0.00  0.00    +0.000 N 
ATOM      2  C   UNL     1       2.076   9.125  18.492  0.00  0.00    +0.000 A 
ATOM      3  C   UNL     1       2.142  10.394  17.662  0.00  0.00    +0.000 C 
ATOM      4  N   UNL     1       2.856   8.158  18.089  0.00  0.00    +0.000 NA
ATOM      5  C   UNL     1       2.836   7.043  18.857  0.00  0.00    +0.000 A 
ATOM      6  C   UNL     1       2.086   6.867  19.989  0.00  0.00    +0.000 A 
ATOM      7  C   UNL     1       2.324   5.564  20.415  0.00  0.00    +0.000 A 
ATOM      8  N   UNL     1       3.186   4.928  19.619  0.00  0.00    +0.000 NA
ATOM      9  N   UNL     1       3.549   5.857  18.675  0.00  0.00    +0.000 N 
ATOM     10  C   UNL     1       1.251   7.926  20.473  0.00  0.00    +0.000 A 
ATOM     11  O   UNL     1       0.598   7.795  21.502  0.00  0.00    +0.000 OA
ENDROOT
BRANCH   1  16
ATOM     12  C   UNL     1      -2.158  13.436  21.092  0.00  0.00    +0.000 C 
ATOM     13  C   UNL     1      -1.272  12.282  20.728  0.00  0.00    +0.000 A 
ATOM     14  C   UNL     1      -0.034  12.105  21.355  0.00  0.00    +0.000 A 
ATOM     15  C   UNL     1       0.790  11.034  21.004  0.00  0.00    +0.000 A 
ATOM     16  C   UNL     1       0.398  10.138  20.002  0.00  0.00    +0.000 A 
ATOM     17  C   UNL     1      -0.851  10.297  19.389  0.00  0.00    +0.000 A 
ATOM     18  C   UNL     1      -1.680  11.363  19.753  0.00  0.00    +0.000 A 
ENDBRANCH   1  16
BRANCH   9  19
ATOM     19  C   UNL     1       4.548   5.528  17.708  0.00  0.00    +0.000 A 
ATOM     20  C   UNL     1       4.320   4.452  16.830  0.00  0.00    +0.000 A 
ATOM     21  C   UNL     1       5.283   4.091  15.885  0.00  0.00    +0.000 A 
ATOM     22  C   UNL     1       6.477   4.798  15.822  0.00  0.00    +0.000 A 
ATOM     23  F   UNL     1       7.405   4.448  14.922  0.00  0.00    +0.000 F 
ATOM     24  C   UNL     1       6.723   5.860  16.683  0.00  0.00    +0.000 A 
ATOM     25  C   UNL     1       5.759   6.230  17.626  0.00  0.00    +0.000 A 
ENDBRANCH   9  19
TORSDOF 2
ENDMDL
MODEL 3
REMARK VINA RESULT:      -7.3      2.362      3.625
REMARK  Name = 
REMARK  4 active torsions:
REMARK  status: ('A' for Active; 'I' for Inactive)
REMARK    1  A    between atoms: C_1  and  C_2
REMARK    2  A    between atoms: C_5  and  N_6
REMARK    3  A    between atoms: C_7  and  C_8
REMARK    4  A    between atoms: N_14  and  C_15
REMARK                            x       y       z     vdW  Elec       q    Type
REMARK                         _______ _______ _______ _____ _____    ______ ____
ROOT
ATOM      1  N   UNL     1       0.169  10.785  20.855  0.00  0.00    +0.000 N 
ATOM      2  C   UNL     1       0.440   9.662  21.654  0.00  0.00    +0.000 A 
ATOM      3  C   UNL     1      -0.040   9.610  23.093  0.00  0.00    +0.000 C 
ATOM      4  N   UNL     1       1.057   8.589  21.237  0.00  0.00    +0.000 NA
ATOM      5  C   UNL     1       1.443   8.614  19.938  0.00  0.00    +0.000 A 
ATOM      6  C   UNL     1       1.233   9.646  19.063  0.00  0.00    +0.000 A 
ATOM      7  C   UNL     1       1.844   9.275  17.870  0.00  0.00    +0.000 A 
ATOM      8  N   UNL     1       2.408   8.069  17.953  0.00  0.00    +0.000 NA
ATOM      9  N   UNL     1       2.121   7.628  19.221  0.00  0.00    +0.000 N 
ATOM     10  C   UNL     1       0.526  10.818  19.487  0.00  0.00    +0.000 A 
ATOM     11  O   UNL     1       0.303  11.737  18.706  0.00  0.00    +0.000 OA
ENDROOT
BRANCH   1  16
ATOM     12  C   UNL     1      -2.444  15.414  23.015  0.00  0.00    +0.000 C 
ATOM     13  C   UNL     1      -1.765  14.212  22.430  0.00  0.00    +0.000 A 
ATOM     14  C   UNL     1      -2.511  13.119  21.975  0.00  0.00    +0.000 A 
ATOM     15  C   UNL     1      -1.872  11.999  21.441  0.00  0.00    +0.000 A 
ATOM     16  C   UNL     1      -0.474  11.945  21.377  0.00  0.00    +0.000 A 
ATOM     17  C   UNL     1       0.275  13.047  21.808  0.00  0.00    +0.000 A 
ATOM     18  C   UNL     1      -0.368  14.173  22.330  0.00  0.00    +0.000 A 
ENDBRANCH   1  16
BRANCH   9  19
ATOM     19  C   UNL     1       2.504   6.310  19.615  0.00  0.00    +0.000 A 
ATOM     20  C   UNL     1       3.671   5.746  19.066  0.00  0.00    +0.000 A 
ATOM     21  C   UNL     1       4.065   4.452  19.414  0.00  0.00    +0.000 A 
ATOM     22  C   UNL     1       3.291   3.717  20.303  0.00  0.00    +0.000 A 
ATOM     23  F   UNL     1       3.663   2.473  20.632  0.00  0.00    +0.000 F 
ATOM     24  C   UNL     1       2.134   4.254  20.852  0.00  0.00    +0.000 A 
ATOM     25  C   UNL     1       1.738   5.552  20.513  0.00  0.00    +0.000 A 
ENDBRANCH   9  19
TORSDOF 2
ENDMDL
MODEL 4
REMARK VINA RESULT:      -7.2      2.401      3.760
REMARK  Name = 
REMARK  4 active torsions:
REMARK  status: ('A' for Active; 'I' for Inactive)
REMARK    1  A    between atoms: C_1  and  C_2
REMARK    2  A    between atoms: C_5  and  N_6
REMARK    3  A    between atoms: C_7  and  C_8
REMARK    4  A    between atoms: N_14  and  C_15
REMARK                            x       y       z     vdW  Elec       q    Type
REMARK                         _______ _______ _______ _____ _____    ______ ____
ROOT
ATOM      1  N   UNL     1       0.143  10.740  20.837  0.00  0.00    +0.000 N 
ATOM      2  C   UNL     1       0.414   9.615  21.631  0.00  0.00    +0.000 A 
ATOM      3  C   UNL     1      -0.071   9.554  23.068  0.00  0.00    +0.000 C 
ATOM      4  N   UNL     1       1.036   8.546  21.212  0.00  0.00    +0.000 NA
ATOM      5  C   UNL     1       1.427   8.578  19.915  0.00  0.00    +0.000 A 
ATOM      6  C   UNL     1       1.217   9.614  19.044  0.00  0.00    +0.000 A 
ATOM      7  C   UNL     1       1.834   9.251  17.851  0.00  0.00    +0.000 A 
ATOM      8  N   UNL     1       2.402   8.046  17.931  0.00  0.00    +0.000 NA
ATOM      9  N   UNL     1       2.111   7.598  19.196  0.00  0.00    +0.000 N 
ATOM     10  C   UNL     1       0.504  10.782  19.470  0.00  0.00    +0.000 A 
ATOM     11  O   UNL     1       0.282  11.703  18.693  0.00  0.00    +0.000 OA
ENDROOT
BRANCH   1  16
ATOM     12  C   UNL     1      -2.445  15.434  22.888  0.00  0.00    +0.000 C 
ATOM     13  C   UNL     1      -1.765  14.200  22.373  0.00  0.00    +0.000 A 
ATOM     14  C   UNL     1      -0.370  14.126  22.308  0.00  0.00    +0.000 A 
ATOM     15  C   UNL     1       0.256  12.978  21.818  0.00  0.00    +0.000 A 
ATOM     16  C   UNL     1      -0.506  11.896  21.362  0.00  0.00    +0.000 A 
ATOM     17  C   UNL     1      -1.903  11.956  21.449  0.00  0.00    +0.000 A 
ATOM     18  C   UNL     1      -2.526  13.101  21.952  0.00  0.00    +0.000 A 
ENDBRANCH   1  16
BRANCH   9  19
ATOM     19  C   UNL     1       2.497   6.279  19.584  0.00  0.00    +0.000 A 
ATOM     20  C   UNL     1       1.710   5.587  20.523  0.00  0.00    +0.000 A 
ATOM     21  C   UNL     1       2.069   4.302  20.941  0.00  0.00    +0.000 A 
ATOM     22  C   UNL     1       3.217   3.713  20.429  0.00  0.00    +0.000 A 
ATOM     23  F   UNL     1       3.567   2.485  20.833  0.00  0.00    +0.000 F 
ATOM     24  C   UNL     1       4.010   4.382  19.504  0.00  0.00    +0.000 A 
ATOM     25  C   UNL     1       3.651   5.664  19.078  0.00  0.00    +0.000 A 
ENDBRANCH   9  19
TORSDOF 2
ENDMDL
MODEL 5
REMARK VINA RESULT:      -7.1      1.028      1.190
REMARK  Name = 
REMARK  4 active torsions:
REMARK  status: ('A' for Active; 'I' for Inactive)
REMARK    1  A    between atoms: C_1  and  C_2
REMARK    2  A    between atoms: C_5  and  N_6
REMARK    3  A    between atoms: C_7  and  C_8
REMARK    4  A    between atoms: N_14  and  C_15
REMARK                            x       y       z     vdW  Elec       q    Type
REMARK                         _______ _______ _______ _____ _____    ______ ____
ROOT
ATOM      1  N   UNL     1       1.107   9.578  19.821  0.00  0.00    +0.000 N 
ATOM      2  C   UNL     1       1.785   9.518  18.593  0.00  0.00    +0.000 A 
ATOM      3  C   UNL     1       1.861  10.742  17.698  0.00  0.00    +0.000 C 
ATOM      4  N   UNL     1       2.425   8.469  18.151  0.00  0.00    +0.000 NA
ATOM      5  C   UNL     1       2.400   7.391  18.971  0.00  0.00    +0.000 A 
ATOM      6  C   UNL     1       1.777   7.330  20.190  0.00  0.00    +0.000 A 
ATOM      7  C   UNL     1       1.950   6.029  20.650  0.00  0.00    +0.000 A 
ATOM      8  N   UNL     1       2.653   5.285  19.793  0.00  0.00    +0.000 NA
ATOM      9  N   UNL     1       2.980   6.139  18.768  0.00  0.00    +0.000 N 
ATOM     10  C   UNL     1       1.101   8.480  20.713  0.00  0.00    +0.000 A 
ATOM     11  O   UNL     1       0.566   8.449  21.815  0.00  0.00    +0.000 OA
ENDROOT
BRANCH   1  16
ATOM     12  C   UNL     1      -1.815  14.212  21.529  0.00  0.00    +0.000 C 
ATOM     13  C   UNL     1      -1.049  13.010  21.062  0.00  0.00    +0.000 A 
ATOM     14  C   UNL     1      -1.682  11.995  20.336  0.00  0.00    +0.000 A 
ATOM     15  C   UNL     1      -0.965  10.874  19.913  0.00  0.00    +0.000 A 
ATOM     16  C   UNL     1       0.392  10.740  20.233  0.00  0.00    +0.000 A 
ATOM     17  C   UNL     1       1.035  11.765  20.938  0.00  0.00    +0.000 A 
ATOM     18  C   UNL     1       0.318  12.893  21.348  0.00  0.00    +0.000 A 
ENDBRANCH   1  16
BRANCH   9  19
ATOM     19  C   UNL     1       3.825   5.682  17.711  0.00  0.00    +0.000 A 
ATOM     20  C   UNL     1       3.837   4.312  17.391  0.00  0.00    +0.000 A 
ATOM     21  C   UNL     1       4.665   3.827  16.375  0.00  0.00    +0.000 A 
ATOM     22  C   UNL     1       5.487   4.708  15.685  0.00  0.00    +0.000 A 
ATOM     23  F   UNL     1       6.288   4.245  14.716  0.00  0.00    +0.000 F 
ATOM     24  C   UNL     1       5.493   6.064  15.989  0.00  0.00    +0.000 A 
ATOM     25  C   UNL     1       4.661   6.555  17.000  0.00  0.00    +0.000 A 
ENDBRANCH   9  19
TORSDOF 2
ENDMDL
MODEL 6
REMARK VINA RESULT:      -7.1      2.417      4.005
REMARK  Name = 
REMARK  4 active torsions:
REMARK  status: ('A' for Active; 'I' for Inactive)
REMARK    1  A    between atoms: C_1  and  C_2
REMARK    2  A    between atoms: C_5  and  N_6
REMARK    3  A    between atoms: C_7  and  C_8
REMARK    4  A    between atoms: N_14  and  C_15
REMARK                            x       y       z     vdW  Elec       q    Type
REMARK                         _______ _______ _______ _____ _____    ______ ____
ROOT
ATOM      1  N   UNL     1      -0.384  11.085  21.434  0.00  0.00    +0.000 N 
ATOM      2  C   UNL     1       0.168   9.923  21.996  0.00  0.00    +0.000 A 
ATOM      3  C   UNL     1      -0.052   9.601  23.463  0.00  0.00    +0.000 C 
ATOM      4  N   UNL     1       0.846   9.028  21.328  0.00  0.00    +0.000 NA
ATOM      5  C   UNL     1       1.000   9.289  20.008  0.00  0.00    +0.000 A 
ATOM      6  C   UNL     1       0.507  10.383  19.348  0.00  0.00    +0.000 A 
ATOM      7  C   UNL     1       0.954  10.279  18.035  0.00  0.00    +0.000 A 
ATOM      8  N   UNL     1       1.683   9.178  17.841  0.00  0.00    +0.000 NA
ATOM      9  N   UNL     1       1.675   8.529  19.052  0.00  0.00    +0.000 N 
ATOM     10  C   UNL     1      -0.271  11.359  20.051  0.00  0.00    +0.000 A 
ATOM     11  O   UNL     1      -0.745  12.327  19.467  0.00  0.00    +0.000 OA
ENDROOT
BRANCH   1  16
ATOM     12  C   UNL     1      -3.196  14.906  24.662  0.00  0.00    +0.000 C 
ATOM     13  C   UNL     1      -2.471  13.915  23.800  0.00  0.00    +0.000 A 
ATOM     14  C   UNL     1      -3.098  12.737  23.381  0.00  0.00    +0.000 A 
ATOM     15  C   UNL     1      -2.414  11.815  22.587  0.00  0.00    +0.000 A 
ATOM     16  C   UNL     1      -1.082  12.046  22.221  0.00  0.00    +0.000 A 
ATOM     17  C   UNL     1      -0.459  13.236  22.617  0.00  0.00    +0.000 A 
ATOM     18  C   UNL     1      -1.151  14.165  23.401  0.00  0.00    +0.000 A 
ENDBRANCH   1  16
BRANCH   9  19
ATOM     19  C   UNL     1       2.295   7.248  19.171  0.00  0.00    +0.000 A 
ATOM     20  C   UNL     1       1.932   6.412  20.243  0.00  0.00    +0.000 A 
ATOM     21  C   UNL     1       2.532   5.160  20.401  0.00  0.00    +0.000 A 
ATOM     22  C   UNL     1       3.500   4.747  19.496  0.00  0.00    +0.000 A 
ATOM     23  F   UNL     1       4.082   3.551  19.650  0.00  0.00    +0.000 F 
ATOM     24  C   UNL     1       3.876   5.560  18.434  0.00  0.00    +0.000 A 
ATOM     25  C   UNL     1       3.274   6.811  18.267  0.00  0.00    +0.000 A 
ENDBRANCH   9  19
TORSDOF 2
ENDMDL
MODEL 7
REMARK VINA RESULT:      -7.0      2.439      4.174
REMARK  Name = 
REMARK  4 active torsions:
REMARK  status: ('A' for Active; 'I' for Inactive)
REMARK    1  A    between atoms: C_1  and  C_2
REMARK    2  A    between atoms: C_5  and  N_6
REMARK    3  A    between atoms: C_7  and  C_8
REMARK    4  A    between atoms: N_14  and  C_15
REMARK                            x       y       z     vdW  Elec       q    Type
REMARK                         _______ _______ _______ _____ _____    ______ ____
ROOT
ATOM      1  N   UNL     1      -0.455  11.185  21.483  0.00  0.00    +0.000 N 
ATOM      2  C   UNL     1       0.141  10.027  22.007  0.00  0.00    +0.000 A 
ATOM      3  C   UNL     1      -0.039   9.666  23.471  0.00  0.00    +0.000 C 
ATOM      4  N   UNL     1       0.830   9.167  21.305  0.00  0.00    +0.000 NA
ATOM      5  C   UNL     1       0.949   9.462  19.989  0.00  0.00    +0.000 A 
ATOM      6  C   UNL     1       0.412  10.556  19.364  0.00  0.00    +0.000 A 
ATOM      7  C   UNL     1       0.833  10.495  18.040  0.00  0.00    +0.000 A 
ATOM      8  N   UNL     1       1.589   9.420  17.807  0.00  0.00    +0.000 NA
ATOM      9  N   UNL     1       1.626   8.745  19.002  0.00  0.00    +0.000 N 
ATOM     10  C   UNL     1      -0.379  11.494  20.105  0.00  0.00    +0.000 A 
ATOM     11  O   UNL     1      -0.892  12.461  19.553  0.00  0.00    +0.000 OA
ENDROOT
BRANCH   1  16
ATOM     12  C   UNL     1      -3.306  14.953  24.740  0.00  0.00    +0.000 C 
ATOM     13  C   UNL     1      -2.550  13.960  23.907  0.00  0.00    +0.000 A 
ATOM     14  C   UNL     1      -1.231  14.210  23.517  0.00  0.00    +0.000 A 
ATOM     15  C   UNL     1      -0.537  13.286  22.734  0.00  0.00    +0.000 A 
ATOM     16  C   UNL     1      -1.163  12.108  22.307  0.00  0.00    +0.000 A 
ATOM     17  C   UNL     1      -2.476  11.843  22.716  0.00  0.00    +0.000 A 
ATOM     18  C   UNL     1      -3.163  12.764  23.512  0.00  0.00    +0.000 A 
ENDBRANCH   1  16
BRANCH   9  19
ATOM     19  C   UNL     1       2.284   7.480  19.079  0.00  0.00    +0.000 A 
ATOM     20  C   UNL     1       3.175   7.110  18.054  0.00  0.00    +0.000 A 
ATOM     21  C   UNL     1       3.821   5.872  18.088  0.00  0.00    +0.000 A 
ATOM     22  C   UNL     1       3.572   5.000  19.138  0.00  0.00    +0.000 A 
ATOM     23  F   UNL     1       4.185   3.809  19.169  0.00  0.00    +0.000 F 
ATOM     24  C   UNL     1       2.693   5.343  20.157  0.00  0.00    +0.000 A 
ATOM     25  C   UNL     1       2.049   6.584  20.132  0.00  0.00    +0.000 A 
ENDBRANCH   9  19
TORSDOF 2
ENDMDL
MODEL 8
REMARK VINA RESULT:      -7.0      3.094      3.986
REMARK  Name = 
REMARK  4 active torsions:
REMARK  status: ('A' for Active; 'I' for Inactive)
REMARK    1  A    between atoms: C_1  and  C_2
REMARK    2  A    between atoms: C_5  and  N_6
REMARK    3  A    between atoms: C_7  and  C_8
REMARK    4  A    between atoms: N_14  and  C_15
REMARK                            x       y       z     vdW  Elec       q    Type
REMARK                         _______ _______ _______ _____ _____    ______ ____
ROOT
ATOM      1  N   UNL     1       1.242  10.332  19.313  0.00  0.00    +0.000 N 
ATOM      2  C   UNL     1       0.809   9.438  20.305  0.00  0.00    +0.000 A 
ATOM      3  C   UNL     1      -0.110   9.911  21.417  0.00  0.00    +0.000 C 
ATOM      4  N   UNL     1       1.101   8.165  20.332  0.00  0.00    +0.000 NA
ATOM      5  C   UNL     1       1.879   7.730  19.312  0.00  0.00    +0.000 A 
ATOM      6  C   UNL     1       2.360   8.504  18.289  0.00  0.00    +0.000 A 
ATOM      7  C   UNL     1       3.158   7.670  17.513  0.00  0.00    +0.000 A 
ATOM      8  N   UNL     1       3.189   6.424  17.989  0.00  0.00    +0.000 NA
ATOM      9  N   UNL     1       2.356   6.440  19.081  0.00  0.00    +0.000 N 
ATOM     10  C   UNL     1       2.023   9.895  18.217  0.00  0.00    +0.000 A 
ATOM     11  O   UNL     1       2.420  10.593  17.291  0.00  0.00    +0.000 OA
ENDROOT
BRANCH   1  16
ATOM     12  C   UNL     1       0.025  15.938  19.450  0.00  0.00    +0.000 C 
ATOM     13  C   UNL     1       0.334  14.470  19.434  0.00  0.00    +0.000 A 
ATOM     14  C   UNL     1       1.447  13.966  20.114  0.00  0.00    +0.000 A 
ATOM     15  C   UNL     1       1.734  12.600  20.087  0.00  0.00    +0.000 A 
ATOM     16  C   UNL     1       0.924  11.721  19.357  0.00  0.00    +0.000 A 
ATOM     17  C   UNL     1      -0.205  12.218  18.696  0.00  0.00    +0.000 A 
ATOM     18  C   UNL     1      -0.498  13.585  18.736  0.00  0.00    +0.000 A 
ENDBRANCH   1  16
BRANCH   9  19
ATOM     19  C   UNL     1       2.086   5.225  19.780  0.00  0.00    +0.000 A 
ATOM     20  C   UNL     1       2.596   5.058  21.081  0.00  0.00    +0.000 A 
ATOM     21  C   UNL     1       2.366   3.874  21.787  0.00  0.00    +0.000 A 
ATOM     22  C   UNL     1       1.636   2.855  21.193  0.00  0.00    +0.000 A 
ATOM     23  F   UNL     1       1.421   1.716  21.864  0.00  0.00    +0.000 F 
ATOM     24  C   UNL     1       1.127   2.998  19.908  0.00  0.00    +0.000 A 
ATOM     25  C   UNL     1       1.348   4.183  19.199  0.00  0.00    +0.000 A 
ENDBRANCH   9  19
TORSDOF 2
ENDMDL
MODEL 9
REMARK VINA RESULT:      -7.0      2.597      3.603
REMARK  Name = 
REMARK  4 active torsions:
REMARK  status: ('A' for Active; 'I' for Inactive)
REMARK    1  A    between atoms: C_1  and  C_2
REMARK    2  A    between atoms: C_5  and  N_6
REMARK    3  A    between atoms: C_7  and  C_8
REMARK    4  A    between atoms: N_14  and  C_15
REMARK                            x       y       z     vdW  Elec       q    Type
REMARK                         _______ _______ _______ _____ _____    ______ ____
ROOT
ATOM      1  N   UNL     1       1.116   9.873  19.596  0.00  0.00    +0.000 N 
ATOM      2  C   UNL     1       0.995   8.920  20.619  0.00  0.00    +0.000 A 
ATOM      3  C   UNL     1       0.180   9.228  21.862  0.00  0.00    +0.000 C 
ATOM      4  N   UNL     1       1.506   7.719  20.576  0.00  0.00    +0.000 NA
ATOM      5  C   UNL     1       2.192   7.425  19.446  0.00  0.00    +0.000 A 
ATOM      6  C   UNL     1       2.376   8.268  18.382  0.00  0.00    +0.000 A 
ATOM      7  C   UNL     1       3.186   7.585  17.480  0.00  0.00    +0.000 A 
ATOM      8  N   UNL     1       3.504   6.366  17.920  0.00  0.00    +0.000 NA
ATOM      9  N   UNL     1       2.849   6.238  19.120  0.00  0.00    +0.000 N 
ATOM     10  C   UNL     1       1.793   9.577  18.390  0.00  0.00    +0.000 A 
ATOM     11  O   UNL     1       1.922  10.330  17.431  0.00  0.00    +0.000 OA
ENDROOT
BRANCH   1  16
ATOM     12  C   UNL     1      -1.034  15.176  20.028  0.00  0.00    +0.000 C 
ATOM     13  C   UNL     1      -0.476  13.786  19.936  0.00  0.00    +0.000 A 
ATOM     14  C   UNL     1       0.816  13.502  20.387  0.00  0.00    +0.000 A 
ATOM     15  C   UNL     1       1.332  12.209  20.290  0.00  0.00    +0.000 A 
ATOM     16  C   UNL     1       0.569  11.184  19.716  0.00  0.00    +0.000 A 
ATOM     17  C   UNL     1      -0.735  11.458  19.286  0.00  0.00    +0.000 A 
ATOM     18  C   UNL     1      -1.253  12.752  19.397  0.00  0.00    +0.000 A 
ENDBRANCH   1  16
BRANCH   9  19
ATOM     19  C   UNL     1       2.900   4.997  19.824  0.00  0.00    +0.000 A 
ATOM     20  C   UNL     1       1.966   4.754  20.848  0.00  0.00    +0.000 A 
ATOM     21  C   UNL     1       1.999   3.559  21.570  0.00  0.00    +0.000 A 
ATOM     22  C   UNL     1       2.969   2.610  21.277  0.00  0.00    +0.000 A 
ATOM     23  F   UNL     1       3.008   1.466  21.974  0.00  0.00    +0.000 F 
ATOM     24  C   UNL     1       3.903   2.832  20.273  0.00  0.00    +0.000 A 
ATOM     25  C   UNL     1       3.870   4.023  19.542  0.00  0.00    +0.000 A 
ENDBRANCH   9  19
TORSDOF 2
ENDMDL
