MODEL 1
REMARK VINA RESULT:      -9.2      0.000      0.000
REMARK  Name = 
REMARK  6 active torsions:
REMARK  status: ('A' for Active; 'I' for Inactive)
REMARK    1  A    between atoms: S_2  and  N_4
REMARK    2  A    between atoms: S_2  and  C_27
REMARK    3  A    between atoms: N_4  and  C_5
REMARK    4  A    between atoms: C_10  and  O_11
REMARK    5  A    between atoms: O_11  and  C_12
REMARK    6  A    between atoms: C_12  and  C_13
REMARK                            x       y       z     vdW  Elec       q    Type
REMARK                         _______ _______ _______ _____ _____    ______ ____
ROOT
ATOM      1  C   UNL     1       3.526   3.066  18.620  0.00  0.00    +0.000 A 
ATOM      2  C   UNL     1       2.650   2.063  18.182  0.00  0.00    +0.000 A 
ATOM      3  C   UNL     1       1.333   2.014  18.635  0.00  0.00    +0.000 A 
ATOM      4  C   UNL     1       0.882   2.984  19.522  0.00  0.00    +0.000 A 
ATOM      5  C   UNL     1       1.745   3.996  19.954  0.00  0.00    +0.000 A 
ATOM      6  C   UNL     1       3.084   4.051  19.526  0.00  0.00    +0.000 A 
ENDROOT
BRANCH   1   7
ATOM      7  N   UNL     1       4.830   3.004  18.041  0.00  0.00    +0.000 N 
ATOM      8  H   UNL     1       5.611   2.857  18.672  0.00  0.00    +0.000 HD
BRANCH   7  10
ATOM      9  O   UNL     1       5.891   3.431  15.720  0.00  0.00    +0.000 OA
ATOM     10  S   UNL     1       5.193   4.098  16.798  0.00  0.00    +0.000 S 
ATOM     11  O   UNL     1       3.966   4.837  16.556  0.00  0.00    +0.000 OA
BRANCH  10  12
ATOM     12  C   UNL     1       6.332   5.261  17.528  0.00  0.00    +0.000 A 
ATOM     13  C   UNL     1       6.521   6.484  16.901  0.00  0.00    +0.000 A 
ATOM     14  C   UNL     1       7.442   7.353  17.468  0.00  0.00    +0.000 A 
ATOM     15  C   UNL     1       8.113   6.974  18.630  0.00  0.00    +0.000 A 
ATOM     16  C   UNL     1       7.824   5.740  19.197  0.00  0.00    +0.000 A 
ATOM     17  N   UNL     1       6.942   4.863  18.678  0.00  0.00    +0.000 NA
ENDBRANCH  10  12
ENDBRANCH   7  10
ENDBRANCH   1   7
BRANCH   6  18
ATOM     18  O   UNL     1       3.777   5.123  20.052  0.00  0.00    +0.000 OA
BRANCH  18  19
ATOM     19  C   UNL     1       3.617   6.369  19.394  0.00  0.00    +0.000 C 
BRANCH  19  20
ATOM     20  C   UNL     1       2.180   6.867  19.235  0.00  0.00    +0.000 C 
ATOM     21  C   UNL     1       1.975   7.851  18.092  0.00  0.00    +0.000 C 
ATOM     22  C   UNL     1       1.890   9.211  18.756  0.00  0.00    +0.000 C 
ATOM     23  N   UNL     1       1.346   8.923  20.066  0.00  0.00    +0.000 N 
ATOM     24  C   UNL     1       0.520   9.811  20.677  0.00  0.00    +0.000 A 
ATOM     25  N   UNL     1       0.114  10.902  20.066  0.00  0.00    +0.000 NA
ATOM     26  C   UNL     1      -0.721  11.650  20.864  0.00  0.00    +0.000 A 
ATOM     27  C   UNL     1      -1.336  12.854  20.479  0.00  0.00    +0.000 A 
ATOM     28  C   UNL     1      -2.149  13.532  21.386  0.00  0.00    +0.000 A 
ATOM     29  C   UNL     1      -2.345  13.025  22.666  0.00  0.00    +0.000 A 
ATOM     30  C   UNL     1      -1.749  11.819  23.066  0.00  0.00    +0.000 A 
ATOM     31  C   UNL     1      -0.941  11.138  22.140  0.00  0.00    +0.000 A 
ATOM     32  S   UNL     1      -0.089   9.645  22.287  0.00  0.00    +0.000 S 
ATOM     33  C   UNL     1       1.604   7.560  20.487  0.00  0.00    +0.000 C 
ENDBRANCH  19  20
ENDBRANCH  18  19
ENDBRANCH   6  18
TORSDOF 6
ENDMDL
MODEL 2
REMARK VINA RESULT:      -9.2      2.289      2.758
REMARK  Name = 
REMARK  6 active torsions:
REMARK  status: ('A' for Active; 'I' for Inactive)
REMARK    1  A    between atoms: S_2  and  N_4
REMARK    2  A    between atoms: S_2  and  C_27
REMARK    3  A    between atoms: N_4  and  C_5
REMARK    4  A    between atoms: C_10  and  O_11
REMARK    5  A    between atoms: O_11  and  C_12
REMARK    6  A    between atoms: C_12  and  C_13
REMARK                            x       y       z     vdW  Elec       q    Type
REMARK                         _______ _______ _______ _____ _____    ______ ____
ROOT
ATOM      1  C   UNL     1       4.096   4.134  17.407  0.00  0.00    +0.000 A 
ATOM      2  C   UNL     1       3.609   2.853  17.113  0.00  0.00    +0.000 A 
ATOM      3  C   UNL     1       3.081   2.040  18.114  0.00  0.00    +0.000 A 
ATOM      4  C   UNL     1       3.025   2.516  19.418  0.00  0.00    +0.000 A 
ATOM      5  C   UNL     1       3.496   3.798  19.718  0.00  0.00    +0.000 A 
ATOM      6  C   UNL     1       4.052   4.626  18.727  0.00  0.00    +0.000 A 
ENDROOT
BRANCH   1   7
ATOM      7  N   UNL     1       4.572   4.859  16.272  0.00  0.00    +0.000 N 
ATOM      8  H   UNL     1       4.145   4.649  15.376  0.00  0.00    +0.000 HD
BRANCH   7  10
ATOM      9  O   UNL     1       6.556   6.514  16.406  0.00  0.00    +0.000 OA
ATOM     10  S   UNL     1       6.243   5.125  16.151  0.00  0.00    +0.000 S 
ATOM     11  O   UNL     1       6.865   4.060  16.919  0.00  0.00    +0.000 OA
BRANCH  10  12
ATOM     12  C   UNL     1       6.638   4.795  14.443  0.00  0.00    +0.000 A 
ATOM     13  C   UNL     1       5.874   3.863  13.756  0.00  0.00    +0.000 A 
ATOM     14  C   UNL     1       6.227   3.596  12.441  0.00  0.00    +0.000 A 
ATOM     15  C   UNL     1       7.305   4.275  11.873  0.00  0.00    +0.000 A 
ATOM     16  C   UNL     1       7.983   5.215  12.638  0.00  0.00    +0.000 A 
ATOM     17  N   UNL     1       7.677   5.501  13.919  0.00  0.00    +0.000 NA
ENDBRANCH  10  12
ENDBRANCH   7  10
ENDBRANCH   1   7
BRANCH   6  18
ATOM     18  O   UNL     1       4.454   5.855  19.211  0.00  0.00    +0.000 OA
BRANCH  18  19
ATOM     19  C   UNL     1       3.943   6.999  18.546  0.00  0.00    +0.000 C 
BRANCH  19  20
ATOM     20  C   UNL     1       2.434   7.217  18.644  0.00  0.00    +0.000 C 
ATOM     21  C   UNL     1       1.860   8.151  17.588  0.00  0.00    +0.000 C 
ATOM     22  C   UNL     1       1.636   9.466  18.308  0.00  0.00    +0.000 C 
ATOM     23  N   UNL     1       1.383   9.073  19.677  0.00  0.00    +0.000 N 
ATOM     24  C   UNL     1       0.522   9.784  20.448  0.00  0.00    +0.000 A 
ATOM     25  N   UNL     1      -0.177  10.782  19.954  0.00  0.00    +0.000 NA
ATOM     26  C   UNL     1      -0.990  11.354  20.905  0.00  0.00    +0.000 A 
ATOM     27  C   UNL     1      -1.874  12.421  20.673  0.00  0.00    +0.000 A 
ATOM     28  C   UNL     1      -2.634  12.927  21.726  0.00  0.00    +0.000 A 
ATOM     29  C   UNL     1      -2.514  12.385  23.001  0.00  0.00    +0.000 A 
ATOM     30  C   UNL     1      -1.646  11.311  23.251  0.00  0.00    +0.000 A 
ATOM     31  C   UNL     1      -0.893  10.802  22.181  0.00  0.00    +0.000 A 
ATOM     32  S   UNL     1       0.234   9.496  22.129  0.00  0.00    +0.000 S 
ATOM     33  C   UNL     1       1.957   7.781  19.999  0.00  0.00    +0.000 C 
ENDBRANCH  19  20
ENDBRANCH  18  19
ENDBRANCH   6  18
TORSDOF 6
ENDMDL
MODEL 3
REMARK VINA RESULT:      -8.6      1.611      3.871
REMARK  Name = 
REMARK  6 active torsions:
REMARK  status: ('A' for Active; 'I' for Inactive)
REMARK    1  A    between atoms: S_2  and  N_4
REMARK    2  A    between atoms: S_2  and  C_27
REMARK    3  A    between atoms: N_4  and  C_5
REMARK    4  A    between atoms: C_10  and  O_11
REMARK    5  A    between atoms: O_11  and  C_12
REMARK    6  A    between atoms: C_12  and  C_13
REMARK                            x       y       z     vdW  Elec       q    Type
REMARK                         _______ _______ _______ _____ _____    ______ ____
ROOT
ATOM      1  C   UNL     1       5.625   4.486  17.795  0.00  0.00    +0.000 A 
ATOM      2  C   UNL     1       6.643   4.155  16.890  0.00  0.00    +0.000 A 
ATOM      3  C   UNL     1       6.794   4.855  15.695  0.00  0.00    +0.000 A 
ATOM      4  C   UNL     1       5.931   5.905  15.406  0.00  0.00    +0.000 A 
ATOM      5  C   UNL     1       4.921   6.251  16.310  0.00  0.00    +0.000 A 
ATOM      6  C   UNL     1       4.737   5.543  17.512  0.00  0.00    +0.000 A 
ENDROOT
BRANCH   1   7
ATOM      7  N   UNL     1       5.620   3.702  18.989  0.00  0.00    +0.000 N 
ATOM      8  H   UNL     1       6.520   3.485  19.405  0.00  0.00    +0.000 HD
BRANCH   7  10
ATOM      9  O   UNL     1       4.262   1.878  17.754  0.00  0.00    +0.000 OA
ATOM     10  S   UNL     1       4.533   2.404  19.075  0.00  0.00    +0.000 S 
ATOM     11  O   UNL     1       5.030   1.547  20.138  0.00  0.00    +0.000 OA
BRANCH  10  12
ATOM     12  C   UNL     1       3.015   3.115  19.686  0.00  0.00    +0.000 A 
ATOM     13  C   UNL     1       1.812   2.584  19.245  0.00  0.00    +0.000 A 
ATOM     14  C   UNL     1       0.647   3.182  19.704  0.00  0.00    +0.000 A 
ATOM     15  C   UNL     1       0.734   4.259  20.584  0.00  0.00    +0.000 A 
ATOM     16  C   UNL     1       1.989   4.692  20.990  0.00  0.00    +0.000 A 
ATOM     17  N   UNL     1       3.146   4.145  20.566  0.00  0.00    +0.000 NA
ENDBRANCH  10  12
ENDBRANCH   7  10
ENDBRANCH   1   7
BRANCH   6  18
ATOM     18  O   UNL     1       3.697   6.034  18.275  0.00  0.00    +0.000 OA
BRANCH  18  19
ATOM     19  C   UNL     1       3.459   7.431  18.205  0.00  0.00    +0.000 C 
BRANCH  19  20
ATOM     20  C   UNL     1       1.996   7.869  18.270  0.00  0.00    +0.000 C 
ATOM     21  C   UNL     1       1.655   9.063  17.389  0.00  0.00    +0.000 C 
ATOM     22  C   UNL     1       1.575  10.241  18.340  0.00  0.00    +0.000 C 
ATOM     23  N   UNL     1       1.159   9.647  19.592  0.00  0.00    +0.000 N 
ATOM     24  C   UNL     1       0.356  10.335  20.445  0.00  0.00    +0.000 A 
ATOM     25  N   UNL     1      -0.143  11.506  20.121  0.00  0.00    +0.000 NA
ATOM     26  C   UNL     1      -0.934  12.017  21.125  0.00  0.00    +0.000 A 
ATOM     27  C   UNL     1      -1.627  13.239  21.063  0.00  0.00    +0.000 A 
ATOM     28  C   UNL     1      -2.382  13.658  22.156  0.00  0.00    +0.000 A 
ATOM     29  C   UNL     1      -2.446  12.877  23.305  0.00  0.00    +0.000 A 
ATOM     30  C   UNL     1      -1.772  11.649  23.383  0.00  0.00    +0.000 A 
ATOM     31  C   UNL     1      -1.022  11.231  22.272  0.00  0.00    +0.000 A 
ATOM     32  S   UNL     1      -0.104   9.792  22.021  0.00  0.00    +0.000 S 
ATOM     33  C   UNL     1       1.505   8.242  19.684  0.00  0.00    +0.000 C 
ENDBRANCH  19  20
ENDBRANCH  18  19
ENDBRANCH   6  18
TORSDOF 6
ENDMDL
MODEL 4
REMARK VINA RESULT:      -8.6      0.960      1.172
REMARK  Name = 
REMARK  6 active torsions:
REMARK  status: ('A' for Active; 'I' for Inactive)
REMARK    1  A    between atoms: S_2  and  N_4
REMARK    2  A    between atoms: S_2  and  C_27
REMARK    3  A    between atoms: N_4  and  C_5
REMARK    4  A    between atoms: C_10  and  O_11
REMARK    5  A    between atoms: O_11  and  C_12
REMARK    6  A    between atoms: C_12  and  C_13
REMARK                            x       y       z     vdW  Elec       q    Type
REMARK                         _______ _______ _______ _____ _____    ______ ____
ROOT
ATOM      1  C   UNL     1       3.104   4.021  17.888  0.00  0.00    +0.000 A 
ATOM      2  C   UNL     1       2.328   2.890  17.598  0.00  0.00    +0.000 A 
ATOM      3  C   UNL     1       1.720   2.158  18.615  0.00  0.00    +0.000 A 
ATOM      4  C   UNL     1       1.875   2.566  19.934  0.00  0.00    +0.000 A 
ATOM      5  C   UNL     1       2.636   3.701  20.233  0.00  0.00    +0.000 A 
ATOM      6  C   UNL     1       3.276   4.442  19.222  0.00  0.00    +0.000 A 
ENDROOT
BRANCH   1   7
ATOM      7  N   UNL     1       3.632   4.685  16.739  0.00  0.00    +0.000 N 
ATOM      8  H   UNL     1       2.994   4.855  15.969  0.00  0.00    +0.000 HD
BRANCH   7  10
ATOM      9  O   UNL     1       5.493   2.890  16.632  0.00  0.00    +0.000 OA
ATOM     10  S   UNL     1       5.183   4.241  16.216  0.00  0.00    +0.000 S 
ATOM     11  O   UNL     1       5.250   4.632  14.818  0.00  0.00    +0.000 OA
BRANCH  10  12
ATOM     12  C   UNL     1       6.292   5.334  17.086  0.00  0.00    +0.000 A 
ATOM     13  C   UNL     1       7.074   4.808  18.104  0.00  0.00    +0.000 A 
ATOM     14  C   UNL     1       7.898   5.688  18.791  0.00  0.00    +0.000 A 
ATOM     15  C   UNL     1       7.916   7.033  18.426  0.00  0.00    +0.000 A 
ATOM     16  C   UNL     1       7.118   7.450  17.369  0.00  0.00    +0.000 A 
ATOM     17  N   UNL     1       6.299   6.632  16.678  0.00  0.00    +0.000 NA
ENDBRANCH  10  12
ENDBRANCH   7  10
ENDBRANCH   1   7
BRANCH   6  18
ATOM     18  O   UNL     1       3.974   5.529  19.708  0.00  0.00    +0.000 OA
BRANCH  18  19
ATOM     19  C   UNL     1       3.648   6.794  19.154  0.00  0.00    +0.000 C 
BRANCH  19  20
ATOM     20  C   UNL     1       2.162   7.144  19.105  0.00  0.00    +0.000 C 
ATOM     21  C   UNL     1       1.774   8.094  17.979  0.00  0.00    +0.000 C 
ATOM     22  C   UNL     1       1.602   9.444  18.648  0.00  0.00    +0.000 C 
ATOM     23  N   UNL     1       1.190   9.113  19.995  0.00  0.00    +0.000 N 
ATOM     24  C   UNL     1       0.328   9.919  20.667  0.00  0.00    +0.000 A 
ATOM     25  N   UNL     1      -0.230  10.958  20.088  0.00  0.00    +0.000 NA
ATOM     26  C   UNL     1      -1.074  11.625  20.947  0.00  0.00    +0.000 A 
ATOM     27  C   UNL     1      -1.834  12.759  20.610  0.00  0.00    +0.000 A 
ATOM     28  C   UNL     1      -2.640  13.359  21.576  0.00  0.00    +0.000 A 
ATOM     29  C   UNL     1      -2.687  12.845  22.867  0.00  0.00    +0.000 A 
ATOM     30  C   UNL     1      -1.945  11.707  23.220  0.00  0.00    +0.000 A 
ATOM     31  C   UNL     1      -1.145  11.104  22.237  0.00  0.00    +0.000 A 
ATOM     32  S   UNL     1      -0.139   9.705  22.319  0.00  0.00    +0.000 S 
ATOM     33  C   UNL     1       1.614   7.786  20.396  0.00  0.00    +0.000 C 
ENDBRANCH  19  20
ENDBRANCH  18  19
ENDBRANCH   6  18
TORSDOF 6
ENDMDL
MODEL 5
REMARK VINA RESULT:      -8.4      1.569      2.378
REMARK  Name = 
REMARK  6 active torsions:
REMARK  status: ('A' for Active; 'I' for Inactive)
REMARK    1  A    between atoms: S_2  and  N_4
REMARK    2  A    between atoms: S_2  and  C_27
REMARK    3  A    between atoms: N_4  and  C_5
REMARK    4  A    between atoms: C_10  and  O_11
REMARK    5  A    between atoms: O_11  and  C_12
REMARK    6  A    between atoms: C_12  and  C_13
REMARK                            x       y       z     vdW  Elec       q    Type
REMARK                         _______ _______ _______ _____ _____    ______ ____
ROOT
ATOM      1  C   UNL     1       2.548   4.410  18.616  0.00  0.00    +0.000 A 
ATOM      2  C   UNL     1       2.089   3.145  18.222  0.00  0.00    +0.000 A 
ATOM      3  C   UNL     1       1.069   2.503  18.921  0.00  0.00    +0.000 A 
ATOM      4  C   UNL     1       0.490   3.135  20.014  0.00  0.00    +0.000 A 
ATOM      5  C   UNL     1       0.931   4.403  20.406  0.00  0.00    +0.000 A 
ATOM      6  C   UNL     1       1.974   5.059  19.728  0.00  0.00    +0.000 A 
ENDROOT
BRANCH   1   7
ATOM      7  N   UNL     1       3.572   4.952  17.781  0.00  0.00    +0.000 N 
ATOM      8  H   UNL     1       3.298   5.261  16.854  0.00  0.00    +0.000 HD
BRANCH   7  10
ATOM      9  O   UNL     1       5.207   3.319  18.944  0.00  0.00    +0.000 OA
ATOM     10  S   UNL     1       5.086   4.188  17.793  0.00  0.00    +0.000 S 
ATOM     11  O   UNL     1       5.279   3.683  16.445  0.00  0.00    +0.000 OA
BRANCH  10  12
ATOM     12  C   UNL     1       6.266   5.509  17.999  0.00  0.00    +0.000 A 
ATOM     13  C   UNL     1       6.157   6.625  17.182  0.00  0.00    +0.000 A 
ATOM     14  C   UNL     1       7.112   7.621  17.335  0.00  0.00    +0.000 A 
ATOM     15  C   UNL     1       8.110   7.466  18.295  0.00  0.00    +0.000 A 
ATOM     16  C   UNL     1       8.109   6.325  19.085  0.00  0.00    +0.000 A 
ATOM     17  N   UNL     1       7.205   5.331  18.967  0.00  0.00    +0.000 NA
ENDBRANCH  10  12
ENDBRANCH   7  10
ENDBRANCH   1   7
BRANCH   6  18
ATOM     18  O   UNL     1       2.266   6.302  20.255  0.00  0.00    +0.000 OA
BRANCH  18  19
ATOM     19  C   UNL     1       1.163   7.088  20.678  0.00  0.00    +0.000 C 
BRANCH  19  20
ATOM     20  C   UNL     1       1.459   8.558  20.973  0.00  0.00    +0.000 C 
ATOM     21  C   UNL     1       1.689   8.873  22.445  0.00  0.00    +0.000 C 
ATOM     22  C   UNL     1       0.396   9.511  22.915  0.00  0.00    +0.000 C 
ATOM     23  N   UNL     1      -0.128  10.148  21.727  0.00  0.00    +0.000 N 
ATOM     24  C   UNL     1      -0.824  11.310  21.820  0.00  0.00    +0.000 A 
ATOM     25  N   UNL     1      -0.957  11.939  22.967  0.00  0.00    +0.000 NA
ATOM     26  C   UNL     1      -1.688  13.096  22.830  0.00  0.00    +0.000 A 
ATOM     27  C   UNL     1      -1.975  13.995  23.872  0.00  0.00    +0.000 A 
ATOM     28  C   UNL     1      -2.745  15.127  23.610  0.00  0.00    +0.000 A 
ATOM     29  C   UNL     1      -3.232  15.364  22.330  0.00  0.00    +0.000 A 
ATOM     30  C   UNL     1      -2.946  14.485  21.273  0.00  0.00    +0.000 A 
ATOM     31  C   UNL     1      -2.161  13.353  21.545  0.00  0.00    +0.000 A 
ATOM     32  S   UNL     1      -1.609  12.099  20.496  0.00  0.00    +0.000 S 
ATOM     33  C   UNL     1       0.361   9.535  20.507  0.00  0.00    +0.000 C 
ENDBRANCH  19  20
ENDBRANCH  18  19
ENDBRANCH   6  18
TORSDOF 6
ENDMDL
MODEL 6
REMARK VINA RESULT:      -8.4      1.632      3.894
REMARK  Name = 
REMARK  6 active torsions:
REMARK  status: ('A' for Active; 'I' for Inactive)
REMARK    1  A    between atoms: S_2  and  N_4
REMARK    2  A    between atoms: S_2  and  C_27
REMARK    3  A    between atoms: N_4  and  C_5
REMARK    4  A    between atoms: C_10  and  O_11
REMARK    5  A    between atoms: O_11  and  C_12
REMARK    6  A    between atoms: C_12  and  C_13
REMARK                            x       y       z     vdW  Elec       q    Type
REMARK                         _______ _______ _______ _____ _____    ______ ____
ROOT
ATOM      1  C   UNL     1       5.427   4.259  17.507  0.00  0.00    +0.000 A 
ATOM      2  C   UNL     1       5.811   3.452  16.427  0.00  0.00    +0.000 A 
ATOM      3  C   UNL     1       5.841   3.958  15.130  0.00  0.00    +0.000 A 
ATOM      4  C   UNL     1       5.500   5.287  14.909  0.00  0.00    +0.000 A 
ATOM      5  C   UNL     1       5.130   6.104  15.982  0.00  0.00    +0.000 A 
ATOM      6  C   UNL     1       5.072   5.607  17.297  0.00  0.00    +0.000 A 
ENDROOT
BRANCH   1   7
ATOM      7  N   UNL     1       5.480   3.609  18.778  0.00  0.00    +0.000 N 
ATOM      8  H   UNL     1       6.388   3.544  19.227  0.00  0.00    +0.000 HD
BRANCH   7  10
ATOM      9  O   UNL     1       4.342   1.542  17.717  0.00  0.00    +0.000 OA
ATOM     10  S   UNL     1       4.548   2.207  18.985  0.00  0.00    +0.000 S 
ATOM     11  O   UNL     1       5.138   1.509  20.114  0.00  0.00    +0.000 OA
BRANCH  10  12
ATOM     12  C   UNL     1       2.958   2.792  19.544  0.00  0.00    +0.000 A 
ATOM     13  C   UNL     1       2.774   3.012  20.901  0.00  0.00    +0.000 A 
ATOM     14  C   UNL     1       1.516   3.428  21.313  0.00  0.00    +0.000 A 
ATOM     15  C   UNL     1       0.515   3.618  20.362  0.00  0.00    +0.000 A 
ATOM     16  C   UNL     1       0.814   3.402  19.023  0.00  0.00    +0.000 A 
ATOM     17  N   UNL     1       2.019   2.993  18.579  0.00  0.00    +0.000 NA
ENDBRANCH  10  12
ENDBRANCH   7  10
ENDBRANCH   1   7
BRANCH   6  18
ATOM     18  O   UNL     1       4.693   6.561  18.220  0.00  0.00    +0.000 OA
BRANCH  18  19
ATOM     19  C   UNL     1       3.798   6.142  19.238  0.00  0.00    +0.000 C 
BRANCH  19  20
ATOM     20  C   UNL     1       2.354   6.625  19.105  0.00  0.00    +0.000 C 
ATOM     21  C   UNL     1       2.127   7.640  17.993  0.00  0.00    +0.000 C 
ATOM     22  C   UNL     1       2.028   8.978  18.699  0.00  0.00    +0.000 C 
ATOM     23  N   UNL     1       1.499   8.644  20.003  0.00  0.00    +0.000 N 
ATOM     24  C   UNL     1       0.666   9.502  20.647  0.00  0.00    +0.000 A 
ATOM     25  N   UNL     1       0.241  10.604  20.072  0.00  0.00    +0.000 NA
ATOM     26  C   UNL     1      -0.598  11.317  20.899  0.00  0.00    +0.000 A 
ATOM     27  C   UNL     1      -1.232  12.524  20.555  0.00  0.00    +0.000 A 
ATOM     28  C   UNL     1      -2.046  13.162  21.488  0.00  0.00    +0.000 A 
ATOM     29  C   UNL     1      -2.225  12.615  22.754  0.00  0.00    +0.000 A 
ATOM     30  C   UNL     1      -1.610  11.405  23.112  0.00  0.00    +0.000 A 
ATOM     31  C   UNL     1      -0.801  10.764  22.161  0.00  0.00    +0.000 A 
ATOM     32  S   UNL     1       0.072   9.279  22.256  0.00  0.00    +0.000 S 
ATOM     33  C   UNL     1       1.779   7.272  20.381  0.00  0.00    +0.000 C 
ENDBRANCH  19  20
ENDBRANCH  18  19
ENDBRANCH   6  18
TORSDOF 6
ENDMDL
MODEL 7
REMARK VINA RESULT:      -8.3      1.721      4.029
REMARK  Name = 
REMARK  6 active torsions:
REMARK  status: ('A' for Active; 'I' for Inactive)
REMARK    1  A    between atoms: S_2  and  N_4
REMARK    2  A    between atoms: S_2  and  C_27
REMARK    3  A    between atoms: N_4  and  C_5
REMARK    4  A    between atoms: C_10  and  O_11
REMARK    5  A    between atoms: O_11  and  C_12
REMARK    6  A    between atoms: C_12  and  C_13
REMARK                            x       y       z     vdW  Elec       q    Type
REMARK                         _______ _______ _______ _____ _____    ______ ____
ROOT
ATOM      1  C   UNL     1       5.296   4.168  17.039  0.00  0.00    +0.000 A 
ATOM      2  C   UNL     1       5.773   3.637  15.833  0.00  0.00    +0.000 A 
ATOM      3  C   UNL     1       6.178   4.471  14.793  0.00  0.00    +0.000 A 
ATOM      4  C   UNL     1       6.120   5.849  14.964  0.00  0.00    +0.000 A 
ATOM      5  C   UNL     1       5.658   6.388  16.169  0.00  0.00    +0.000 A 
ATOM      6  C   UNL     1       5.225   5.564  17.223  0.00  0.00    +0.000 A 
ENDROOT
BRANCH   1   7
ATOM      7  N   UNL     1       4.953   3.188  18.020  0.00  0.00    +0.000 N 
ATOM      8  H   UNL     1       5.699   2.587  18.355  0.00  0.00    +0.000 HD
BRANCH   7  10
ATOM      9  O   UNL     1       2.675   2.991  16.809  0.00  0.00    +0.000 OA
ATOM     10  S   UNL     1       3.486   2.360  17.828  0.00  0.00    +0.000 S 
ATOM     11  O   UNL     1       3.839   0.953  17.744  0.00  0.00    +0.000 OA
BRANCH  10  12
ATOM     12  C   UNL     1       2.637   2.562  19.383  0.00  0.00    +0.000 A 
ATOM     13  C   UNL     1       1.263   2.752  19.367  0.00  0.00    +0.000 A 
ATOM     14  C   UNL     1       0.633   2.947  20.588  0.00  0.00    +0.000 A 
ATOM     15  C   UNL     1       1.391   2.928  21.757  0.00  0.00    +0.000 A 
ATOM     16  C   UNL     1       2.758   2.696  21.666  0.00  0.00    +0.000 A 
ATOM     17  N   UNL     1       3.410   2.507  20.502  0.00  0.00    +0.000 NA
ENDBRANCH  10  12
ENDBRANCH   7  10
ENDBRANCH   1   7
BRANCH   6  18
ATOM     18  O   UNL     1       4.812   6.275  18.332  0.00  0.00    +0.000 OA
BRANCH  18  19
ATOM     19  C   UNL     1       3.838   5.657  19.158  0.00  0.00    +0.000 C 
BRANCH  19  20
ATOM     20  C   UNL     1       2.415   6.204  19.046  0.00  0.00    +0.000 C 
ATOM     21  C   UNL     1       2.095   6.865  17.713  0.00  0.00    +0.000 C 
ATOM     22  C   UNL     1       2.157   8.354  17.990  0.00  0.00    +0.000 C 
ATOM     23  N   UNL     1       1.787   8.463  19.384  0.00  0.00    +0.000 N 
ATOM     24  C   UNL     1       1.091   9.541  19.828  0.00  0.00    +0.000 A 
ATOM     25  N   UNL     1       0.649  10.460  18.999  0.00  0.00    +0.000 NA
ATOM     26  C   UNL     1      -0.037  11.453  19.659  0.00  0.00    +0.000 A 
ATOM     27  C   UNL     1      -0.650  12.557  19.041  0.00  0.00    +0.000 A 
ATOM     28  C   UNL     1      -1.301  13.509  19.823  0.00  0.00    +0.000 A 
ATOM     29  C   UNL     1      -1.339  13.373  21.206  0.00  0.00    +0.000 A 
ATOM     30  C   UNL     1      -0.744  12.272  21.842  0.00  0.00    +0.000 A 
ATOM     31  C   UNL     1      -0.100  11.313  21.044  0.00  0.00    +0.000 A 
ATOM     32  S   UNL     1       0.702   9.851  21.485  0.00  0.00    +0.000 S 
ATOM     33  C   UNL     1       2.045   7.243  20.124  0.00  0.00    +0.000 C 
ENDBRANCH  19  20
ENDBRANCH  18  19
ENDBRANCH   6  18
TORSDOF 6
ENDMDL
MODEL 8
REMARK VINA RESULT:      -8.2      1.953      2.542
REMARK  Name = 
REMARK  6 active torsions:
REMARK  status: ('A' for Active; 'I' for Inactive)
REMARK    1  A    between atoms: S_2  and  N_4
REMARK    2  A    between atoms: S_2  and  C_27
REMARK    3  A    between atoms: N_4  and  C_5
REMARK    4  A    between atoms: C_10  and  O_11
REMARK    5  A    between atoms: O_11  and  C_12
REMARK    6  A    between atoms: C_12  and  C_13
REMARK                            x       y       z     vdW  Elec       q    Type
REMARK                         _______ _______ _______ _____ _____    ______ ____
ROOT
ATOM      1  C   UNL     1       2.618   4.817  18.428  0.00  0.00    +0.000 A 
ATOM      2  C   UNL     1       2.086   3.530  18.582  0.00  0.00    +0.000 A 
ATOM      3  C   UNL     1       1.277   3.213  19.672  0.00  0.00    +0.000 A 
ATOM      4  C   UNL     1       0.984   4.195  20.610  0.00  0.00    +0.000 A 
ATOM      5  C   UNL     1       1.500   5.487  20.458  0.00  0.00    +0.000 A 
ATOM      6  C   UNL     1       2.335   5.821  19.377  0.00  0.00    +0.000 A 
ENDROOT
BRANCH   1   7
ATOM      7  N   UNL     1       3.396   4.997  17.245  0.00  0.00    +0.000 N 
ATOM      8  H   UNL     1       2.897   5.029  16.362  0.00  0.00    +0.000 HD
BRANCH   7  10
ATOM      9  O   UNL     1       4.878   3.032  18.044  0.00  0.00    +0.000 OA
ATOM     10  S   UNL     1       4.865   4.156  17.132  0.00  0.00    +0.000 S 
ATOM     11  O   UNL     1       5.104   3.974  15.711  0.00  0.00    +0.000 OA
BRANCH  10  12
ATOM     12  C   UNL     1       6.100   5.312  17.696  0.00  0.00    +0.000 A 
ATOM     13  C   UNL     1       6.206   6.534  17.048  0.00  0.00    +0.000 A 
ATOM     14  C   UNL     1       7.202   7.399  17.480  0.00  0.00    +0.000 A 
ATOM     15  C   UNL     1       8.027   7.015  18.536  0.00  0.00    +0.000 A 
ATOM     16  C   UNL     1       7.815   5.782  19.138  0.00  0.00    +0.000 A 
ATOM     17  N   UNL     1       6.864   4.910  18.748  0.00  0.00    +0.000 NA
ENDBRANCH  10  12
ENDBRANCH   7  10
ENDBRANCH   1   7
BRANCH   6  18
ATOM     18  O   UNL     1       2.739   7.141  19.393  0.00  0.00    +0.000 OA
BRANCH  18  19
ATOM     19  C   UNL     1       1.927   8.046  20.125  0.00  0.00    +0.000 C 
BRANCH  19  20
ATOM     20  C   UNL     1       0.997   8.934  19.299  0.00  0.00    +0.000 C 
ATOM     21  C   UNL     1       1.673   9.654  18.141  0.00  0.00    +0.000 C 
ATOM     22  C   UNL     1       1.861  11.080  18.622  0.00  0.00    +0.000 C 
ATOM     23  N   UNL     1       0.768  11.279  19.549  0.00  0.00    +0.000 N 
ATOM     24  C   UNL     1       0.182  12.498  19.667  0.00  0.00    +0.000 A 
ATOM     25  N   UNL     1       0.517  13.499  18.884  0.00  0.00    +0.000 NA
ATOM     26  C   UNL     1      -0.207  14.633  19.170  0.00  0.00    +0.000 A 
ATOM     27  C   UNL     1      -0.093  15.856  18.486  0.00  0.00    +0.000 A 
ATOM     28  C   UNL     1      -0.870  16.942  18.883  0.00  0.00    +0.000 A 
ATOM     29  C   UNL     1      -1.748  16.821  19.955  0.00  0.00    +0.000 A 
ATOM     30  C   UNL     1      -1.885  15.606  20.643  0.00  0.00    +0.000 A 
ATOM     31  C   UNL     1      -1.106  14.515  20.228  0.00  0.00    +0.000 A 
ATOM     32  S   UNL     1      -1.040  12.897  20.824  0.00  0.00    +0.000 S 
ATOM     33  C   UNL     1       0.281  10.034  20.110  0.00  0.00    +0.000 C 
ENDBRANCH  19  20
ENDBRANCH  18  19
ENDBRANCH   6  18
TORSDOF 6
ENDMDL
MODEL 9
REMARK VINA RESULT:      -8.1      1.518      2.011
REMARK  Name = 
REMARK  6 active torsions:
REMARK  status: ('A' for Active; 'I' for Inactive)
REMARK    1  A    between atoms: S_2  and  N_4
REMARK    2  A    between atoms: S_2  and  C_27
REMARK    3  A    between atoms: N_4  and  C_5
REMARK    4  A    between atoms: C_10  and  O_11
REMARK    5  A    between atoms: O_11  and  C_12
REMARK    6  A    between atoms: C_12  and  C_13
REMARK                            x       y       z     vdW  Elec       q    Type
REMARK                         _______ _______ _______ _____ _____    ______ ____
ROOT
ATOM      1  C   UNL     1       2.833   4.776  18.643  0.00  0.00    +0.000 A 
ATOM      2  C   UNL     1       2.383   3.449  18.602  0.00  0.00    +0.000 A 
ATOM      3  C   UNL     1       1.420   2.991  19.498  0.00  0.00    +0.000 A 
ATOM      4  C   UNL     1       0.889   3.868  20.435  0.00  0.00    +0.000 A 
ATOM      5  C   UNL     1       1.322   5.198  20.475  0.00  0.00    +0.000 A 
ATOM      6  C   UNL     1       2.309   5.675  19.594  0.00  0.00    +0.000 A 
ENDROOT
BRANCH   1   7
ATOM      7  N   UNL     1       3.794   5.104  17.639  0.00  0.00    +0.000 N 
ATOM      8  H   UNL     1       3.474   5.113  16.676  0.00  0.00    +0.000 HD
BRANCH   7  10
ATOM      9  O   UNL     1       5.490   3.768  19.066  0.00  0.00    +0.000 OA
ATOM     10  S   UNL     1       5.354   4.459  17.801  0.00  0.00    +0.000 S 
ATOM     11  O   UNL     1       5.632   3.786  16.543  0.00  0.00    +0.000 OA
BRANCH  10  12
ATOM     12  C   UNL     1       6.435   5.877  17.851  0.00  0.00    +0.000 A 
ATOM     13  C   UNL     1       7.481   5.879  18.761  0.00  0.00    +0.000 A 
ATOM     14  C   UNL     1       8.283   7.011  18.806  0.00  0.00    +0.000 A 
ATOM     15  C   UNL     1       8.016   8.070  17.940  0.00  0.00    +0.000 A 
ATOM     16  C   UNL     1       6.964   7.953  17.042  0.00  0.00    +0.000 A 
ATOM     17  N   UNL     1       6.158   6.874  16.968  0.00  0.00    +0.000 NA
ENDBRANCH  10  12
ENDBRANCH   7  10
ENDBRANCH   1   7
BRANCH   6  18
ATOM     18  O   UNL     1       2.600   7.012  19.779  0.00  0.00    +0.000 OA
BRANCH  18  19
ATOM     19  C   UNL     1       2.532   7.844  18.632  0.00  0.00    +0.000 C 
BRANCH  19  20
ATOM     20  C   UNL     1       1.335   8.791  18.558  0.00  0.00    +0.000 C 
ATOM     21  C   UNL     1       1.591  10.073  17.777  0.00  0.00    +0.000 C 
ATOM     22  C   UNL     1       1.791  11.141  18.834  0.00  0.00    +0.000 C 
ATOM     23  N   UNL     1       0.995  10.678  19.950  0.00  0.00    +0.000 N 
ATOM     24  C   UNL     1       0.369  11.567  20.763  0.00  0.00    +0.000 A 
ATOM     25  N   UNL     1       0.384  12.856  20.508  0.00  0.00    +0.000 NA
ATOM     26  C   UNL     1      -0.319  13.569  21.453  0.00  0.00    +0.000 A 
ATOM     27  C   UNL     1      -0.505  14.962  21.437  0.00  0.00    +0.000 A 
ATOM     28  C   UNL     1      -1.223  15.572  22.464  0.00  0.00    +0.000 A 
ATOM     29  C   UNL     1      -1.745  14.809  23.503  0.00  0.00    +0.000 A 
ATOM     30  C   UNL     1      -1.581  13.416  23.531  0.00  0.00    +0.000 A 
ATOM     31  C   UNL     1      -0.866  12.810  22.486  0.00  0.00    +0.000 A 
ATOM     32  S   UNL     1      -0.500  11.149  22.198  0.00  0.00    +0.000 S 
ATOM     33  C   UNL     1       0.793   9.242  19.929  0.00  0.00    +0.000 C 
ENDBRANCH  19  20
ENDBRANCH  18  19
ENDBRANCH   6  18
TORSDOF 6
ENDMDL
